# generated using pymatgen
data_Ni2H29C42IO11
_symmetry_space_group_name_H-M   'P 1'
_cell_length_a   22.88498000
_cell_length_b   22.40256000
_cell_length_c   26.98037000
_cell_angle_alpha   90.00127000
_cell_angle_beta   90.00604000
_cell_angle_gamma   92.71829000
_symmetry_Int_Tables_number   1
_chemical_formula_structural   Ni2H29C42IO11
_chemical_formula_sum   'Ni8 H116 C168 I4 O44'
_cell_volume   13816.78933333
_cell_formula_units_Z   4
loop_
 _symmetry_equiv_pos_site_id
 _symmetry_equiv_pos_as_xyz
  1  'x, y, z'
loop_
 _atom_site_type_symbol
 _atom_site_label
 _atom_site_symmetry_multiplicity
 _atom_site_fract_x
 _atom_site_fract_y
 _atom_site_fract_z
 _atom_site_occupancy
  Ni  Ni1  1  0.45566000  0.52588000  0.04671000  1
  Ni  Ni2  1  0.51523000  0.45961000  0.95910000  1
  Ni  Ni3  1  0.51647000  0.39643000  0.06586000  1
  Ni  Ni4  1  0.45800000  0.58984000  0.94028000  1
  Ni  Ni5  1  0.48286000  0.54244000  0.54246000  1
  Ni  Ni6  1  0.54676000  0.47285000  0.45909000  1
  Ni  Ni7  1  0.53849000  0.41190000  0.56649000  1
  Ni  Ni8  1  0.49023000  0.60283000  0.43470000  1
  H  H1  1  0.06932000  0.80823000  0.94681000  1
  H  H2  1  0.15570000  0.74624000  0.94743000  1
  H  H3  1  0.16997000  0.76855000  0.10572000  1
  H  H4  1  0.08388000  0.83102000  0.10497000  1
  H  H5  1  0.20156000  0.21366000  0.89729000  1
  H  H6  1  0.11115000  0.14907000  0.90245000  1
  H  H7  1  0.21902000  0.20674000  0.05621000  1
  H  H8  1  0.12825000  0.14288000  0.06139000  1
  H  H9  1  0.88856000  0.15082000  0.90705000  1
  H  H10  1  0.80273000  0.21350000  0.90298000  1
  H  H11  1  0.89934000  0.17959000  0.06475000  1
  H  H12  1  0.81315000  0.24166000  0.06085000  1
  H  H13  1  0.86025000  0.83418000  0.11211000  1
  H  H14  1  0.76999000  0.76926000  0.11665000  1
  H  H15  1  0.84191000  0.84450000  0.95342000  1
  H  H16  1  0.75129000  0.78036000  0.95802000  1
  H  H17  1  0.13897000  0.03116000  0.99215000  1
  H  H18  1  0.12507000  0.92536000  0.01043000  1
  H  H19  1  0.95895000  0.79112000  0.03918000  1
  H  H20  1  0.83189000  0.95440000  0.02347000  1
  H  H21  1  0.84574000  0.06011000  0.00475000  1
  H  H22  1  0.01179000  0.19407000  0.97479000  1
  H  H23  1  0.92399000  0.18452000  0.40225000  1
  H  H24  1  0.83735000  0.24614000  0.40513000  1
  H  H25  1  0.84135000  0.24164000  0.56477000  1
  H  H26  1  0.92859000  0.18092000  0.56188000  1
  H  H27  1  0.77931000  0.79255000  0.44587000  1
  H  H28  1  0.87186000  0.85317000  0.43828000  1
  H  H29  1  0.79513000  0.79726000  0.60502000  1
  H  H30  1  0.88787000  0.85782000  0.59738000  1
  H  H31  1  0.09703000  0.81866000  0.43081000  1
  H  H32  1  0.18384000  0.75733000  0.43272000  1
  H  H33  1  0.11292000  0.84814000  0.58814000  1
  H  H34  1  0.19934000  0.78620000  0.59023000  1
  H  H35  1  0.16662000  0.14650000  0.54551000  1
  H  H36  1  0.25870000  0.20822000  0.53949000  1
  H  H37  1  0.13559000  0.17332000  0.38971000  1
  H  H38  1  0.22690000  0.23642000  0.38403000  1
  H  H39  1  0.86154000  0.97028000  0.50747000  1
  H  H40  1  0.87652000  0.07650000  0.49148000  1
  H  H41  1  0.04405000  0.21030000  0.46746000  1
  H  H42  1  0.16866000  0.04395000  0.47301000  1
  H  H43  1  0.15384000  0.93784000  0.48958000  1
  H  H44  1  0.98707000  0.80564000  0.52175000  1
  H  H45  1  0.56377000  0.49486000  0.04034000  1
  H  H46  1  0.40796000  0.49223000  0.96481000  1
  H  H47  1  0.58980000  0.50855000  0.54216000  1
  H  H48  1  0.43896000  0.50584000  0.45966000  1
  H  H49  1  0.41657000  0.54320000  0.70159000  1
  H  H50  1  0.57782000  0.46352000  0.80137000  1
  H  H51  1  0.58772000  0.56377000  0.28205000  1
  H  H52  1  0.42256000  0.43131000  0.22176000  1
  H  H53  1  0.39833000  0.75414000  0.53194000  1
  H  H54  1  0.20664000  0.65033000  0.49451000  1
  H  H55  1  0.36371000  0.84678000  0.47248000  1
  H  H56  1  0.32219000  0.90541000  0.49766000  1
  H  H57  1  0.28505000  0.84904000  0.46085000  1
  H  H58  1  0.26494000  0.59370000  0.41849000  1
  H  H59  1  0.29788000  0.52432000  0.43061000  1
  H  H60  1  0.34440000  0.59043000  0.42476000  1
  H  H61  1  0.58270000  0.74962000  0.49930000  1
  H  H62  1  0.77224000  0.67546000  0.55713000  1
  H  H63  1  0.60946000  0.85000000  0.55918000  1
  H  H64  1  0.65019000  0.91280000  0.53339000  1
  H  H65  1  0.68699000  0.86386000  0.57408000  1
  H  H66  1  0.67908000  0.56006000  0.48270000  1
  H  H67  1  0.70940000  0.51226000  0.52813000  1
  H  H68  1  0.75335000  0.57500000  0.50619000  1
  H  H69  1  0.73373000  0.42294000  0.47406000  1
  H  H70  1  0.72341000  0.20282000  0.49837000  1
  H  H71  1  0.82932000  0.43115000  0.53252000  1
  H  H72  1  0.90149000  0.41957000  0.50995000  1
  H  H73  1  0.86464000  0.36103000  0.54464000  1
  H  H74  1  0.59202000  0.27145000  0.42721000  1
  H  H75  1  0.55627000  0.20851000  0.45717000  1
  H  H76  1  0.62881000  0.20106000  0.43377000  1
  H  H77  1  0.24982000  0.34670000  0.47046000  1
  H  H78  1  0.44954000  0.26990000  0.45880000  1
  H  H79  1  0.27432000  0.41811000  0.54393000  1
  H  H80  1  0.32240000  0.48355000  0.54597000  1
  H  H81  1  0.35065000  0.41329000  0.56244000  1
  H  H82  1  0.33123000  0.19146000  0.37344000  1
  H  H83  1  0.37522000  0.12982000  0.38787000  1
  H  H84  1  0.41069000  0.20210000  0.37951000  1
  H  H85  1  0.17552000  0.63616000  0.00705000  1
  H  H86  1  0.36925000  0.73534000  0.04484000  1
  H  H87  1  0.27727000  0.53697000  0.07651000  1
  H  H88  1  0.24570000  0.48218000  0.03490000  1
  H  H89  1  0.20100000  0.53994000  0.05693000  1
  H  H90  1  0.33646000  0.82990000  0.98877000  1
  H  H91  1  0.29591000  0.88871000  0.01483000  1
  H  H92  1  0.25796000  0.83388000  0.97703000  1
  H  H93  1  0.66055000  0.58881000  0.99508000  1
  H  H94  1  0.64792000  0.78664000  0.07672000  1
  H  H95  1  0.79907000  0.64793000  0.07087000  1
  H  H96  1  0.83195000  0.60547000  0.02301000  1
  H  H97  1  0.76369000  0.57794000  0.04861000  1
  H  H98  1  0.54679000  0.80225000  0.03013000  1
  H  H99  1  0.47755000  0.77272000  0.05220000  1
  H  H100  1  0.51138000  0.73583000  0.00166000  1
  H  H101  1  0.79524000  0.34939000  0.99889000  1
  H  H102  1  0.60211000  0.24992000  0.95943000  1
  H  H103  1  0.76991000  0.44554000  0.94788000  1
  H  H104  1  0.72498000  0.50329000  0.96965000  1
  H  H105  1  0.69371000  0.44833000  0.92803000  1
  H  H106  1  0.71155000  0.15224000  0.03000000  1
  H  H107  1  0.67443000  0.09690000  0.99215000  1
  H  H108  1  0.63337000  0.15618000  0.01680000  1
  H  H109  1  0.32292000  0.19704000  0.93776000  1
  H  H110  1  0.31088000  0.39735000  0.01523000  1
  H  H111  1  0.45973000  0.25089000  0.01101000  1
  H  H112  1  0.49357000  0.21233000  0.96138000  1
  H  H113  1  0.42454000  0.18330000  0.98429000  1
  H  H114  1  0.20649000  0.40591000  0.96260000  1
  H  H115  1  0.13898000  0.37922000  0.99006000  1
  H  H116  1  0.17067000  0.33511000  0.94267000  1
  C  C1  1  0.09494000  0.01282000  0.99818000  1
  C  C2  1  0.08687000  0.95193000  0.00822000  1
  C  C3  1  0.04675000  0.04949000  0.99565000  1
  C  C4  1  0.98950000  0.02367000  0.00246000  1
  C  C5  1  0.98128000  0.96173000  0.01243000  1
  C  C6  1  0.03022000  0.92564000  0.01525000  1
  C  C7  1  0.94054000  0.05969000  0.99935000  1
  C  C8  1  0.88392000  0.03349000  0.00677000  1
  C  C9  1  0.92405000  0.93593000  0.01937000  1
  C  C10  1  0.02159000  0.86373000  0.02496000  1
  C  C11  1  0.96510000  0.83870000  0.03214000  1
  C  C12  1  0.91628000  0.87375000  0.02879000  1
  C  C13  1  0.05451000  0.11163000  0.98607000  1
  C  C14  1  0.00566000  0.14657000  0.98221000  1
  C  C15  1  0.94913000  0.12146000  0.98898000  1
  C  C16  1  0.07114000  0.82411000  0.02579000  1
  C  C17  1  0.09107000  0.79939000  0.98153000  1
  C  C18  1  0.13986000  0.76431000  0.98189000  1
  C  C19  1  0.16890000  0.75358000  0.02656000  1
  C  C20  1  0.14803000  0.77706000  0.07103000  1
  C  C21  1  0.09929000  0.81227000  0.07063000  1
  C  C22  1  0.85729000  0.84380000  0.03244000  1
  C  C23  1  0.83615000  0.82317000  0.07851000  1
  C  C24  1  0.78509000  0.78630000  0.08108000  1
  C  C25  1  0.82584000  0.82899000  0.98916000  1
  C  C26  1  0.77469000  0.79240000  0.99175000  1
  C  C27  1  0.75487000  0.76974000  0.03758000  1
  C  C28  1  0.11348000  0.14156000  0.98229000  1
  C  C29  1  0.14461000  0.15745000  0.02549000  1
  C  C30  1  0.19585000  0.19388000  0.02256000  1
  C  C31  1  0.21607000  0.21527000  0.97645000  1
  C  C32  1  0.18615000  0.19762000  0.93307000  1
  C  C33  1  0.13500000  0.16094000  0.93598000  1
  C  C34  1  0.89939000  0.16071000  0.98623000  1
  C  C35  1  0.87234000  0.17087000  0.94058000  1
  C  C36  1  0.82376000  0.20621000  0.93830000  1
  C  C37  1  0.80191000  0.23146000  0.98170000  1
  C  C38  1  0.82977000  0.22228000  0.02719000  1
  C  C39  1  0.87844000  0.18711000  0.02942000  1
  C  C40  1  0.87588000  0.97266000  0.01708000  1
  C  C41  1  0.90577000  0.98841000  0.50208000  1
  C  C42  1  0.91446000  0.04954000  0.49347000  1
  C  C43  1  0.95356000  0.95117000  0.50377000  1
  C  C44  1  0.01096000  0.97646000  0.49669000  1
  C  C45  1  0.01982000  0.03866000  0.48824000  1
  C  C46  1  0.97138000  0.07553000  0.48733000  1
  C  C47  1  0.05942000  0.93964000  0.49797000  1
  C  C48  1  0.11610000  0.96517000  0.48948000  1
  C  C49  1  0.07717000  0.06387000  0.48069000  1
  C  C50  1  0.98073000  0.13787000  0.48015000  1
  C  C51  1  0.03736000  0.16243000  0.47272000  1
  C  C52  1  0.08563000  0.12639000  0.47319000  1
  C  C53  1  0.94524000  0.88891000  0.51249000  1
  C  C54  1  0.99363000  0.85321000  0.51487000  1
  C  C55  1  0.05027000  0.87774000  0.50748000  1
  C  C56  1  0.93177000  0.17822000  0.48186000  1
  C  C57  1  0.90636000  0.19741000  0.43773000  1
  C  C58  1  0.85731000  0.23211000  0.43936000  1
  C  C59  1  0.83343000  0.24776000  0.48514000  1
  C  C60  1  0.85955000  0.22958000  0.52928000  1
  C  C61  1  0.90893000  0.19537000  0.52766000  1
  C  C62  1  0.14489000  0.15542000  0.46798000  1
  C  C63  1  0.18022000  0.16504000  0.51002000  1
  C  C64  1  0.23224000  0.20018000  0.50665000  1
  C  C65  1  0.16272000  0.18021000  0.42231000  1
  C  C66  1  0.21441000  0.21599000  0.41909000  1
  C  C67  1  0.24900000  0.22664000  0.46137000  1
  C  C68  1  0.88607000  0.85982000  0.51730000  1
  C  C69  1  0.86392000  0.84423000  0.56430000  1
  C  C70  1  0.81161000  0.80962000  0.56862000  1
  C  C71  1  0.78109000  0.79041000  0.52596000  1
  C  C72  1  0.80261000  0.80713000  0.47901000  1
  C  C73  1  0.85490000  0.84165000  0.47470000  1
  C  C74  1  0.09956000  0.83790000  0.50926000  1
  C  C75  1  0.11913000  0.81136000  0.46565000  1
  C  C76  1  0.16814000  0.77664000  0.46675000  1
  C  C77  1  0.19773000  0.76808000  0.51153000  1
  C  C78  1  0.17702000  0.79310000  0.55543000  1
  C  C79  1  0.12810000  0.82800000  0.55427000  1
  C  C80  1  0.12472000  0.02623000  0.48043000  1
  C  C81  1  0.42135000  0.37066000  0.99388000  1
  C  C82  1  0.48600000  0.48143000  0.14744000  1
  C  C83  1  0.59492000  0.36628000  0.98270000  1
  C  C84  1  0.54977000  0.61577000  0.01496000  1
  C  C85  1  0.49299000  0.50727000  0.85776000  1
  C  C86  1  0.37605000  0.61890000  0.02171000  1
  C  C87  1  0.45008000  0.38462000  0.48887000  1
  C  C88  1  0.50061000  0.49763000  0.64531000  1
  C  C89  1  0.62364000  0.37893000  0.48845000  1
  C  C90  1  0.57964000  0.63033000  0.51061000  1
  C  C91  1  0.52314000  0.51510000  0.35639000  1
  C  C92  1  0.40705000  0.63680000  0.51303000  1
  C  C93  1  0.49359000  0.50295000  0.80347000  1
  C  C94  1  0.44823000  0.52607000  0.77511000  1
  C  C95  1  0.45209000  0.52647000  0.72335000  1
  C  C96  1  0.50068000  0.50353000  0.69950000  1
  C  C97  1  0.54623000  0.48084000  0.72788000  1
  C  C98  1  0.54232000  0.48032000  0.77962000  1
  C  C99  1  0.49651000  0.48930000  0.20078000  1
  C  C100  1  0.54312000  0.52703000  0.21796000  1
  C  C101  1  0.55150000  0.53510000  0.26892000  1
  C  C102  1  0.51369000  0.50587000  0.30304000  1
  C  C103  1  0.46700000  0.46823000  0.28585000  1
  C  C104  1  0.45885000  0.45988000  0.23490000  1
  C  C105  1  0.25149000  0.73464000  0.51207000  1
  C  C106  1  0.30607000  0.76433000  0.52132000  1
  C  C107  1  0.35670000  0.73166000  0.52290000  1
  C  C108  1  0.35368000  0.67027000  0.51266000  1
  C  C109  1  0.29961000  0.64131000  0.50060000  1
  C  C110  1  0.24852000  0.67322000  0.50195000  1
  C  C111  1  0.32055000  0.85705000  0.48863000  1
  C  C112  1  0.30115000  0.57288000  0.43879000  1
  C  C113  1  0.72726000  0.75161000  0.53025000  1
  C  C114  1  0.67277000  0.77318000  0.51651000  1
  C  C115  1  0.62383000  0.73342000  0.51241000  1
  C  C116  1  0.62834000  0.67262000  0.52340000  1
  C  C117  1  0.68204000  0.65168000  0.53996000  1
  C  C118  1  0.73093000  0.69166000  0.54449000  1
  C  C119  1  0.65312000  0.86536000  0.54451000  1
  C  C120  1  0.70787000  0.55945000  0.51594000  1
  C  C121  1  0.77995000  0.28143000  0.48682000  1
  C  C122  1  0.78291000  0.34387000  0.48081000  1
  C  C123  1  0.73132000  0.37501000  0.47978000  1
  C  C124  1  0.67693000  0.34471000  0.48701000  1
  C  C125  1  0.67398000  0.28191000  0.49212000  1
  C  C126  1  0.72566000  0.25088000  0.49334000  1
  C  C127  1  0.85808000  0.39703000  0.51701000  1
  C  C128  1  0.59928000  0.23262000  0.45187000  1
  C  C129  1  0.39896000  0.34692000  0.47345000  1
  C  C130  1  0.34229000  0.36848000  0.47718000  1
  C  C131  1  0.29336000  0.32987000  0.46806000  1
  C  C132  1  0.30040000  0.26896000  0.45927000  1
  C  C133  1  0.35701000  0.24788000  0.45353000  1
  C  C134  1  0.40604000  0.28690000  0.46097000  1
  C  C135  1  0.31999000  0.43522000  0.53692000  1
  C  C136  1  0.37058000  0.17827000  0.39430000  1
  C  C137  1  0.32279000  0.65241000  0.02572000  1
  C  C138  1  0.26765000  0.62393000  0.01659000  1
  C  C139  1  0.21768000  0.65771000  0.01577000  1
  C  C140  1  0.22194000  0.71895000  0.02655000  1
  C  C141  1  0.27704000  0.74729000  0.03613000  1
  C  C142  1  0.32704000  0.71363000  0.03662000  1
  C  C143  1  0.24615000  0.53016000  0.04507000  1
  C  C144  1  0.29345000  0.84057000  0.00501000  1
  C  C145  1  0.70424000  0.72627000  0.03958000  1
  C  C146  1  0.70830000  0.66878000  0.01908000  1
  C  C147  1  0.65770000  0.63169000  0.01329000  1
  C  C148  1  0.60331000  0.65049000  0.02945000  1
  C  C149  1  0.59989000  0.70650000  0.05294000  1
  C  C150  1  0.65072000  0.74348000  0.05896000  1
  C  C151  1  0.78945000  0.61934000  0.03781000  1
  C  C152  1  0.52031000  0.76010000  0.03708000  1
  C  C153  1  0.64828000  0.33297000  0.97862000  1
  C  C154  1  0.70328000  0.36154000  0.98816000  1
  C  C155  1  0.75322000  0.32776000  0.98980000  1
  C  C156  1  0.74906000  0.26633000  0.97977000  1
  C  C157  1  0.69413000  0.23795000  0.96958000  1
  C  C158  1  0.64419000  0.27168000  0.96800000  1
  C  C159  1  0.72469000  0.45528000  0.95956000  1
  C  C160  1  0.67673000  0.14518000  0.00146000  1
  C  C161  1  0.36769000  0.33501000  0.98120000  1
  C  C162  1  0.37101000  0.27810000  0.95924000  1
  C  C163  1  0.32022000  0.24077000  0.95455000  1
  C  C164  1  0.26688000  0.25850000  0.97393000  1
  C  C165  1  0.26298000  0.31653000  0.99342000  1
  C  C166  1  0.31355000  0.35399000  0.99780000  1
  C  C167  1  0.45080000  0.22529000  0.97623000  1
  C  C168  1  0.18110000  0.36489000  0.97486000  1
  I  I1  1  0.37206000  0.55783000  0.80936000  1
  I  I2  1  0.62272000  0.44980000  0.69362000  1
  I  I3  1  0.60282000  0.57074000  0.16785000  1
  I  I4  1  0.40611000  0.42608000  0.33584000  1
  O  O1  1  0.52546000  0.47455000  0.03274000  1
  O  O2  1  0.46706000  0.52687000  0.12226000  1
  O  O3  1  0.47798000  0.42689000  0.13022000  1
  O  O4  1  0.50902000  0.60287000  0.04805000  1
  O  O5  1  0.41920000  0.63988000  0.99320000  1
  O  O6  1  0.43310000  0.38104000  0.04063000  1
  O  O7  1  0.58511000  0.40804000  0.95004000  1
  O  O8  1  0.44645000  0.51173000  0.97307000  1
  O  O9  1  0.38557000  0.57724000  0.05464000  1
  O  O10  1  0.50138000  0.45879000  0.88381000  1
  O  O11  1  0.50151000  0.56034000  0.87786000  1
  O  O12  1  0.53985000  0.60581000  0.96791000  1
  O  O13  1  0.46088000  0.38314000  0.95954000  1
  O  O14  1  0.55227000  0.34587000  0.01186000  1
  O  O15  1  0.55177000  0.48903000  0.53269000  1
  O  O16  1  0.49126000  0.54512000  0.61832000  1
  O  O17  1  0.49223000  0.44397000  0.62638000  1
  O  O18  1  0.53826000  0.61825000  0.54348000  1
  O  O19  1  0.45205000  0.65562000  0.48583000  1
  O  O20  1  0.45773000  0.39548000  0.53607000  1
  O  O21  1  0.61677000  0.42071000  0.45501000  1
  O  O22  1  0.47705000  0.52561000  0.46877000  1
  O  O23  1  0.41340000  0.59536000  0.54676000  1
  O  O24  1  0.53969000  0.46989000  0.38316000  1
  O  O25  1  0.53172000  0.56994000  0.37274000  1
  O  O26  1  0.57148000  0.61642000  0.46397000  1
  O  O27  1  0.49264000  0.39639000  0.45719000  1
  O  O28  1  0.57890000  0.35978000  0.51606000  1
  O  O29  1  0.30932000  0.82456000  0.53266000  1
  O  O30  1  0.29617000  0.58077000  0.49046000  1
  O  O31  1  0.66851000  0.83213000  0.50250000  1
  O  O32  1  0.68569000  0.59310000  0.55531000  1
  O  O33  1  0.83599000  0.37391000  0.47177000  1
  O  O34  1  0.62077000  0.25109000  0.49870000  1
  O  O35  1  0.33489000  0.42833000  0.48654000  1
  O  O36  1  0.36455000  0.18779000  0.44567000  1
  O  O37  1  0.26340000  0.56431000  0.00318000  1
  O  O38  1  0.28150000  0.80722000  0.04847000  1
  O  O39  1  0.76092000  0.65091000  0.00042000  1
  O  O40  1  0.54740000  0.72390000  0.07226000  1
  O  O41  1  0.70728000  0.42121000  0.00145000  1
  O  O42  1  0.68980000  0.17784000  0.95784000  1
  O  O43  1  0.42339000  0.26002000  0.94019000  1
  O  O44  1  0.21067000  0.33469000  0.01246000  1
