# Generated by REPEAT Assigner based on pymatgen
data_DB7-ddmof_18178
_audit_creation_date              2022-05-24
_audit_creation_method            REPEAT_Assigner
_cell_length_a                    38.409520
_cell_length_b                    37.524890
_cell_length_c                    22.981890
_cell_angle_alpha                 89.960210
_cell_angle_beta                  89.941040
_cell_angle_gamma                 87.415910
_cell_volume                      33090.389661
_symmetry_space_group_name_H-M    P1
_symmetry_Int_Tables_number       1
loop_
    _symmetry_equiv_pos_site_id
    _symmetry_equiv_pos_as_xyz
    1  x,y,z
loop_
    _atom_site_type_symbol
    _atom_site_label
    _atom_site_fract_x
    _atom_site_fract_y
    _atom_site_fract_z
    _atom_type_partial_charge
    C   C1    0.445750  0.551140  0.004020  -0.212332
    C   C2    0.476510  0.568950  0.011420  -0.201438
    C   C3    0.446270  0.513580  0.001460  0.089297
    C   C4    0.478490  0.493910  0.006100  0.037697
    C   C5    0.509860  0.512060  0.011920  0.017977
    C   C6    0.508870  0.549830  0.014660  0.106971
    C   C7    0.479400  0.456110  0.004950  0.078494
    C   C8    0.511700  0.436960  0.009270  -0.188303
    C   C9    0.542170  0.492420  0.014830  0.094245
    C   C10   0.540400  0.567720  0.020670  -0.145457
    C   C11   0.572170  0.548060  0.022930  -0.158200
    C   C12   0.573450  0.510830  0.019050  -0.138922
    C   C13   0.415120  0.495220  0.994460  -0.123402
    C   C14   0.416250  0.457930  0.993650  -0.167673
    C   C15   0.447840  0.438220  0.999460  -0.117743
    C   C16   0.540790  0.607090  0.023750  0.418278
    C   C17   0.538450  0.627480  0.972580  -0.249395
    C   C18   0.543590  0.664130  0.974370  0.093078
    C   C19   0.551720  0.680560  0.027210  -0.633451
    C   C20   0.553200  0.660310  0.078590  0.072787
    C   C21   0.547620  0.623760  0.076890  -0.248481
    C   C22   0.607900  0.491830  0.015900  0.460546
    C   C23   0.625760  0.482310  0.067210  -0.246997
    C   C24   0.660790  0.470490  0.064860  0.091175
    C   C25   0.624760  0.487700  0.962030  -0.276074
    C   C26   0.659810  0.476140  0.959670  0.087290
    C   C27   0.678260  0.468470  0.011200  -0.631044
    C   C28   0.381040  0.514600  0.987600  0.435819
    C   C29   0.362220  0.526310  0.036830  -0.246564
    C   C30   0.328550  0.541590  0.030740  0.086217
    C   C31   0.313270  0.544780  0.975390  -0.606070
    C   C32   0.332400  0.533670  0.926060  0.083395
    C   C33   0.366190  0.518720  0.932160  -0.266890
    C   C34   0.447130  0.398860  0.001300  0.441620
    C   C35   0.451810  0.378970  0.949990  -0.255717
    C   C36   0.445540  0.342520  0.949640  0.091971
    C   C37   0.434100  0.325820  0.000450  -0.623861
    C   C38   0.430680  0.345480  0.052250  0.083957
    C   C39   0.437270  0.381820  0.052680  -0.274053
    C   C40   0.542640  0.454850  0.013840  -0.220242
    C   C41   0.312070  0.076070  0.019930  0.196905
    C   C42   0.393460  0.072700  0.924200  0.930057
    C   C43   0.389850  0.086880  0.128880  0.535481
    C   C44   0.394630  0.182800  0.996150  0.423914
    C   C45   0.498460  0.973520  0.557050  0.082008
    C   C46   0.470450  0.999490  0.559680  0.144709
    C   C47   0.523940  0.975680  0.513370  -0.304652
    C   C48   0.521640  0.003370  0.472100  0.121306
    C   C49   0.468060  0.027070  0.518270  -0.295651
    C   C50   0.493350  0.029070  0.474300  0.067370
    C   C51   0.491430  0.056620  0.432330  0.019153
    C   C52   0.515810  0.057950  0.386860  -0.071701
    C   C53   0.502300  0.076000  0.336500  -0.147458
    C   C54   0.467340  0.087830  0.342080  0.089797
    C   C55   0.547430  0.006730  0.428920  -0.073045
    C   C56   0.544340  0.033100  0.385710  0.146336
    C   C57   0.564360  0.024480  0.334980  -0.396340
    C   C58   0.582320  0.991280  0.338480  0.224931
    C   C59   0.475270  0.943930  0.643290  0.039597
    C   C60   0.499950  0.945580  0.598280  -0.030979
    C   C61   0.523280  0.913090  0.687890  0.194943
    C   C62   0.488350  0.924950  0.693110  -0.316837
    C   C63   0.444910  0.996620  0.603380  -0.075563
    C   C64   0.447280  0.969460  0.645480  0.092689
    C   C65   0.428650  0.978540  0.697480  -0.257473
    C   C66   0.413730  0.013290  0.697220  -0.009871
    C   C67   0.677970  0.924880  0.992420  0.323139
    C   C68   0.590570  0.917580  0.908830  1.002980
    C   C69   0.607870  0.935770  0.111530  0.530856
    C   C70   0.588570  0.824360  0.023450  0.470737
    C   C71   0.059220  0.670450  0.999370  0.312230
    C   C72   0.066300  0.594840  0.887550  1.000547
    C   C73   0.076110  0.583680  0.092200  0.558794
    C   C74   0.171470  0.589390  0.964210  0.393505
    C   C75   0.998590  0.524980  0.528260  0.089970
    C   C76   0.972110  0.499830  0.530330  0.103585
    C   C77   0.025440  0.521140  0.486910  -0.283104
    C   C78   0.025830  0.492840  0.446850  0.090770
    C   C79   0.973180  0.470800  0.491640  -0.304386
    C   C80   0.999670  0.467350  0.449470  0.127455
    C   C81   0.000330  0.439290  0.408540  -0.048894
    C   C82   0.025040  0.437420  0.363290  0.048605
    C   C83   0.013010  0.419280  0.313070  -0.329141
    C   C84   0.978840  0.408210  0.318270  0.241640
    C   C85   0.051760  0.489440  0.403470  -0.044214
    C   C86   0.051390  0.462330  0.361370  0.066840
    C   C87   0.069260  0.471260  0.309250  -0.231865
    C   C88   0.081030  0.506000  0.308870  -0.016428
    C   C89   0.970020  0.558390  0.608260  0.058169
    C   C90   0.996890  0.554150  0.566970  -0.039355
    C   C91   0.014540  0.588520  0.656340  0.109166
    C   C92   0.979840  0.578630  0.657680  -0.282831
    C   C93   0.944440  0.505150  0.570220  -0.045852
    C   C94   0.943350  0.533820  0.609510  0.064917
    C   C95   0.922820  0.527310  0.659830  -0.299243
    C   C96   0.909670  0.493130  0.661330  0.126806
    C   C97   0.824390  0.446240  0.008140  0.277697
    C   C98   0.907310  0.422640  0.100420  0.502865
    C   C99   0.898950  0.444200  0.895880  0.815883
    C   C100  0.902080  0.333630  0.954580  0.405305
    C   C101  0.929290  0.021250  0.994430  -0.204834
    C   C102  0.945540  0.053580  0.989440  -0.202182
    C   C103  0.949140  0.989070  0.001790  0.092669
    C   C104  0.985920  0.989860  0.005120  0.029908
    C   C105  0.002390  0.022800  0.001430  0.015911
    C   C106  0.982100  0.054840  0.993130  0.104393
    C   C107  0.006270  0.957720  0.011810  0.092882
    C   C108  0.042700  0.959050  0.017470  -0.195167
    C   C109  0.039130  0.023640  0.005830  0.100571
    C   C110  0.998850  0.087600  0.988590  -0.128180
    C   C111  0.035140  0.088180  0.992960  -0.161928
    C   C112  0.055400  0.056690  0.001350  -0.131534
    C   C113  0.932930  0.955970  0.005740  -0.138359
    C   C114  0.953310  0.924360  0.011600  -0.171040
    C   C115  0.989680  0.924810  0.013230  -0.141135
    C   C116  0.978830  0.121550  0.978490  0.427657
    C   C117  0.977210  0.136420  0.922510  -0.231141
    C   C118  0.960930  0.170040  0.913730  0.065493
    C   C119  0.946000  0.188980  0.960860  -0.623322
    C   C120  0.946710  0.173580  0.016580  0.100202
    C   C121  0.963300  0.140110  0.025410  -0.283863
    C   C122  0.093690  0.058770  0.004320  0.402269
    C   C123  0.109500  0.069860  0.055800  -0.216548
    C   C124  0.145570  0.073390  0.057900  0.050585
    C   C125  0.114140  0.051360  0.954840  -0.240098
    C   C126  0.150230  0.054640  0.956980  0.075617
    C   C127  0.166120  0.065760  0.008490  -0.575555
    C   C128  0.894650  0.953790  0.002760  0.443876
    C   C129  0.875270  0.950190  0.053980  -0.256316
    C   C130  0.839500  0.945030  0.051080  0.074389
    C   C131  0.822800  0.943490  0.996860  -0.607418
    C   C132  0.842160  0.947640  0.945620  0.076056
    C   C133  0.877980  0.952570  0.948570  -0.236001
    C   C134  0.009950  0.890470  0.011600  0.481848
    C   C135  0.019530  0.875310  0.957880  -0.296613
    C   C136  0.032690  0.840040  0.955160  0.085762
    C   C137  0.036450  0.819690  0.006210  -0.614286
    C   C138  0.029040  0.835650  0.060320  0.082323
    C   C139  0.015650  0.870880  0.062970  -0.269324
    C   C140  0.058880  0.991540  0.014860  -0.217898
    C   C141  0.910970  0.295430  0.949300  0.828422
    C   C142  0.932260  0.225860  0.952830  1.147247
    C   C143  0.906490  0.473950  0.716680  0.230726
    C   C144  0.873610  0.470810  0.742680  0.212064
    C   C145  0.871370  0.460410  0.801140  -0.343234
    C   C146  0.901740  0.452910  0.833670  -0.060523
    C   C147  0.934640  0.454940  0.806930  0.311873
    C   C148  0.936690  0.463650  0.747740  -0.469992
    C   C149  0.830920  0.451180  0.684680  0.066560
    C   C150  0.981090  0.477360  0.853290  0.100148
    C   C151  0.955540  0.406950  0.267250  0.027526
    C   C152  0.963610  0.383060  0.221460  0.247150
    C   C153  0.947180  0.387760  0.167410  -0.397686
    C   C154  0.921220  0.414950  0.159510  0.138440
    C   C155  0.909960  0.435730  0.207800  0.103007
    C   C156  0.928090  0.432650  0.260550  -0.203104
    C   C157  0.975700  0.325680  0.247630  -0.036766
    C   C158  0.851570  0.445050  0.217260  0.090459
    C   C159  0.054310  0.709360  0.999890  0.865386
    C   C160  0.043870  0.781010  0.002380  1.114135
    C   C161  0.060280  0.592780  0.824500  -0.215500
    C   C162  0.056040  0.559510  0.797680  0.387690
    C   C163  0.042970  0.558210  0.740930  -0.478856
    C   C164  0.035190  0.589820  0.710010  0.215286
    C   C165  0.042980  0.622850  0.734540  0.210556
    C   C166  0.055040  0.624250  0.792050  -0.288816
    C   C167  0.096140  0.515670  0.820460  -0.012860
    C   C168  0.065080  0.663570  0.673720  0.059722
    C   C169  0.077900  0.565350  0.149400  0.050812
    C   C170  0.110220  0.553100  0.173360  0.304610
    C   C171  0.110940  0.535340  0.227200  -0.480087
    C   C172  0.079870  0.527550  0.255350  0.300609
    C   C173  0.047640  0.539360  0.231300  0.251212
    C   C174  0.046930  0.559350  0.179780  -0.403743
    C   C175  0.155290  0.531340  0.117730  -0.054130
    C   C176  0.999240  0.506490  0.234730  0.097936
    C   C177  0.715910  0.927810  0.990620  0.878839
    C   C178  0.785210  0.937400  0.993770  1.092841
    C   C179  0.578680  0.914440  0.848300  -0.144694
    C   C180  0.579420  0.943950  0.810450  0.327859
    C   C181  0.562610  0.942790  0.756510  -0.444571
    C   C182  0.546550  0.911760  0.738730  0.158916
    C   C183  0.548760  0.881140  0.774200  0.262231
    C   C184  0.564370  0.882770  0.829250  -0.330243
    C   C185  0.629110  0.974210  0.810880  -0.013743
    C   C186  0.556800  0.828360  0.727440  -0.032394
    C   C187  0.591040  0.969880  0.286510  0.125110
    C   C188  0.624560  0.970700  0.262030  0.233750
    C   C189  0.630510  0.957480  0.205710  -0.392366
    C   C190  0.603570  0.942180  0.174500  0.139807
    C   C191  0.571190  0.937560  0.201900  0.154571
    C   C192  0.564780  0.952370  0.257130  -0.344843
    C   C193  0.669960  0.962710  0.324070  0.010565
    C   C194  0.543630  0.886110  0.188410  0.100640
    C   C195  0.274110  0.073880  0.016120  0.949278
    C   C196  0.204220  0.068770  0.010940  1.073744
    C   C197  0.410370  0.034760  0.750770  0.302187
    C   C198  0.438680  0.036720  0.789550  0.118990
    C   C199  0.433190  0.050900  0.845320  -0.274588
    C   C200  0.399920  0.063890  0.862470  -0.201273
    C   C201  0.372190  0.064180  0.822150  0.412905
    C   C202  0.377940  0.050700  0.765810  -0.487230
    C   C203  0.491740  0.047100  0.751310  0.179237
    C   C204  0.318270  0.051120  0.853980  0.102216
    C   C205  0.404360  0.087310  0.188600  0.072558
    C   C206  0.412710  0.055130  0.218620  0.217371
    C   C207  0.433040  0.055710  0.269130  -0.383846
    C   C208  0.443640  0.088110  0.291890  0.181368
    C   C209  0.433670  0.120350  0.264040  0.226468
    C   C210  0.413240  0.119880  0.213470  -0.347608
    C   C211  0.372970  0.012370  0.222920  0.116017
    C   C212  0.472460  0.164140  0.261730  -0.034159
    C   C213  0.404430  0.220130  0.995600  0.836332
    C   C214  0.423690  0.288520  0.998670  1.127086
    C   C215  0.208740  0.579290  0.963930  0.823708
    C   C216  0.276760  0.557850  0.969430  1.100841
    C   C217  0.716300  0.461980  0.009350  1.113204
    C   C218  0.786380  0.451780  0.008850  0.916855
    C   C219  0.560590  0.718330  0.028200  1.146142
    C   C220  0.578380  0.787190  0.026110  0.790656
    H   H1    0.533400  0.614780  0.931310  0.118483
    H   H2    0.542380  0.679500  0.934440  0.076454
    H   H3    0.559120  0.672800  0.119690  0.073424
    H   H4    0.549550  0.608200  0.116580  0.120346
    H   H5    0.320980  0.536300  0.883110  0.074026
    H   H6    0.380580  0.509690  0.893950  0.122141
    H   H7    0.313990  0.549970  0.069130  0.071934
    H   H8    0.373490  0.523080  0.079810  0.116602
    H   H9    0.459340  0.391950  0.910090  0.118339
    H   H10   0.448370  0.327590  0.909450  0.070208
    H   H11   0.433620  0.396990  0.092490  0.120004
    H   H12   0.422350  0.332760  0.091910  0.079985
    H   H13   0.612870  0.485340  0.108980  0.117052
    H   H14   0.674720  0.464470  0.104890  0.070616
    H   H15   0.611060  0.494810  0.922190  0.127959
    H   H16   0.672910  0.474120  0.917940  0.082591
    H   H17   0.421480  0.566790  0.000610  0.120505
    H   H18   0.474960  0.597750  0.014460  0.126131
    H   H19   0.596260  0.561940  0.026570  0.083752
    H   H20   0.566960  0.439250  0.017100  0.122372
    H   H21   0.513080  0.408090  0.008950  0.114635
    H   H22   0.392220  0.444070  0.988860  0.081129
    H   H23   0.446610  0.046800  0.520180  0.187391
    H   H24   0.545370  0.955940  0.511480  0.205218
    H   H25   0.515540  0.075690  0.294960  0.116365
    H   H26   0.562870  0.039820  0.295140  0.180233
    H   H27   0.429560  0.962270  0.736330  0.143996
    H   H28   0.474710  0.924320  0.734230  0.175684
    H   H29   0.953240  0.451320  0.493800  0.200734
    H   H30   0.045680  0.540330  0.485420  0.191114
    H   H31   0.026680  0.418590  0.271940  0.203058
    H   H32   0.069910  0.454770  0.270690  0.122866
    H   H33   0.921430  0.544800  0.697190  0.148532
    H   H34   0.964100  0.581530  0.696540  0.153112
    H   H35   0.989120  0.122190  0.886060  0.111188
    H   H36   0.960330  0.181580  0.870500  0.068201
    H   H37   0.935420  0.188030  0.053320  0.088787
    H   H38   0.964510  0.128790  0.068780  0.123941
    H   H39   0.829600  0.946400  0.903530  0.074877
    H   H40   0.892850  0.955080  0.908810  0.116118
    H   H41   0.824770  0.942280  0.090940  0.080671
    H   H42   0.888010  0.950980  0.095970  0.124350
    H   H43   0.015440  0.890390  0.918060  0.135098
    H   H44   0.038840  0.828150  0.913240  0.081798
    H   H45   0.008480  0.882500  0.104670  0.122683
    H   H46   0.032010  0.820240  0.100040  0.086900
    H   H47   0.093830  0.075820  0.094090  0.115420
    H   H48   0.157550  0.081710  0.098020  0.082834
    H   H49   0.102060  0.043090  0.914780  0.125549
    H   H50   0.165780  0.048900  0.918480  0.071511
    H   H51   0.901140  0.021430  0.992260  0.122125
    H   H52   0.929440  0.077650  0.982810  0.121993
    H   H53   0.047770  0.113380  0.989420  0.084872
    H   H54   0.086870  0.991540  0.020140  0.130054
    H   H55   0.058690  0.934950  0.024640  0.114181
    H   H56   0.940760  0.899030  0.013380  0.083817
    H   H57   0.846010  0.459200  0.821620  0.236955
    H   H58   0.961990  0.464720  0.727020  0.237649
    H   H59   0.850040  0.439640  0.652600  -0.000021
    H   H60   0.807070  0.459630  0.660210  0.072131
    H   H61   0.823460  0.430540  0.716640  0.042879
    H   H62   0.992470  0.490280  0.814500  -0.011193
    H   H63   0.002880  0.470210  0.883360  0.068915
    H   H64   0.963140  0.496680  0.876540  0.022816
    H   H65   0.955350  0.370820  0.131300  0.274003
    H   H66   0.921410  0.451050  0.295540  0.157026
    H   H67   0.963130  0.329540  0.291010  0.016271
    H   H68   0.997020  0.304990  0.252790  0.100971
    H   H69   0.956860  0.315340  0.215650  0.081269
    H   H70   0.846100  0.422550  0.187530  0.054985
    H   H71   0.829800  0.465290  0.212550  0.064485
    H   H72   0.851810  0.435960  0.263420  -0.000924
    H   H73   0.037400  0.532650  0.721890  0.237730
    H   H74   0.058730  0.649920  0.812190  0.216257
    H   H75   0.101380  0.509100  0.773920  0.018544
    H   H76   0.100510  0.490710  0.845820  0.093405
    H   H77   0.114970  0.535070  0.836730  0.040121
    H   H78   0.086990  0.669000  0.703680  0.045196
    H   H79   0.058740  0.688520  0.649260  0.074807
    H   H80   0.073240  0.642770  0.641310  0.003109
    H   H81   0.135750  0.527100  0.246500  0.217941
    H   H82   0.022090  0.569370  0.162730  0.207210
    H   H83   0.165340  0.510780  0.149110  0.028151
    H   H84   0.177660  0.539500  0.091030  0.144234
    H   H85   0.136210  0.519640  0.087520  0.048111
    H   H86   0.986250  0.516030  0.194040  -0.028883
    H   H87   0.978660  0.497970  0.264950  0.090783
    H   H88   0.016480  0.482530  0.225380  -0.017964
    H   H89   0.560930  0.966490  0.729470  0.244221
    H   H90   0.564170  0.859800  0.857870  0.229401
    H   H91   0.644280  0.951530  0.831400  0.040582
    H   H92   0.640810  0.999140  0.825660  0.077794
    H   H93   0.631640  0.973130  0.762620  0.032131
    H   H94   0.566190  0.841410  0.687160  0.008111
    H   H95   0.543710  0.803950  0.713900  0.106055
    H   H96   0.579160  0.819770  0.755740  0.067822
    H   H97   0.655760  0.960290  0.185530  0.274240
    H   H98   0.539000  0.951390  0.276130  0.210302
    H   H99   0.653460  0.950240  0.357640  0.013131
    H   H100  0.690680  0.976610  0.347350  0.091368
    H   H101  0.683060  0.941880  0.296130  0.046605
    H   H102  0.568880  0.871330  0.179490  0.035769
    H   H103  0.523410  0.873360  0.162150  0.074890
    H   H104  0.536280  0.883360  0.235030  -0.005578
    H   H105  0.454660  0.050760  0.875920  0.235718
    H   H106  0.356580  0.050780  0.735030  0.223092
    H   H107  0.479790  0.059250  0.711450  0.000842
    H   H108  0.517060  0.034070  0.738290  0.017066
    H   H109  0.497290  0.068100  0.783770  -0.018307
    H   H110  0.311550  0.034440  0.815940  -0.006282
    H   H111  0.293560  0.063190  0.871600  0.101489
    H   H112  0.330320  0.034110  0.888930  -0.007961
    H   H113  0.441000  0.030810  0.290210  0.226568
    H   H114  0.405390  0.144830  0.192480  0.261014
    H   H115  0.377280  0.006780  0.270020  0.014439
    H   H116  0.364900  0.987300  0.202430  0.049176
    H   H117  0.351180  0.032660  0.216950  0.034229
    H   H118  0.494870  0.144650  0.267950  0.012408
    H   H119  0.479520  0.189490  0.282510  0.102440
    H   H120  0.468260  0.169710  0.214600  0.072369
    N   N1    0.891110  0.271280  0.976090  -0.335078
    N   N2    0.901690  0.236980  0.978070  -0.448457
    N   N3    0.951530  0.249850  0.924440  -0.379371
    N   N4    0.941110  0.284180  0.922940  -0.391452
    N   N5    0.030110  0.725690  0.964770  -0.343629
    N   N6    0.025070  0.761010  0.965820  -0.407045
    N   N7    0.068130  0.764700  0.037520  -0.384647
    N   N8    0.073460  0.729360  0.035980  -0.368927
    N   N9    0.730340  0.951700  0.954490  -0.373693
    N   N10   0.764530  0.956330  0.955870  -0.378307
    N   N11   0.770820  0.913250  0.029510  -0.364838
    N   N12   0.736650  0.908500  0.027910  -0.388621
    N   N13   0.260120  0.045860  0.988730  -0.387016
    N   N14   0.225670  0.043410  0.986000  -0.392764
    N   N15   0.218210  0.096820  0.038350  -0.355140
    N   N16   0.252690  0.099380  0.040770  -0.393181
    N   N17   0.435130  0.229200  0.971610  -0.363891
    N   N18   0.444540  0.262960  0.972820  -0.406038
    N   N19   0.392980  0.279440  0.022590  -0.391124
    N   N20   0.383440  0.245750  0.020910  -0.380603
    N   N21   0.220740  0.550170  0.933790  -0.387773
    N   N22   0.254310  0.539680  0.936310  -0.381532
    N   N23   0.264800  0.587150  0.999240  -0.394719
    N   N24   0.231280  0.597810  0.996320  -0.365852
    N   N25   0.731750  0.434660  0.040020  -0.356840
    N   N26   0.766320  0.429490  0.039460  -0.421640
    N   N27   0.770930  0.479140  0.978420  -0.362737
    N   N28   0.736380  0.484100  0.978490  -0.399502
    N   N29   0.539660  0.743460  0.001510  -0.418373
    N   N30   0.548330  0.777460  0.000780  -0.345565
    N   N31   0.599300  0.762070  0.052810  -0.390107
    N   N32   0.590440  0.728140  0.054090  -0.381069
    O   O1    0.397900  0.111700  0.091510  -0.593353
    O   O2    0.332290  0.048800  0.003230  -0.612501
    O   O3    0.372700  0.059590  0.111040  -0.554074
    O   O4    0.372770  0.100100  0.938550  -0.570624
    O   O5    0.407740  0.052330  0.964860  -0.824809
    O   O6    0.417140  0.156710  0.985950  -0.654034
    O   O7    0.325720  0.105060  0.040530  -0.483918
    O   O8    0.364600  0.173610  0.015240  -0.633418
    O   O9    0.595690  0.907160  0.087450  -0.534682
    O   O10   0.657770  0.948590  0.965040  -0.644509
    O   O11   0.622650  0.959580  0.079180  -0.690414
    O   O12   0.612090  0.893130  0.931160  -0.647399
    O   O13   0.579950  0.945170  0.940160  -0.835848
    O   O14   0.567120  0.850030  0.006650  -0.670976
    O   O15   0.664260  0.900000  0.024450  -0.516272
    O   O16   0.620190  0.833230  0.033470  -0.629231
    O   O17   0.101020  0.578000  0.053820  -0.587518
    O   O18   0.034970  0.651040  0.976920  -0.668306
    O   O19   0.047360  0.601260  0.076630  -0.606569
    O   O20   0.089590  0.616010  0.908130  -0.640638
    O   O21   0.046650  0.577310  0.923330  -0.856397
    O   O22   0.148290  0.567410  0.947740  -0.604981
    O   O23   0.088280  0.655150  0.019380  -0.494505
    O   O24   0.159400  0.618200  0.989420  -0.623212
    O   O25   0.877830  0.419770  0.913000  -0.584281
    O   O26   0.843830  0.471530  0.988300  -0.659096
    O   O27   0.915500  0.462830  0.934430  -0.791038
    O   O28   0.912750  0.399290  0.058500  -0.587828
    O   O29   0.893020  0.454170  0.088390  -0.620838
    O   O30   0.925760  0.357110  0.950580  -0.612668
    O   O31   0.838850  0.415420  0.024490  -0.478576
    O   O32   0.872380  0.345310  0.975400  -0.650679
    O   O33   0.843700  0.481320  0.712760  -0.355137
    O   O34   0.964710  0.445820  0.837590  -0.307617
    O   O35   0.990210  0.357300  0.227630  -0.331867
    O   O36   0.882890  0.461030  0.202320  -0.279022
    O   O37   0.061370  0.528280  0.828960  -0.255929
    O   O38   0.035140  0.654150  0.704680  -0.350454
    O   O39   0.141200  0.561690  0.147240  -0.242624
    O   O40   0.016980  0.534340  0.261270  -0.295564
    O   O41   0.593870  0.975180  0.828340  -0.296381
    O   O42   0.532460  0.850670  0.757690  -0.337353
    O   O43   0.650560  0.988010  0.290510  -0.344268
    O   O44   0.544430  0.922310  0.172050  -0.297494
    O   O45   0.470820  0.020950  0.775490  -0.268711
    O   O46   0.339750  0.078860  0.837080  -0.358723
    O   O47   0.403880  0.022720  0.195690  -0.375563
    O   O48   0.441870  0.152570  0.288430  -0.323814
    S   S1    0.454240  0.075830  0.408140  -0.086246
    S   S2    0.572490  0.973070  0.402310  -0.091958
    S   S3    0.536900  0.925840  0.622490  -0.108826
    S   S4    0.422870  0.031370  0.633090  -0.038358
    S   S5    0.964690  0.420300  0.384300  -0.111532
    S   S6    0.070900  0.523930  0.373320  -0.041004
    S   S7    0.031820  0.572870  0.594420  -0.063546
    S   S8    0.922910  0.472320  0.600630  -0.074195
    Zn  Zn1   0.372550  0.119590  0.017460  1.182664
    Zn  Zn2   0.382080  0.040220  0.034430  1.203610
    Zn  Zn3   0.615620  0.886400  0.015180  1.170991
    Zn  Zn4   0.609980  0.965540  0.998100  1.253174
    Zn  Zn5   0.107440  0.609850  0.987010  1.189501
    Zn  Zn6   0.031110  0.597900  0.997080  1.207618
    Zn  Zn7   0.882950  0.397270  0.989890  1.197567
    Zn  Zn8   0.895650  0.473930  0.010660  1.225749
