# Generated by REPEAT Assigner based on pymatgen
data_DB7-ddmof_3732
_audit_creation_date              2022-05-24
_audit_creation_method            REPEAT_Assigner
_cell_length_a                    20.693190
_cell_length_b                    21.469000
_cell_length_c                    28.276640
_cell_angle_alpha                 60.961420
_cell_angle_beta                  118.747940
_cell_angle_gamma                 133.288750
_cell_volume                      7775.078585
_symmetry_space_group_name_H-M    P1
_symmetry_Int_Tables_number       1
loop_
    _symmetry_equiv_pos_site_id
    _symmetry_equiv_pos_as_xyz
    1  x,y,z
loop_
    _atom_site_type_symbol
    _atom_site_label
    _atom_site_fract_x
    _atom_site_fract_y
    _atom_site_fract_z
    _atom_type_partial_charge
    C   C1    0.720600  0.275770  0.038460  0.802743
    N   N1    0.637420  0.215570  0.051220  -0.744642
    C   C2    0.608200  0.238550  0.069690  0.981819
    N   N2    0.662400  0.320830  0.076460  -0.794093
    C   C3    0.719580  0.291300  0.533360  0.878947
    N   N3    0.667530  0.357400  0.557760  -0.753349
    C   C4    0.603770  0.286150  0.536250  0.905975
    N   N4    0.629730  0.254780  0.522540  -0.704879
    C   C5    0.280120  0.646800  0.226840  0.855342
    N   N5    0.224270  0.565440  0.216220  -0.748068
    C   C6    0.261500  0.533510  0.214130  1.029470
    N   N6    0.352660  0.582470  0.221990  -0.819321
    C   C7    0.407420  0.664870  0.228570  0.924772
    N   N7    0.371680  0.696880  0.231810  -0.681467
    C   C8    0.301030  0.691460  0.691900  0.855097
    N   N8    0.234450  0.614470  0.674830  -0.717047
    C   C9    0.257630  0.580790  0.660400  0.906726
    N   N9    0.345660  0.624680  0.661770  -0.789413
    C   C10   0.411830  0.698340  0.680840  0.969631
    N   N10   0.389980  0.730840  0.696960  -0.685773
    Co  Co1   0.067360  0.014270  0.060340  1.257974
    Co  Co2   0.004070  0.085720  0.101770  1.310720
    C   C11   0.243790  0.037010  0.085700  1.074751
    Co  Co3   0.074390  0.864210  0.064220  1.277448
    O   O1    0.072760  0.118720  0.050590  -0.536392
    C   C12   0.081470  0.223690  0.153440  1.180413
    C   C13   0.096880  0.779840  0.183750  1.143853
    O   O2    0.100450  0.959790  0.990410  -0.714123
    O   O3    0.104180  0.187120  0.143470  -0.726648
    O   O4    0.056440  0.763200  0.135060  -0.843065
    O   O5    0.089320  0.827590  0.194890  -0.711596
    O   O6    0.033860  0.909430  0.088170  -0.714123
    O   O7    0.206760  0.952000  0.100410  -0.704447
    O   O8    0.206210  0.066340  0.088490  -0.713128
    Co  Co4   0.057300  0.031920  0.544350  1.246349
    C   C14   0.226370  0.097650  0.524460  0.900685
    Co  Co5   0.097800  0.904090  0.552400  1.280623
    O   O9    0.040140  0.123000  0.530760  -0.513621
    C   C15   0.063130  0.237160  0.638930  1.024810
    C   C16   0.186370  0.880880  0.670620  0.843236
    O   O10   0.086910  0.211990  0.619090  -0.606207
    O   O11   0.202670  0.934830  0.621920  -0.578841
    O   O12   0.128100  0.864470  0.690670  -0.593707
    O   O13   0.055490  0.941050  0.581960  -0.797457
    C   C17   0.015540  0.015330  0.790420  0.949818
    O   O14   0.170530  0.029350  0.503580  -0.697329
    O   O15   0.195230  0.113430  0.545440  -0.542244
    C   C18   0.147480  0.399240  0.599610  0.253030
    C   C19   0.124920  0.327320  0.646290  -0.340557
    C   C20   0.137010  0.338450  0.695730  0.159597
    C   C21   0.167850  0.419130  0.697840  0.260715
    C   C22   0.191420  0.491350  0.651440  -0.319720
    C   C23   0.178330  0.480040  0.601740  0.192138
    F   F1    0.200860  0.549240  0.556410  -0.134289
    F   F2    0.137240  0.390270  0.551640  -0.137019
    F   F3    0.180800  0.428890  0.746330  -0.145429
    F   F4    0.115740  0.269730  0.741360  -0.118967
    C   C24   0.650280  0.761860  0.745590  0.188492
    C   C25   0.684140  0.802510  0.698260  -0.397334
    C   C26   0.626140  0.804430  0.645200  0.323849
    C   C27   0.538230  0.773910  0.639460  0.172485
    C   C28   0.507060  0.739560  0.686780  -0.383559
    C   C29   0.562560  0.731650  0.739860  0.267306
    F   F5    0.531060  0.693920  0.785900  -0.157493
    F   F6    0.483540  0.778650  0.587880  -0.135918
    F   F7    0.657200  0.841440  0.599100  -0.134184
    C   C30   0.314560  0.872640  0.699850  0.179297
    C   C31   0.223820  0.829120  0.698860  -0.269014
    C   C32   0.163970  0.736640  0.707910  0.227376
    C   C33   0.189800  0.690540  0.708100  0.203637
    C   C34   0.276920  0.736660  0.700520  -0.363235
    C   C35   0.340750  0.827660  0.699450  0.270253
    F   F8    0.427020  0.873710  0.695440  -0.150712
    F   F9    0.375480  0.960910  0.695720  -0.133200
    F   F10   0.130210  0.601560  0.715600  -0.112067
    F   F11   0.079330  0.691850  0.713890  -0.122469
    C   C36   0.169120  0.304940  0.226060  0.092928
    C   C37   0.150610  0.307610  0.170560  -0.268853
    C   C38   0.167600  0.385720  0.129660  0.171461
    C   C39   0.190590  0.455140  0.142630  0.274288
    C   C40   0.204100  0.450440  0.197700  -0.419966
    C   C41   0.192900  0.374560  0.239270  0.297955
    F   F12   0.209880  0.370240  0.293120  -0.160265
    F   F13   0.159790  0.232820  0.267020  -0.097456
    F   F14   0.205190  0.529440  0.102190  -0.154474
    F   F15   0.157810  0.392850  0.076610  -0.141274
    C   C42   0.602350  0.822280  0.159490  0.094672
    C   C43   0.663570  0.801510  0.198420  -0.349391
    C   C44   0.641240  0.738350  0.248600  0.278407
    C   C45   0.561320  0.700260  0.261080  0.210890
    C   C46   0.501400  0.722990  0.222840  -0.387874
    C   C47   0.522520  0.784400  0.172000  0.324437
    F   F16   0.463720  0.804710  0.133760  -0.161588
    F   F17   0.622750  0.882850  0.110600  -0.086121
    F   F18   0.540730  0.639380  0.309860  -0.137122
    F   F19   0.699960  0.717900  0.286760  -0.166426
    C   C48   0.116640  0.660580  0.242720  0.177656
    C   C49   0.157360  0.751820  0.222460  -0.282283
    C   C50   0.248140  0.808660  0.217810  0.145943
    C   C51   0.288480  0.775130  0.219180  0.242300
    C   C52   0.241100  0.682980  0.230430  -0.368508
    C   C53   0.157230  0.626030  0.245670  0.262425
    F   F20   0.114630  0.537520  0.263000  -0.130175
    F   F21   0.033360  0.604530  0.254270  -0.139845
    F   F22   0.371680  0.832460  0.207240  -0.141270
    F   F23   0.294080  0.897170  0.206120  -0.095367
    C   C54   0.678680  0.152950  0.527430  0.272993
    F   F24   0.590080  0.111360  0.524160  -0.123821
    F   F25   0.639220  0.017370  0.531110  -0.113561
    C   C55   0.359970  0.100440  0.546550  0.384377
    C   C56   0.324960  0.146540  0.532670  -0.412159
    C   C57   0.381760  0.239070  0.518640  0.277093
    C   C58   0.471970  0.284900  0.517570  0.194071
    C   C59   0.506990  0.238310  0.532710  -0.337145
    C   C60   0.451050  0.146010  0.548840  0.152413
    F   F26   0.485340  0.100170  0.567570  -0.106897
    F   F27   0.304450  0.011390  0.555170  -0.216494
    F   F28   0.524820  0.374380  0.500840  -0.128925
    F   F29   0.348340  0.284510  0.503280  -0.145302
    C   C61   0.693410  0.168970  0.004350  0.192423
    F   F30   0.602660  0.131930  0.986310  -0.111783
    F   F31   0.664220  0.046210  0.995360  -0.140848
    F   F32   0.746410  0.512740  0.963960  -0.156651
    C   C62   0.442700  0.163250  0.026850  0.348583
    C   C63   0.513840  0.179340  0.074930  -0.390278
    C   C64   0.496780  0.155310  0.125740  0.179329
    C   C65   0.409480  0.115730  0.128370  0.253092
    C   C66   0.338220  0.098960  0.080360  -0.261380
    C   C67   0.355600  0.124140  0.029450  0.017182
    F   F33   0.287350  0.108950  0.982630  -0.083091
    F   F34   0.458940  0.188610  0.977150  -0.153371
    F   F35   0.393460  0.091630  0.177850  -0.134534
    F   F36   0.565430  0.171820  0.172380  -0.134984
    C   C68   0.703470  0.104600  0.530020  0.126094
    C   C69   0.046150  0.982580  0.956560  0.857113
    O   O16   0.020090  0.006940  0.975610  -0.612741
    Co  Co6   0.020560  0.878370  0.642920  1.282564
    O   O17   0.034620  0.001650  0.626810  -0.866641
    O   O18   0.013790  0.081660  0.753120  -0.651084
    O   O19   0.026210  0.774850  0.597820  -0.837707
    C   C70   0.028760  0.994580  0.896610  -0.082664
    C   C71   0.021860  0.001830  0.848660  -0.185979
    F   F37   0.704690  0.756520  0.797190  -0.128373
    C   C72   0.725110  0.126820  0.006630  0.228903
    C   C73   0.743760  0.382190  0.062350  0.942007
    C   C74   0.757060  0.400570  0.563410  0.921221
    C   C75   0.745360  0.242730  0.529870  -0.397801
    O   O20   0.012400  0.961710  0.775850  -0.651805
    C   C76   0.755060  0.247490  0.022520  -0.266171
    C   C77   0.782090  0.531950  0.013760  0.273339
    F   F38   0.786920  0.661560  0.967740  -0.107196
    N   N11   0.773060  0.360270  0.042760  -0.668901
    N   N12   0.784240  0.366840  0.552360  -0.722229
    C   C78   0.759340  0.865120  0.195570  1.082041
    C   C79   0.782740  0.863870  0.703880  1.104134
    C   C80   0.794330  0.473790  0.063010  -0.374171
    O   O21   0.795060  0.848240  0.179310  -0.612518
    O   O22   0.805610  0.031140  0.612950  -0.730714
    C   C81   0.794840  0.143560  0.535960  -0.275358
    F   F39   0.804120  0.554610  0.476020  -0.149854
    C   C82   0.801200  0.607160  0.015820  0.165286
    O   O23   0.811200  0.932040  0.217290  -0.785627
    O   O24   0.998670  0.065790  0.252990  -0.685324
    C   C83   0.990690  0.993820  0.288240  0.993483
    O   O25   0.995600  0.189270  0.143790  -0.846882
    Co  Co7   0.984720  0.843900  0.143280  1.277264
    O   O26   0.988560  0.998660  0.464530  -0.682308
    Co  Co8   0.994880  0.093950  0.594230  1.256408
    O   O27   0.986650  0.878740  0.486380  -0.694947
    O   O28   0.978460  0.189710  0.641670  -0.775261
    F   F40   0.836860  0.427570  0.672070  -0.148667
    Co  Co9   0.935060  0.919950  0.191420  1.261068
    Co  Co10  0.903880  0.058250  0.178490  1.288492
    C   C84   0.882940  0.718350  0.067690  0.980447
    O   O29   0.815660  0.045260  0.101560  -0.718399
    O   O30   0.949230  0.017080  0.155080  -0.779912
    C   C85   0.846900  0.104320  0.056950  1.018976
    O   O31   0.937940  0.819300  0.204340  -0.541350
    O   O32   0.975400  0.956860  0.114380  -0.874836
    O   O33   0.912200  0.118870  0.045070  -0.640312
    O   O34   0.990880  0.942840  0.273300  -0.683248
    O   O35   0.936560  0.783540  0.032860  -0.654389
    O   O36   0.881440  0.732930  0.108370  -0.632111
    Co  Co11  0.961800  0.941800  0.693530  1.300117
    Co  Co12  0.907080  0.058270  0.684140  1.252137
    C   C86   0.941920  0.731110  0.599140  1.182384
    O   O37   0.964510  0.033180  0.657050  -0.771863
    C   C87   0.826280  0.086050  0.565270  1.057014
    O   O38   0.975560  0.848920  0.706390  -0.537990
    C   C88   0.984780  0.945140  0.449350  1.000098
    O   O39   0.878230  0.092980  0.545420  -0.682438
    O   O40   0.830030  0.928320  0.727130  -0.758984
    O   O41   0.821620  0.861980  0.679480  -0.708075
    O   O42   0.919370  0.764540  0.612620  -0.711648
    C   C89   0.985700  0.963170  0.391930  -0.175342
    C   C90   0.988370  0.974530  0.345540  -0.151049
    C   C91   0.858860  0.235520  0.530360  0.190522
    C   C92   0.835110  0.284630  0.528780  0.265347
    F   F41   0.898890  0.372510  0.525400  -0.139044
    F   F42   0.944240  0.277160  0.527210  -0.119778
    C   C93   0.850110  0.633370  0.536130  0.112912
    C   C94   0.875830  0.641450  0.589920  -0.320777
    C   C95   0.869020  0.570410  0.635420  0.238765
    C   C96   0.844260  0.495910  0.627610  0.192863
    C   C97   0.821240  0.489220  0.573820  -0.336493
    C   C98   0.827570  0.560110  0.528410  0.277763
    F   F43   0.851640  0.699050  0.491240  -0.092247
    F   F44   0.889440  0.574750  0.687570  -0.143465
    C   C99   0.880620  0.251140  0.031030  0.255953
    C   C100  0.818690  0.164010  0.025240  -0.364472
    C   C101  0.849520  0.291500  0.032150  0.168780
    F   F45   0.911170  0.371390  0.044460  -0.130953
    F   F46   0.971240  0.294590  0.039070  -0.108208
    C   C102  0.829320  0.493690  0.114300  0.182975
    C   C103  0.836460  0.627320  0.067120  -0.395482
    C   C104  0.848400  0.568880  0.116450  0.340016
    F   F47   0.880350  0.585840  0.166480  -0.142916
    F   F48   0.840500  0.437540  0.162380  -0.138448
