# generated using pymatgen
data_Ni4H21(C23O7)2
_symmetry_space_group_name_H-M   'P 1'
_cell_length_a   20.34450000
_cell_length_b   18.32408000
_cell_length_c   37.65471000
_cell_angle_alpha   90.77367000
_cell_angle_beta   90.86774000
_cell_angle_gamma   113.27565000
_symmetry_Int_Tables_number   1
_chemical_formula_structural   Ni4H21(C23O7)2
_chemical_formula_sum   'Ni16 H84 C184 O56'
_cell_volume   12890.63122103
_cell_formula_units_Z   4
loop_
 _symmetry_equiv_pos_site_id
 _symmetry_equiv_pos_as_xyz
  1  'x, y, z'
loop_
 _atom_site_type_symbol
 _atom_site_label
 _atom_site_symmetry_multiplicity
 _atom_site_fract_x
 _atom_site_fract_y
 _atom_site_fract_z
 _atom_site_occupancy
  Ni  Ni1  1  0.61341000  0.34497000  0.93532000  1
  Ni  Ni2  1  0.52099000  0.28412000  0.57607000  1
  Ni  Ni3  1  0.20702000  0.68963000  0.40204000  1
  Ni  Ni4  1  0.36847000  0.71238000  0.39643000  1
  Ni  Ni5  1  0.32696000  0.85064000  0.36660000  1
  Ni  Ni6  1  0.24683000  0.55147000  0.43397000  1
  Ni  Ni7  1  0.38525000  0.74363000  0.11371000  1
  Ni  Ni8  1  0.22793000  0.69572000  0.08850000  1
  Ni  Ni9  1  0.30013000  0.58577000  0.05558000  1
  Ni  Ni10  1  0.31888000  0.87234000  0.12808000  1
  Ni  Ni11  1  0.62888000  0.20190000  0.88808000  1
  Ni  Ni12  1  0.64786000  0.23681000  0.60476000  1
  Ni  Ni13  1  0.68994000  0.41621000  0.58869000  1
  Ni  Ni14  1  0.75377000  0.52056000  0.95275000  1
  Ni  Ni15  1  0.76319000  0.38366000  0.89993000  1
  Ni  Ni16  1  0.80436000  0.38314000  0.63709000  1
  H  H1  1  0.08375000  0.02087000  0.69293000  1
  H  H2  1  0.05478000  0.01552000  0.82172000  1
  H  H3  1  0.28332000  0.70858000  0.34495000  1
  H  H4  1  0.29165000  0.69359000  0.45336000  1
  H  H5  1  0.33440000  0.73037000  0.04995000  1
  H  H6  1  0.28227000  0.73727000  0.15170000  1
  H  H7  1  0.05735000  0.51527000  0.13502000  1
  H  H8  1  0.20260000  0.39640000  0.13386000  1
  H  H9  1  0.17092000  0.26998000  0.16460000  1
  H  H10  1  0.08603000  0.16238000  0.19967000  1
  H  H11  1  0.47154000  0.80456000  0.23107000  1
  H  H12  1  0.06044000  0.71075000  0.16544000  1
  H  H13  1  0.12609000  0.92332000  0.10376000  1
  H  H14  1  0.07410000  0.02089000  0.11504000  1
  H  H15  1  0.00349000  0.07116000  0.15292000  1
  H  H16  1  0.50010000  0.97166000  0.31396000  1
  H  H17  1  0.26067000  0.49040000  0.31142000  1
  H  H18  1  0.20852000  0.36428000  0.27722000  1
  H  H19  1  0.05161000  0.45819000  0.34810000  1
  H  H20  1  0.10630000  0.23860000  0.26454000  1
  H  H21  1  0.02221000  0.71932000  0.34904000  1
  H  H22  1  0.20154000  0.91946000  0.31033000  1
  H  H23  1  0.18027000  0.01883000  0.27449000  1
  H  H24  1  0.09640000  0.07160000  0.24857000  1
  H  H25  1  0.07976000  0.22828000  0.72611000  1
  H  H26  1  0.49843000  0.10901000  0.69024000  1
  H  H27  1  0.38842000  0.03431000  0.72249000  1
  H  H28  1  0.41600000  0.28556000  0.66322000  1
  H  H29  1  0.29724000  0.27029000  0.68319000  1
  H  H30  1  0.18448000  0.19156000  0.71251000  1
  H  H31  1  0.26592000  0.01463000  0.73932000  1
  H  H32  1  0.09877000  0.85618000  0.70251000  1
  H  H33  1  0.43929000  0.32371000  0.87169000  1
  H  H34  1  0.32985000  0.29101000  0.83501000  1
  H  H35  1  0.39391000  0.07450000  0.88193000  1
  H  H36  1  0.28803000  0.97542000  0.85220000  1
  H  H37  1  0.18261000  0.94334000  0.81240000  1
  H  H38  1  0.22591000  0.19195000  0.80374000  1
  H  H39  1  0.02236000  0.78598000  0.78066000  1
  H  H40  1  0.53795000  0.02268000  0.17436000  1
  H  H41  1  0.04123000  0.73383000  0.66611000  1
  H  H42  1  0.08694000  0.19342000  0.81901000  1
  H  H43  1  0.02601000  0.27214000  0.84641000  1
  H  H44  1  0.63831000  0.33507000  0.87052000  1
  H  H45  1  0.63197000  0.29458000  0.54639000  1
  H  H46  1  0.59720000  0.82975000  0.24568000  1
  H  H47  1  0.61754000  0.05899000  0.29178000  1
  H  H48  1  0.58712000  0.80336000  0.34785000  1
  H  H49  1  0.01067000  0.29327000  0.69515000  1
  H  H50  1  0.67792000  0.35439000  0.64822000  1
  H  H51  1  0.73646000  0.38258000  0.96475000  1
  H  H52  1  0.66553000  0.11387000  0.17607000  1
  H  H53  1  0.72675000  0.63358000  0.66224000  1
  H  H54  1  0.73916000  0.05369000  0.63532000  1
  H  H55  1  0.71166000  0.82661000  0.33281000  1
  H  H56  1  0.74389000  0.08705000  0.28159000  1
  H  H57  1  0.71967000  0.14354000  0.80264000  1
  H  H58  1  0.72363000  0.89922000  0.22921000  1
  H  H59  1  0.77268000  0.68242000  0.85787000  1
  H  H60  1  0.78536000  0.76384000  0.69288000  1
  H  H61  1  0.78211000  0.06922000  0.77311000  1
  H  H62  1  0.81237000  0.98863000  0.66260000  1
  H  H63  1  0.81440000  0.81818000  0.83583000  1
  H  H64  1  0.79129000  0.13714000  0.19032000  1
  H  H65  1  0.82381000  0.90648000  0.30303000  1
  H  H66  1  0.88927000  0.04022000  0.76724000  1
  H  H67  1  0.89379000  0.86628000  0.71959000  1
  H  H68  1  0.90471000  0.93020000  0.80532000  1
  H  H69  1  0.88968000  0.53723000  0.83369000  1
  H  H70  1  0.90187000  0.28360000  0.66339000  1
  H  H71  1  0.89222000  0.06720000  0.17544000  1
  H  H72  1  0.89598000  0.21043000  0.29737000  1
  H  H73  1  0.92112000  0.99847000  0.69512000  1
  H  H74  1  0.91609000  0.29464000  0.85616000  1
  H  H75  1  0.91770000  0.86822000  0.28460000  1
  H  H76  1  0.93209000  0.62526000  0.64423000  1
  H  H77  1  0.92967000  0.85478000  0.21166000  1
  H  H78  1  0.93890000  0.76552000  0.31811000  1
  H  H79  1  0.93564000  0.27428000  0.19597000  1
  H  H80  1  0.93918000  0.06054000  0.30280000  1
  H  H81  1  0.94694000  0.34023000  0.32890000  1
  H  H82  1  0.97643000  0.75258000  0.19801000  1
  H  H83  1  0.97001000  0.40452000  0.16782000  1
  H  H84  1  0.97528000  0.64594000  0.79907000  1
  C  C1  1  0.60885000  0.19136000  0.96491000  1
  C  C2  1  0.49131000  0.22149000  0.89892000  1
  C  C3  1  0.60643000  0.47709000  0.97911000  1
  C  C4  1  0.52626000  0.24041000  0.64976000  1
  C  C5  1  0.58068000  0.45092000  0.54894000  1
  C  C6  1  0.52311000  0.12209000  0.56766000  1
  C  C7  1  0.07729000  0.01987000  0.72222000  1
  C  C8  1  0.06088000  0.01633000  0.79242000  1
  C  C9  1  0.14754000  0.04901000  0.74400000  1
  C  C10  1  0.13863000  0.04671000  0.78001000  1
  C  C11  1  0.37416000  0.85150000  0.44072000  1
  C  C12  1  0.16733000  0.79705000  0.35553000  1
  C  C13  1  0.46789000  0.83873000  0.35248000  1
  C  C14  1  0.19288000  0.54172000  0.36092000  1
  C  C15  1  0.40626000  0.60354000  0.44288000  1
  C  C16  1  0.10988000  0.57164000  0.45028000  1
  C  C17  1  0.18700000  0.52878000  0.11170000  1
  C  C18  1  0.43680000  0.62086000  0.09282000  1
  C  C19  1  0.18537000  0.61677000  0.01766000  1
  C  C20  1  0.41729000  0.89024000  0.06951000  1
  C  C21  1  0.15863000  0.79698000  0.11790000  1
  C  C22  1  0.44525000  0.86593000  0.16929000  1
  C  C23  1  0.13575000  0.46311000  0.13212000  1
  C  C24  1  0.07023000  0.46523000  0.14208000  1
  C  C25  1  0.02056000  0.40225000  0.16064000  1
  C  C26  1  0.03628000  0.33685000  0.16995000  1
  C  C27  1  0.10279000  0.33518000  0.16064000  1
  C  C28  1  0.15184000  0.39789000  0.14133000  1
  C  C29  1  0.11972000  0.27138000  0.17111000  1
  C  C30  1  0.07115000  0.20971000  0.19061000  1
  C  C31  1  0.00409000  0.20962000  0.19901000  1
  C  C32  1  0.49830000  0.90612000  0.19725000  1
  C  C33  1  0.51373000  0.85866000  0.22228000  1
  C  C34  1  0.10026000  0.81524000  0.13302000  1
  C  C35  1  0.05610000  0.76607000  0.15883000  1
  C  C36  1  0.00869000  0.79002000  0.17745000  1
  C  C37  1  0.00543000  0.86367000  0.17059000  1
  C  C38  1  0.04722000  0.91138000  0.14342000  1
  C  C39  1  0.09351000  0.88630000  0.12439000  1
  C  C40  1  0.04436000  0.98510000  0.13666000  1
  C  C41  1  0.00496000  0.01417000  0.15849000  1
  C  C42  1  0.53553000  0.88225000  0.33333333  1
  C  C43  1  0.54469000  0.95374000  0.31656000  1
  C  C44  1  0.15986000  0.48147000  0.33285000  1
  C  C45  1  0.20339000  0.45623000  0.31164000  1
  C  C46  1  0.17394000  0.38433000  0.29257000  1
  C  C47  1  0.10057000  0.33723000  0.29438000  1
  C  C48  1  0.05563000  0.36551000  0.31336000  1
  C  C49  1  0.08547000  0.43815000  0.33214000  1
  C  C50  1  0.99782000  0.21665000  0.27857000  1
  C  C51  1  0.07168000  0.26180000  0.27803000  1
  C  C52  1  0.11768000  0.81778000  0.33282000  1
  C  C53  1  0.04341000  0.77319000  0.33386000  1
  C  C54  1  0.02228000  0.87104000  0.29795000  1
  C  C55  1  0.09691000  0.91400000  0.29529000  1
  C  C56  1  0.14422000  0.88635000  0.31220000  1
  C  C57  1  0.12315000  0.98562000  0.27687000  1
  C  C58  1  0.07569000  0.01554000  0.26216000  1
  C  C59  1  0.00165000  0.97355000  0.26520000  1
  C  C60  1  0.48724000  0.05721000  0.54377000  1
  C  C61  1  0.45810000  0.00502000  0.52233000  1
  C  C62  1  0.42605000  0.94757000  0.49559000  1
  C  C63  1  0.40090000  0.90175000  0.47123000  1
  C  C64  1  0.04648000  0.53784000  0.47171000  1
  C  C65  1  0.45342000  0.58246000  0.46517000  1
  C  C66  1  0.48919000  0.55925000  0.48399000  1
  C  C67  1  0.52624000  0.52633000  0.50621000  1
  C  C68  1  0.55355000  0.49391000  0.52550000  1
  C  C69  1  0.46460000  0.20182000  0.67368000  1
  C  C70  1  0.45669000  0.13161000  0.69131000  1
  C  C71  1  0.39392000  0.08887000  0.70959000  1
  C  C72  1  0.33808000  0.11562000  0.71058000  1
  C  C73  1  0.34666000  0.18767000  0.69422000  1
  C  C74  1  0.41004000  0.23080000  0.67611000  1
  C  C75  1  0.29108000  0.21480000  0.69540000  1
  C  C76  1  0.22689000  0.16997000  0.71196000  1
  C  C77  1  0.21727000  0.09749000  0.72765000  1
  C  C78  1  0.27317000  0.07056000  0.72719000  1
  C  C79  1  0.13945000  0.60863000  0.98788000  1
  C  C80  1  0.57218000  0.12619000  0.98806000  1
  C  C81  1  0.53916000  0.07107000  0.00679000  1
  C  C82  1  0.49835000  0.00661000  0.02842000  1
  C  C83  1  0.46209000  0.95260000  0.04693000  1
  C  C84  1  0.48004000  0.59423000  0.07072000  1
  C  C85  1  0.51273000  0.57002000  0.05062000  1
  C  C86  1  0.54753000  0.53966000  0.02598000  1
  C  C87  1  0.57516000  0.51203000  0.00454000  1
  C  C88  1  0.42421000  0.20122000  0.87882000  1
  C  C89  1  0.40527000  0.26199000  0.86600000  1
  C  C90  1  0.34346000  0.24350000  0.84510000  1
  C  C91  1  0.30010000  0.16403000  0.83676000  1
  C  C92  1  0.31821000  0.10254000  0.85027000  1
  C  C93  1  0.37999000  0.12151000  0.87143000  1
  C  C94  1  0.27492000  0.02302000  0.84180000  1
  C  C95  1  0.21523000  0.00483000  0.81937000  1
  C  C96  1  0.19848000  0.06586000  0.80527000  1
  C  C97  1  0.23982000  0.14515000  0.81452000  1
  C  C98  1  0.04128000  0.83163000  0.69810000  1
  C  C99  1  0.09315000  0.59736000  0.96604000  1
  C  C100  1  0.03380000  0.93750000  0.73725000  1
  C  C101  1  0.03037000  0.17715000  0.81365000  1
  C  C102  1  0.02494000  0.93519000  0.77333000  1
  C  C103  1  0.03044000  0.19224000  0.71206000  1
  C  C104  1  0.03901000  0.07097000  0.73655000  1
  C  C105  1  0.58481000  0.87190000  0.22989000  1
  C  C106  1  0.55109000  0.98136000  0.19040000  1
  C  C107  1  0.61160000  0.00370000  0.30413000  1
  C  C108  1  0.59361000  0.85864000  0.33531000  1
  C  C109  1  0.03041000  0.06911000  0.77257000  1
  C  C110  1  0.63957000  0.93803000  0.21578000  1
  C  C111  1  0.62263000  0.99695000  0.19890000  1
  C  C112  1  0.67003000  0.98161000  0.30679000  1
  C  C113  1  0.66063000  0.90762000  0.32148000  1
  C  C114  1  0.67777000  0.06792000  0.18882000  1
  C  C115  1  0.71777000  0.88280000  0.32135000  1
  C  C116  1  0.73661000  0.03015000  0.29274000  1
  C  C117  1  0.02986000  0.57723000  0.94627000  1
  C  C118  1  0.71065000  0.94675000  0.21856000  1
  C  C119  1  0.78438000  0.54462000  0.87538000  1
  C  C120  1  0.77408000  0.21218000  0.62983000  1
  C  C121  1  0.74902000  0.08028000  0.19599000  1
  C  C122  1  0.79060000  0.08978000  0.64751000  1
  C  C123  1  0.78460000  0.66072000  0.66477000  1
  C  C124  1  0.77321000  0.25574000  0.85447000  1
  C  C125  1  0.79137000  0.53897000  0.63925000  1
  C  C126  1  0.76539000  0.02058000  0.21197000  1
  C  C127  1  0.77653000  0.16098000  0.80756000  1
  C  C128  1  0.78204000  0.92877000  0.30489000  1
  C  C129  1  0.79057000  0.00088000  0.28903000  1
  C  C130  1  0.81777000  0.73420000  0.68227000  1
  C  C131  1  0.81675000  0.67451000  0.84492000  1
  C  C132  1  0.81178000  0.11828000  0.79113000  1
  C  C133  1  0.81585000  0.17297000  0.64742000  1
  C  C134  1  0.83233000  0.05293000  0.66277000  1
  C  C135  1  0.82585000  0.62074000  0.65196000  1
  C  C136  1  0.81365000  0.22381000  0.83145000  1
  C  C137  1  0.82585000  0.60266000  0.84861000  1
  C  C138  1  0.00871000  0.76245000  0.67753000  1
  C  C139  1  0.83228000  0.43217000  0.56125000  1
  C  C140  1  0.83716000  0.04008000  0.22746000  1
  C  C141  1  0.85932000  0.81042000  0.82379000  1
  C  C142  1  0.84953000  0.03804000  0.26333000  1
  C  C143  1  0.86628000  0.73735000  0.82588000  1
  C  C144  1  0.88501000  0.45681000  0.53352000  1
  C  C145  1  0.88275000  0.21928000  0.66307000  1
  C  C146  1  0.88450000  0.13742000  0.79872000  1
  C  C147  1  0.88739000  0.24617000  0.83763000  1
  C  C148  1  0.88212000  0.59224000  0.83108000  1
  C  C149  1  0.89434000  0.51905000  0.92989000  1
  C  C150  1  0.89941000  0.09906000  0.67835000  1
  C  C151  1  0.89240000  0.76779000  0.68713000  1
  C  C152  1  0.90052000  0.65617000  0.65472000  1
  C  C153  1  0.91080000  0.87424000  0.80658000  1
  C  C154  1  0.90378000  0.06556000  0.20429000  1
  C  C155  1  0.92297000  0.20274000  0.82159000  1
  C  C156  1  0.91902000  0.09148000  0.78415000  1
  C  C157  1  0.92458000  0.18283000  0.67860000  1
  C  C158  1  0.92560000  0.83743000  0.70752000  1
  C  C159  1  0.92473000  0.72784000  0.80975000  1
  C  C160  1  0.93366000  0.48050000  0.51265000  1
  C  C161  1  0.94064000  0.06268000  0.69468000  1
  C  C162  1  0.93415000  0.72919000  0.67256000  1
  C  C163  1  0.93126000  0.65440000  0.81175000  1
  C  C164  1  0.92839000  0.06174000  0.27383000  1
  C  C165  1  0.93854000  0.00794000  0.21481000  1
  C  C166  1  0.95177000  0.00661000  0.25073000  1
  C  C167  1  0.95318000  0.24512000  0.29705000  1
  C  C168  1  0.95434000  0.14538000  0.22105000  1
  C  C169  1  0.96378000  0.89214000  0.19162000  1
  C  C170  1  0.96990000  0.86603000  0.79108000  1
  C  C171  1  0.00468000  0.10915000  0.71273000  1
  C  C172  1  0.96946000  0.55358000  0.93543000  1
  C  C173  1  0.96871000  0.97037000  0.18765000  1
  C  C174  1  0.96623000  0.14332000  0.25683000  1
  C  C175  1  0.97500000  0.90118000  0.28287000  1
  C  C176  1  0.97671000  0.79253000  0.79255000  1
  C  C177  1  0.98194000  0.31907000  0.31453000  1
  C  C178  1  0.99230000  0.11226000  0.79100000  1
  C  C179  1  0.98675000  0.27340000  0.18878000  1
  C  C180  1  0.99077000  0.22898000  0.69494000  1
  C  C181  1  0.99593000  0.22218000  0.82893000  1
  C  C182  1  0.99391000  0.51072000  0.49004000  1
  C  C183  1  0.99604000  0.79962000  0.31645000  1
  C  C184  1  0.99965000  0.86790000  0.71383000  1
  O  O1  1  0.50902000  0.27888000  0.92318000  1
  O  O2  1  0.58263000  0.39949000  0.97603000  1
  O  O3  1  0.61103000  0.26233000  0.97262000  1
  O  O4  1  0.52320000  0.17093000  0.89859000  1
  O  O5  1  0.57326000  0.20813000  0.64492000  1
  O  O6  1  0.48766000  0.16343000  0.58036000  1
  O  O7  1  0.53728000  0.40343000  0.57215000  1
  O  O8  1  0.52743000  0.29865000  0.62968000  1
  O  O9  1  0.29254000  0.73427000  0.36885000  1
  O  O10  1  0.14298000  0.72867000  0.37178000  1
  O  O11  1  0.22642000  0.85472000  0.36719000  1
  O  O12  1  0.16023000  0.58722000  0.37132000  1
  O  O13  1  0.13862000  0.52408000  0.43691000  1
  O  O14  1  0.32618000  0.86219000  0.42045000  1
  O  O15  1  0.45129000  0.76453000  0.36223000  1
  O  O16  1  0.28265000  0.66724000  0.42962000  1
  O  O17  1  0.12648000  0.64319000  0.43746000  1
  O  O18  1  0.43205000  0.67139000  0.42623000  1
  O  O19  1  0.34677000  0.54636000  0.43144000  1
  O  O20  1  0.24386000  0.53595000  0.38058000  1
  O  O21  1  0.41107000  0.81227000  0.42858000  1
  O  O22  1  0.43528000  0.88094000  0.36712000  1
  O  O23  1  0.31944000  0.69525000  0.07064000  1
  O  O24  1  0.45886000  0.69703000  0.10061000  1
  O  O25  1  0.36841000  0.57585000  0.09466000  1
  O  O26  1  0.44420000  0.84461000  0.08574000  1
  O  O27  1  0.42088000  0.90932000  0.14911000  1
  O  O28  1  0.20889000  0.51293000  0.08097000  1
  O  O29  1  0.16172000  0.62525000  0.04933000  1
  O  O30  1  0.29748000  0.75937000  0.12792000  1
  O  O31  1  0.44370000  0.79715000  0.15731000  1
  O  O32  1  0.14712000  0.72300000  0.10895000  1
  O  O33  1  0.21768000  0.85589000  0.10816000  1
  O  O34  1  0.35371000  0.88698000  0.07730000  1
  O  O35  1  0.20262000  0.60231000  0.12230000  1
  O  O36  1  0.23970000  0.59498000  0.01408000  1
  O  O37  1  0.58634000  0.13160000  0.58106000  1
  O  O38  1  0.64795000  0.18191000  0.93954000  1
  O  O39  1  0.65275000  0.52236000  0.95660000  1
  O  O40  1  0.62195000  0.30545000  0.57111000  1
  O  O41  1  0.65013000  0.46981000  0.55154000  1
  O  O42  1  0.65612000  0.31710000  0.89190000  1
  O  O43  1  0.72047000  0.40593000  0.94452000  1
  O  O44  1  0.70228000  0.34728000  0.62670000  1
  O  O45  1  0.70404000  0.18365000  0.63249000  1
  O  O46  1  0.76430000  0.57119000  0.90398000  1
  O  O47  1  0.73171000  0.20916000  0.87839000  1
  O  O48  1  0.75521000  0.46840000  0.86700000  1
  O  O49  1  0.76277000  0.52481000  0.60671000  1
  O  O50  1  0.76360000  0.40851000  0.55311000  1
  O  O51  1  0.79968000  0.48284000  0.65836000  1
  O  O52  1  0.79146000  0.33305000  0.85680000  1
  O  O53  1  0.80763000  0.28082000  0.61465000  1
  O  O54  1  0.85605000  0.52955000  0.95608000  1
  O  O55  1  0.85491000  0.44891000  0.59431000  1
  O  O56  1  0.86870000  0.45657000  0.90795000  1
