# generated using pymatgen
data_Co2H30C47I2(N2O5)2
_symmetry_space_group_name_H-M   'P 1'
_cell_length_a   24.80496000
_cell_length_b   21.60172000
_cell_length_c   19.56750000
_cell_angle_alpha   92.69945000
_cell_angle_beta   85.31709000
_cell_angle_gamma   124.79524000
_symmetry_Int_Tables_number   1
_chemical_formula_structural   Co2H30C47I2(N2O5)2
_chemical_formula_sum   'Co4 H60 C94 I4 N8 O20'
_cell_volume   8581.37895122
_cell_formula_units_Z   2
loop_
 _symmetry_equiv_pos_site_id
 _symmetry_equiv_pos_as_xyz
  1  'x, y, z'
loop_
 _atom_site_type_symbol
 _atom_site_label
 _atom_site_symmetry_multiplicity
 _atom_site_fract_x
 _atom_site_fract_y
 _atom_site_fract_z
 _atom_site_occupancy
  Co  Co1  1  0.71288000  0.28610000  0.00217000  1
  Co  Co2  1  0.57792000  0.28286000  0.04752000  1
  Co  Co3  1  0.72970000  0.33991000  0.49447000  1
  Co  Co4  1  0.60222000  0.34877000  0.54016000  1
  H  H1  1  0.89709000  0.05154000  0.83440000  1
  H  H2  1  0.95262000  0.98692000  0.84040000  1
  H  H3  1  0.99212000  0.05831000  0.05056000  1
  H  H4  1  0.93993000  0.12602000  0.04342000  1
  H  H5  1  0.13158000  0.03052000  0.13292000  1
  H  H6  1  0.02405000  0.97147000  0.08376000  1
  H  H7  1  0.12236000  0.06359000  0.88560000  1
  H  H8  1  0.22987000  0.12134000  0.93464000  1
  H  H9  1  0.92290000  0.72387000  0.91770000  1
  H  H10  1  0.00354000  0.85946000  0.89339000  1
  H  H11  1  0.90097000  0.91242000  0.04728000  1
  H  H12  1  0.81910000  0.77696000  0.06945000  1
  H  H13  1  0.91917000  0.10666000  0.33094000  1
  H  H14  1  0.98447000  0.05370000  0.33670000  1
  H  H15  1  0.00750000  0.11121000  0.55127000  1
  H  H16  1  0.94269000  0.16440000  0.54524000  1
  H  H17  1  0.16175000  0.10463000  0.63215000  1
  H  H18  1  0.05441000  0.03876000  0.58173000  1
  H  H19  1  0.15155000  0.14169000  0.38613000  1
  H  H20  1  0.25918000  0.20694000  0.43641000  1
  H  H21  1  0.96099000  0.79700000  0.39501000  1
  H  H22  1  0.03607000  0.93456000  0.37696000  1
  H  H23  1  0.93830000  0.96996000  0.55103000  1
  H  H24  1  0.86418000  0.83283000  0.56951000  1
  H  H25  1  0.79074000  0.43170000  0.98355000  1
  H  H26  1  0.79644000  0.47354000  0.44023000  1
  H  H27  1  0.58494000  0.21657000  0.69149000  1
  H  H28  1  0.73103000  0.41892000  0.85268000  1
  H  H29  1  0.55833000  0.19946000  0.35143000  1
  H  H30  1  0.72012000  0.39505000  0.18283000  1
  H  H31  1  0.93591000  0.71573000  0.53482000  1
  H  H32  1  0.70429000  0.57218000  0.47030000  1
  H  H33  1  0.86433000  0.57767000  0.54779000  1
  H  H34  1  0.80184000  0.77500000  0.43413000  1
  H  H35  1  0.72287000  0.68698000  0.43314000  1
  H  H36  1  0.96354000  0.27370000  0.39224000  1
  H  H37  1  0.72865000  0.11894000  0.47915000  1
  H  H38  1  0.89798000  0.32650000  0.39438000  1
  H  H39  1  0.81235000  0.02326000  0.47571000  1
  H  H40  1  0.73787000  0.01703000  0.49751000  1
  H  H41  1  0.43252000  0.36048000  0.56845000  1
  H  H42  1  0.26068000  0.08624000  0.59752000  1
  H  H43  1  0.31839000  0.30795000  0.54307000  1
  H  H44  1  0.42212000  0.15295000  0.65699000  1
  H  H45  1  0.33985000  0.07330000  0.64479000  1
  H  H46  1  0.85049000  0.66584000  0.10773000  1
  H  H47  1  0.70304000  0.49524000  0.92887000  1
  H  H48  1  0.78386000  0.52818000  0.12417000  1
  H  H49  1  0.78785000  0.69737000  0.89557000  1
  H  H50  1  0.73470000  0.60337000  0.86364000  1
  H  H51  1  0.74343000  0.10888000  0.02556000  1
  H  H52  1  0.92927000  0.19545000  0.85032000  1
  H  H53  1  0.80908000  0.05660000  0.02393000  1
  H  H54  1  0.82617000  0.26315000  0.82577000  1
  H  H55  1  0.89959000  0.26905000  0.79809000  1
  H  H56  1  0.27762000  0.21943000  0.08123000  1
  H  H57  1  0.35730000  0.05407000  0.07733000  1
  H  H58  1  0.39296000  0.27329000  0.10290000  1
  H  H59  1  0.18408000  0.95831000  0.04179000  1
  H  H60  1  0.25039000  0.94924000  0.05157000  1
  C  C1  1  0.91435000  0.09292000  0.93862000  1
  C  C2  1  0.91906000  0.05447000  0.88114000  1
  C  C3  1  0.95013000  0.01747000  0.88464000  1
  C  C4  1  0.97606000  0.01766000  0.94573000  1
  C  C5  1  0.97292000  0.05800000  0.00282000  1
  C  C6  1  0.94281000  0.09598000  0.99893000  1
  C  C7  1  0.18796000  0.07909000  0.03689000  1
  C  C8  1  0.12968000  0.03812000  0.07905000  1
  C  C9  1  0.06872000  0.00409000  0.05101000  1
  C  C10  1  0.06574000  0.01251000  0.98069000  1
  C  C11  1  0.12421000  0.05647000  0.93958000  1
  C  C12  1  0.18503000  0.08937000  0.96741000  1
  C  C13  1  0.86480000  0.74116000  0.99426000  1
  C  C14  1  0.91768000  0.76494000  0.94550000  1
  C  C15  1  0.96348000  0.84169000  0.93190000  1
  C  C16  1  0.95733000  0.89557000  0.96721000  1
  C  C17  1  0.90530000  0.87172000  0.01777000  1
  C  C18  1  0.85918000  0.79482000  0.03088000  1
  C  C19  1  0.92600000  0.13836000  0.43786000  1
  C  C20  1  0.93877000  0.10809000  0.37893000  1
  C  C21  1  0.97577000  0.07822000  0.38215000  1
  C  C22  1  0.00020000  0.07818000  0.44424000  1
  C  C23  1  0.98895000  0.11063000  0.50296000  1
  C  C24  1  0.95203000  0.14060000  0.49962000  1
  C  C25  1  0.21796000  0.15985000  0.53765000  1
  C  C26  1  0.15972000  0.11281000  0.57845000  1
  C  C27  1  0.09879000  0.07505000  0.54971000  1
  C  C28  1  0.09554000  0.08458000  0.47974000  1
  C  C29  1  0.15362000  0.13382000  0.43987000  1
  C  C30  1  0.21454000  0.17098000  0.46846000  1
  C  C31  1  0.90697000  0.80563000  0.48290000  1
  C  C32  1  0.95610000  0.83473000  0.42917000  1
  C  C33  1  0.99867000  0.91254000  0.41902000  1
  C  C34  1  0.99226000  0.96200000  0.46204000  1
  C  C35  1  0.94337000  0.93270000  0.51662000  1
  C  C36  1  0.90146000  0.85490000  0.52730000  1
  C  C37  1  0.71012000  0.42141000  0.03130000  1
  C  C38  1  0.45451000  0.20129000  0.08657000  1
  C  C39  1  0.65873000  0.25446000  0.13140000  1
  C  C40  1  0.75951000  0.21532000  0.94295000  1
  C  C41  1  0.62460000  0.30058000  0.91680000  1
  C  C42  1  0.73867000  0.48327000  0.51305000  1
  C  C43  1  0.48243000  0.28045000  0.59148000  1
  C  C44  1  0.69087000  0.33797000  0.62663000  1
  C  C45  1  0.77160000  0.26087000  0.44536000  1
  C  C46  1  0.63394000  0.33738000  0.40791000  1
  C  C47  1  0.64267000  0.30737000  0.84303000  1
  C  C48  1  0.60092000  0.25034000  0.79726000  1
  C  C49  1  0.61665000  0.26102000  0.72652000  1
  C  C50  1  0.67332000  0.32868000  0.70092000  1
  C  C51  1  0.71395000  0.38647000  0.74689000  1
  C  C52  1  0.69927000  0.37469000  0.81752000  1
  C  C53  1  0.64375000  0.27683000  0.19849000  1
  C  C54  1  0.59655000  0.22190000  0.24596000  1
  C  C55  1  0.59289000  0.24231000  0.31433000  1
  C  C56  1  0.63411000  0.31773000  0.33505000  1
  C  C57  1  0.67690000  0.37353000  0.28610000  1
  C  C58  1  0.68332000  0.35257000  0.21889000  1
  C  C59  1  0.77971000  0.56608000  0.50982000  1
  C  C60  1  0.84491000  0.60677000  0.52812000  1
  C  C61  1  0.88553000  0.68493000  0.52044000  1
  C  C62  1  0.86184000  0.72335000  0.49320000  1
  C  C63  1  0.79573000  0.68244000  0.47458000  1
  C  C64  1  0.75479000  0.60399000  0.48457000  1
  C  C65  1  0.80931000  0.22701000  0.43878000  1
  C  C66  1  0.87515000  0.26957000  0.41257000  1
  C  C67  1  0.91233000  0.23956000  0.41116000  1
  C  C68  1  0.88417000  0.16639000  0.43526000  1
  C  C69  1  0.81681000  0.12163000  0.45876000  1
  C  C70  1  0.78000000  0.15266000  0.46058000  1
  C  C71  1  0.28262000  0.19311000  0.56582000  1
  C  C72  1  0.33055000  0.27100000  0.56126000  1
  C  C73  1  0.39516000  0.30090000  0.57640000  1
  C  C74  1  0.41255000  0.25323000  0.59647000  1
  C  C75  1  0.36266000  0.17606000  0.60909000  1
  C  C76  1  0.29822000  0.14617000  0.59193000  1
  C  C77  1  0.74035000  0.50284000  0.02680000  1
  C  C78  1  0.78014000  0.55115000  0.07814000  1
  C  C79  1  0.81786000  0.62918000  0.06882000  1
  C  C80  1  0.81613000  0.65983000  0.00804000  1
  C  C81  1  0.77226000  0.61130000  0.95809000  1
  C  C82  1  0.73526000  0.53282000  0.96769000  1
  C  C83  1  0.87434000  0.12370000  0.93793000  1
  C  C84  1  0.82105000  0.09855000  0.98620000  1
  C  C85  1  0.78326000  0.12755000  0.98650000  1
  C  C86  1  0.79734000  0.18146000  0.93769000  1
  C  C87  1  0.84913000  0.20432000  0.88634000  1
  C  C88  1  0.88853000  0.17677000  0.88827000  1
  C  C89  1  0.38334000  0.16758000  0.08923000  1
  C  C90  1  0.35986000  0.21338000  0.09336000  1
  C  C91  1  0.29443000  0.18283000  0.08090000  1
  C  C92  1  0.25183000  0.10629000  0.06398000  1
  C  C93  1  0.27399000  0.05865000  0.06496000  1
  C  C94  1  0.33959000  0.08986000  0.07833000  1
  I  I1  1  0.51335000  0.14815000  0.83336000  1
  I  I2  1  0.79377000  0.49490000  0.71149000  1
  I  I3  1  0.53171000  0.10749000  0.21642000  1
  I  I4  1  0.73144000  0.48995000  0.31143000  1
  N  N1  1  0.00350000  0.97434000  0.94967000  1
  N  N2  1  0.03383000  0.04176000  0.44748000  1
  N  N3  1  0.77189000  0.71759000  0.44574000  1
  N  N4  1  0.78724000  0.04907000  0.47911000  1
  N  N5  1  0.37627000  0.13083000  0.63806000  1
  N  N6  1  0.76515000  0.63957000  0.90147000  1
  N  N7  1  0.85954000  0.24986000  0.83387000  1
  N  N8  1  0.23319000  0.98356000  0.05164000  1
  O  O1  1  0.78811000  0.28744000  0.94350000  1
  O  O2  1  0.63055000  0.25901000  0.95661000  1
  O  O3  1  0.65716000  0.38097000  0.07348000  1
  O  O4  1  0.70324000  0.18283000  0.97718000  1
  O  O5  1  0.58477000  0.31687000  0.94418000  1
  O  O6  1  0.49727000  0.26925000  0.10674000  1
  O  O7  1  0.48178000  0.17952000  0.04226000  1
  O  O8  1  0.71859000  0.27902000  0.10999000  1
  O  O9  1  0.62162000  0.23476000  0.08063000  1
  O  O10  1  0.74526000  0.39516000  0.00630000  1
  O  O11  1  0.79834000  0.33125000  0.43340000  1
  O  O12  1  0.64287000  0.30414000  0.45464000  1
  O  O13  1  0.68450000  0.44961000  0.55459000  1
  O  O14  1  0.72013000  0.23464000  0.48711000  1
  O  O15  1  0.60009000  0.36287000  0.43282000  1
  O  O16  1  0.52928000  0.35032000  0.60071000  1
  O  O17  1  0.50349000  0.24850000  0.55122000  1
  O  O18  1  0.74798000  0.35603000  0.60103000  1
  O  O19  1  0.64711000  0.30595000  0.58148000  1
  O  O20  1  0.75897000  0.44555000  0.47662000  1
