# Generated by REPEAT Assigner based on pymatgen
data_DB7-ddmof_21061
_audit_creation_date              2022-05-24
_audit_creation_method            REPEAT_Assigner
_cell_length_a                    17.809940
_cell_length_b                    18.935730
_cell_length_c                    48.541130
_cell_angle_alpha                 88.457690
_cell_angle_beta                  88.525630
_cell_angle_gamma                 108.096600
_cell_volume                      15544.797633
_symmetry_space_group_name_H-M    P1
_symmetry_Int_Tables_number       1
loop_
    _symmetry_equiv_pos_site_id
    _symmetry_equiv_pos_as_xyz
    1  x,y,z
loop_
    _atom_site_type_symbol
    _atom_site_label
    _atom_site_fract_x
    _atom_site_fract_y
    _atom_site_fract_z
    _atom_type_partial_charge
    C   C1    0.170420  0.063440  0.805190  0.703027
    C   C2    0.162900  0.965800  0.747710  0.886647
    C   C3    0.187550  0.867690  0.318680  0.791363
    C   C4    0.375660  0.804430  0.396720  0.820040
    C   C5    0.024940  0.687000  0.414610  0.740668
    C   C6    0.265470  0.587960  0.416110  0.751697
    C   C7    0.055860  0.594230  0.349990  1.056477
    C   C8    0.261230  0.619190  0.187420  0.813173
    C   C9    0.185180  0.858180  0.188420  0.716478
    C   C10   0.220430  0.634150  0.113650  0.712787
    C   C11   0.113300  0.117550  0.271030  0.757831
    C   C12   0.132810  0.323950  0.236540  0.918542
    C   C13   0.229560  0.545380  0.201610  -0.098748
    C   C14   0.277370  0.499280  0.204760  -0.165393
    C   C15   0.245270  0.426910  0.215950  -0.044916
    C   C16   0.164920  0.399470  0.223980  -0.384424
    C   C17   0.116010  0.445400  0.220490  0.491463
    C   C18   0.149450  0.518690  0.210050  -0.201486
    C   C19   0.016260  0.970940  0.206820  -0.007042
    C   C20   0.028330  0.918170  0.225640  -0.181091
    C   C21   0.082700  0.880960  0.219280  -0.113706
    C   C22   0.126320  0.896220  0.194160  -0.240971
    C   C23   0.112260  0.947030  0.174560  0.457578
    C   C24   0.056580  0.983380  0.180990  -0.294523
    C   C25   0.011350  0.527720  0.335600  -0.591690
    C   C26   0.144570  0.061420  0.284040  -0.123083
    C   C27   0.127010  0.040560  0.311970  -0.093760
    C   C28   0.145160  0.979550  0.323320  -0.165146
    C   C29   0.181120  0.938260  0.306990  -0.275729
    C   C30   0.203090  0.961370  0.279060  0.528199
    C   C31   0.185010  0.023360  0.267910  -0.243019
    C   C32   0.338900  0.907640  0.457840  -0.160939
    C   C33   0.336840  0.881910  0.431190  -0.152169
    C   C34   0.388810  0.843920  0.422640  -0.075069
    C   C35   0.266940  0.453150  0.474420  0.255450
    C   C36   0.285960  0.557370  0.441810  0.065014
    C   C37   0.256520  0.480940  0.448150  -0.304761
    C   C38   0.245870  0.995520  0.737770  -0.099219
    C   C39   0.286680  0.070850  0.741260  -0.141295
    C   C40   0.358450  0.105020  0.727180  0.014285
    C   C41   0.351000  0.988230  0.705880  0.712767
    C   C42   0.279390  0.953610  0.720840  -0.379809
    C   C43   0.097010  0.483550  0.069310  0.127331
    C   C44   0.130280  0.509960  0.042690  0.050516
    C   C45   0.097010  0.469960  0.019340  0.050891
    C   C46   0.127250  0.523880  0.092590  -0.160735
    C   C47   0.188070  0.591700  0.089470  -0.053181
    C   C48   0.190060  0.579280  0.039860  -0.116183
    C   C49   0.136840  0.482820  0.993330  -0.155713
    C   C50   0.219280  0.618960  0.063100  -0.182255
    C   C51   0.244650  0.123170  0.809700  0.095831
    C   C52   0.315450  0.105730  0.811210  -0.239401
    C   C53   0.317600  0.253950  0.815180  0.434509
    C   C54   0.245920  0.197440  0.811330  -0.386903
    C   C55   0.045070  0.508640  0.311670  0.080842
    C   C56   0.370360  0.989790  0.508370  -0.073129
    C   C57   0.239840  0.376460  0.480590  -0.279724
    C   C58   0.097000  0.452810  0.969920  -0.275810
    C   C59   0.511600  0.937720  0.078030  -0.129998
    C   C60   0.329760  0.605670  0.461100  -0.230064
    C   C61   0.304930  0.502850  0.494740  -0.000711
    C   C62   0.340690  0.578620  0.487190  -0.098496
    C   C63   0.446030  0.835090  0.440550  -0.216633
    C   C64   0.627720  0.720060  0.104540  -0.092248
    C   C65   0.713670  0.197360  0.830010  0.729194
    C   C66   0.501080  0.245470  0.902790  0.854094
    C   C67   0.608620  0.467440  0.921280  0.769739
    C   C68   0.836170  0.463600  0.859300  1.086837
    C   C69   0.458900  0.287420  0.830060  0.574287
    C   C70   0.747520  0.235620  0.698830  0.609578
    C   C71   0.654620  0.413320  0.623660  0.783903
    C   C72   0.517730  0.080390  0.618640  0.567982
    C   C73   0.414080  0.307230  0.623840  0.710898
    C   C74   0.451310  0.107670  0.688370  1.044502
    C   C75   0.652560  0.480350  0.695210  0.686134
    C   C76   0.446230  0.775580  0.326610  0.651016
    C   C77   0.514820  0.727480  0.133910  0.785512
    C   C78   0.498990  0.971260  0.203070  0.796543
    C   C79   0.457710  0.928310  0.126500  0.796967
    C   C80   0.744500  0.987490  0.295730  0.903890
    C   C81   0.757100  0.136070  0.250630  0.934379
    C   C82   0.676260  0.125810  0.241970  -0.178957
    C   C83   0.663710  0.139660  0.214260  -0.159308
    C   C84   0.594450  0.097660  0.202140  -0.120273
    C   C85   0.539180  0.039680  0.217440  -0.185694
    C   C86   0.543400  0.038010  0.246520  0.460318
    C   C87   0.612770  0.081330  0.258650  -0.241839
    C   C88   0.525830  0.823640  0.317500  0.225490
    C   C89   0.541200  0.852740  0.290340  -0.353304
    C   C90   0.616410  0.900370  0.282320  -0.002637
    C   C91   0.676470  0.920500  0.301520  -0.248559
    C   C92   0.662910  0.886660  0.328280  0.531223
    C   C93   0.587240  0.839360  0.336190  -0.457118
    C   C94   0.375460  0.018440  0.534510  -0.344613
    C   C95   0.422690  0.999430  0.554080  0.353063
    C   C96   0.465160  0.949670  0.547630  -0.043927
    C   C97   0.461460  0.921280  0.520540  0.104490
    C   C98   0.408420  0.937000  0.501640  -0.052023
    C   C99   0.431860  0.033530  0.579510  -0.378526
    C   C100  0.488620  0.024650  0.597560  0.191777
    C   C101  0.510560  0.930260  0.568380  -0.139868
    C   C102  0.514210  0.883890  0.511170  -0.161724
    C   C103  0.451910  0.865050  0.466900  0.256381
    C   C104  0.399720  0.904040  0.475420  0.071984
    C   C105  0.524990  0.970080  0.592640  -0.227331
    C   C106  0.508880  0.855840  0.484770  -0.289506
    C   C107  0.755150  0.499310  0.543570  -0.019320
    C   C108  0.678110  0.448360  0.546460  -0.123624
    C   C109  0.646540  0.419330  0.572520  -0.178563
    C   C110  0.689990  0.442110  0.596190  -0.082877
    C   C111  0.764870  0.495710  0.593670  -0.247145
    C   C112  0.336330  0.493390  0.570340  -0.344252
    C   C113  0.334800  0.419280  0.573930  0.311779
    C   C114  0.313810  0.370180  0.551860  -0.027756
    C   C115  0.293700  0.397070  0.526370  0.059667
    C   C116  0.325100  0.521260  0.544450  -0.112443
    C   C117  0.310110  0.474630  0.521740  0.050636
    C   C118  0.359190  0.395180  0.598740  -0.292353
    C   C119  0.368860  0.324630  0.601110  0.084180
    C   C120  0.321200  0.298250  0.554880  -0.119692
    C   C121  0.253440  0.348400  0.506230  -0.152166
    C   C122  0.347250  0.275560  0.579470  -0.227302
    C   C123  0.819890  0.228000  0.710390  0.076398
    C   C124  0.388980  0.065580  0.708330  -0.513765
    C   C125  0.756220  0.697610  0.725790  0.091460
    C   C126  0.726260  0.635700  0.744080  -0.162502
    C   C127  0.697380  0.564140  0.734030  -0.184176
    C   C128  0.697840  0.553210  0.705590  -0.183314
    C   C129  0.732040  0.614860  0.687090  0.613978
    C   C130  0.550920  0.070550  0.969950  -0.307904
    C   C131  0.502200  0.111910  0.961570  0.271354
    C   C132  0.447370  0.125760  0.980670  0.010801
    C   C133  0.435690  0.089640  0.007390  0.049410
    C   C134  0.547020  0.043760  0.997090  -0.131334
    C   C135  0.486370  0.048340  0.015630  0.048347
    C   C136  0.512940  0.145380  0.934960  -0.237616
    C   C137  0.475470  0.198050  0.927990  -0.094096
    C   C138  0.410360  0.179510  0.973410  -0.153025
    C   C139  0.374330  0.093220  0.025800  -0.125612
    C   C140  0.423550  0.030610  0.062000  0.254789
    C   C141  0.476740  0.014860  0.042750  0.013420
    C   C142  0.516060  0.963590  0.050660  -0.141936
    C   C143  0.464250  0.958690  0.097760  -0.121755
    C   C144  0.419370  0.004370  0.089560  -0.201699
    C   C145  0.423330  0.213980  0.947150  -0.122174
    C   C146  0.371870  0.068460  0.053200  -0.327513
    C   C147  0.708170  0.600980  0.004720  -0.322779
    C   C148  0.644750  0.562450  0.988810  0.329593
    C   C149  0.566530  0.543620  0.999840  -0.010063
    C   C150  0.553840  0.556650  0.027940  0.078899
    C   C151  0.694370  0.622880  0.031140  -0.137640
    C   C152  0.616580  0.604390  0.042460  0.013930
    C   C153  0.658570  0.541510  0.962090  -0.332730
    C   C154  0.594820  0.505650  0.945850  0.059262
    C   C155  0.503020  0.515190  0.982280  -0.168048
    C   C156  0.483040  0.517370  0.042500  -0.147155
    C   C157  0.526850  0.590570  0.082650  0.318191
    C   C158  0.600270  0.627740  0.068930  0.040026
    C   C159  0.651060  0.692340  0.080440  -0.223854
    C   C160  0.553620  0.684470  0.117310  0.002690
    C   C161  0.507090  0.616160  0.107780  -0.332272
    C   C162  0.517310  0.495640  0.955560  -0.148325
    C   C163  0.470740  0.533070  0.069820  -0.321787
    C   C164  0.725080  0.127620  0.821090  -0.136763
    C   C165  0.685770  0.090730  0.798400  -0.222432
    C   C166  0.710090  0.034490  0.786430  -0.040205
    C   C167  0.776340  0.017320  0.796210  -0.298896
    C   C168  0.785360  0.104840  0.832650  -0.240820
    C   C169  0.386100  0.160820  0.815750  -0.109166
    C   C170  0.387570  0.234560  0.819020  -0.020144
    C   C171  0.759360  0.686750  0.697350  -0.385299
    C   C172  0.981930  0.719580  0.460120  -0.199845
    C   C173  0.766600  0.486280  0.493210  -0.076396
    C   C174  0.820300  0.208000  0.738400  -0.234890
    C   C175  0.853750  0.337270  0.976330  -0.205572
    C   C176  0.917650  0.402580  0.339350  -0.450329
    C   C177  0.904970  0.605400  0.439810  -0.349167
    C   C178  0.842500  0.357710  0.926160  0.643179
    C   C179  0.805970  0.962600  0.781900  0.872386
    C   C180  0.790740  0.772970  0.736520  0.546845
    C   C181  0.942510  0.302830  0.311480  0.590693
    C   C182  0.969930  0.019960  0.215390  0.762863
    C   C183  0.957270  0.381880  0.317160  0.209368
    C   C184  0.804200  0.512660  0.467680  -0.368601
    C   C185  0.865140  0.580520  0.465350  0.312516
    C   C186  0.888690  0.622920  0.488960  -0.031958
    C   C187  0.857470  0.591720  0.515400  0.076146
    C   C188  0.790710  0.526730  0.517210  0.034033
    C   C189  0.897080  0.618460  0.539680  -0.146604
    C   C190  0.796300  0.526500  0.567590  0.308347
    C   C191  0.867380  0.585190  0.565370  -0.345276
    C   C192  0.873840  0.172670  0.747510  -0.107688
    C   C193  0.925150  0.154780  0.728490  -0.318458
    C   C194  0.934720  0.187350  0.701530  0.692382
    C   C195  0.880720  0.222770  0.692480  -0.528078
    C   C196  0.994720  0.384410  0.048940  -0.167005
    C   C197  0.979070  0.389510  0.998450  -0.040574
    C   C198  0.896860  0.352610  0.000210  -0.074224
    C   C199  0.890890  0.360180  0.950370  -0.000883
    C   C200  0.972920  0.393600  0.948190  -0.201121
    C   C201  0.816570  0.055890  0.818790  0.577386
    C   C202  0.894340  0.613450  0.803570  -0.216563
    C   C203  0.862090  0.543740  0.816750  -0.009758
    C   C204  0.883500  0.530830  0.843570  -0.616206
    C   C205  0.944470  0.586240  0.856070  0.800605
    C   C206  0.018280  0.436120  0.302510  -0.377039
    C   C207  0.943450  0.475850  0.348410  0.773941
    C   C208  0.966420  0.673050  0.437590  0.056879
    C   C209  0.942230  0.695500  0.485530  -0.081458
    C   C210  0.962940  0.747990  0.807200  0.603845
    C   C211  0.950640  0.089020  0.734320  0.818236
    C   C212  0.031970  0.418760  0.072200  -0.246523
    C   C213  0.022710  0.414360  0.022340  0.109583
    C   C214  0.016940  0.410380  0.972060  0.208165
    C   C215  0.948710  0.670950  0.816990  0.154294
    C   C216  0.976330  0.656400  0.842630  -0.423366
    H   H1    0.981610  0.957780  0.816090  0.371493
    H   H2    0.225310  0.654330  0.334370  0.400699
    H   H3    0.201790  0.803580  0.391920  0.380580
    H   H4    0.297760  0.816200  0.126480  0.342020
    H   H5    0.384190  0.767620  0.201000  0.399854
    H   H6    0.283040  0.392210  0.218490  0.148004
    H   H7    0.112080  0.553760  0.207320  0.107762
    H   H8    0.339410  0.519390  0.198490  0.091392
    H   H9    0.092350  0.841360  0.234220  0.216374
    H   H10   0.045990  0.022570  0.166070  0.142870
    H   H11   0.192220  0.933870  0.143920  0.327907
    H   H12   0.141280  0.999060  0.135390  0.416691
    H   H13   0.128810  0.962740  0.344730  0.091809
    H   H14   0.200090  0.040280  0.246430  0.143175
    H   H15   0.096250  0.069690  0.324680  0.112860
    H   H16   0.247560  0.873890  0.269360  0.466722
    H   H17   0.260790  0.944730  0.242910  0.418408
    H   H18   0.341020  0.012680  0.492920  0.108795
    H   H19   0.290740  0.926420  0.465100  0.122330
    H   H20   0.291930  0.888240  0.417630  0.122590
    H   H21   0.027050  0.773360  0.458220  0.108278
    H   H22   0.224340  0.443470  0.432900  0.166691
    H   H23   0.208510  0.338300  0.465420  0.148347
    H   H24   0.248260  0.895230  0.718260  0.147292
    H   H25   0.259920  0.104370  0.753360  0.103603
    H   H26   0.265080  0.672200  0.060530  0.130988
    H   H27   0.211000  0.604690  0.019740  0.113273
    H   H28   0.102980  0.502960  0.113020  0.156778
    H   H29   0.199120  0.513730  0.991270  0.134039
    H   H30   0.127640  0.465010  0.949930  0.144150
    H   H31   0.545950  0.939920  0.035580  0.123519
    H   H32   0.543310  0.899370  0.083680  0.121630
    H   H33   0.191750  0.211520  0.809250  0.170680
    H   H34   0.315780  0.049100  0.808820  0.163523
    H   H35   0.267270  0.340010  0.812330  0.377368
    H   H36   0.095730  0.548640  0.301250  0.104787
    H   H37   0.345040  0.058420  0.539190  0.175957
    H   H38   0.355220  0.664460  0.455870  0.173511
    H   H39   0.324500  0.578120  0.542460  0.123867
    H   H40   0.228510  0.289390  0.510840  0.123578
    H   H41   0.387560  0.163940  0.729420  0.079100
    H   H42   0.664240  0.772830  0.111840  0.117857
    H   H43   0.352760  0.890910  0.686790  0.428856
    H   H44   0.705000  0.724950  0.069620  0.137088
    H   H45   0.670050  0.410210  0.842330  0.388328
    H   H46   0.672490  0.249490  0.901970  0.380911
    H   H47   0.521260  0.275100  0.698640  0.436247
    H   H48   0.650880  0.250060  0.629720  0.366189
    H   H49   0.588830  0.103460  0.180090  0.151270
    H   H50   0.619880  0.075240  0.280610  0.161099
    H   H51   0.710850  0.177130  0.201450  0.103560
    H   H52   0.428260  0.966050  0.254410  0.351811
    H   H53   0.487240  0.991270  0.284080  0.371056
    H   H54   0.626850  0.924610  0.261560  0.075436
    H   H55   0.575950  0.815570  0.357040  0.218577
    H   H56   0.494790  0.839360  0.275540  0.159928
    H   H57   0.780260  0.929940  0.340470  0.360427
    H   H58   0.711210  0.876250  0.366480  0.379765
    H   H59   0.565130  0.959090  0.607320  0.141468
    H   H60   0.532780  0.883630  0.566290  0.129367
    H   H61   0.399000  0.071500  0.584370  0.179522
    H   H62   0.562520  0.880190  0.523500  0.130700
    H   H63   0.485220  0.804230  0.434130  0.102462
    H   H64   0.550000  0.827350  0.478080  0.154362
    H   H65   0.722750  0.431880  0.494480  0.122115
    H   H66   0.640960  0.434000  0.528880  0.108634
    H   H67   0.587630  0.379680  0.574330  0.171757
    H   H68   0.354680  0.220940  0.581150  0.129810
    H   H69   0.312490  0.261690  0.537720  0.126517
    H   H70   0.376300  0.433340  0.615410  0.149444
    H   H71   0.348760  0.530270  0.587500  0.168132
    H   H72   0.379130  0.616130  0.501010  0.099443
    H   H73   0.775310  0.214550  0.752660  0.270787
    H   H74   0.039310  0.163570  0.691420  0.401919
    H   H75   0.436730  0.970830  0.678670  0.431286
    H   H76   0.672100  0.517340  0.748350  0.167523
    H   H77   0.724620  0.642940  0.766120  0.119347
    H   H78   0.790380  0.310600  0.978100  0.133288
    H   H79   0.395490  0.255880  0.942130  0.097136
    H   H80   0.376360  0.198950  0.988450  0.139156
    H   H81   0.554670  0.134270  0.920360  0.132612
    H   H82   0.595830  0.063240  0.955810  0.147036
    H   H83   0.593500  0.022590  0.003820  0.121219
    H   H84   0.326700  0.112440  0.018840  0.107695
    H   H85   0.380030  0.018240  0.104390  0.125012
    H   H86   0.327020  0.075790  0.067360  0.164383
    H   H87   0.467890  0.470030  0.942770  0.126574
    H   H88   0.442980  0.509720  0.988960  0.128789
    H   H89   0.718640  0.551150  0.954220  0.150695
    H   H90   0.768390  0.614310  0.996580  0.162275
    H   H91   0.744580  0.649830  0.043320  0.128429
    H   H92   0.439020  0.472250  0.033200  0.123402
    H   H93   0.450460  0.587900  0.118100  0.157601
    H   H94   0.415680  0.502650  0.080630  0.173226
    H   H95   0.679240  0.006180  0.768970  0.113798
    H   H96   0.638430  0.107240  0.789430  0.194294
    H   H97   0.439480  0.145490  0.817940  0.140088
    H   H98   0.373100  0.369420  0.812640  0.330560
    H   H99   0.728740  0.552180  0.651850  0.443301
    H   H100  0.019820  0.700490  0.852710  0.122187
    H   H101  0.047720  0.421130  0.284870  0.200085
    H   H102  0.816830  0.501060  0.806750  0.159133
    H   H103  0.865030  0.340430  0.019910  0.130051
    H   H104  0.854900  0.457060  0.379430  0.419332
    H   H105  0.868620  0.361420  0.350130  0.178931
    H   H106  0.891220  0.570380  0.422170  0.195539
    H   H107  0.933010  0.222950  0.239400  0.447086
    H   H108  0.942330  0.085350  0.304620  0.392109
    H   H109  0.786300  0.479650  0.449690  0.156753
    H   H110  0.797690  0.514840  0.611990  0.134023
    H   H111  0.899590  0.605700  0.583660  0.156964
    H   H112  0.870610  0.153470  0.768820  0.174484
    H   H113  0.883130  0.242010  0.671130  0.185018
    H   H114  0.000110  0.205880  0.664120  0.392548
    H   H115  0.785120  0.733890  0.683190  0.125446
    H   H116  0.763420  0.650970  0.646030  0.407341
    H   H117  0.008910  0.395960  0.092530  0.144505
    H   H118  0.946650  0.332950  0.051700  0.114005
    H   H119  0.814580  0.132290  0.850570  0.046313
    H   H120  0.926460  0.043790  0.809310  0.368686
    H   H121  0.915100  0.074270  0.843260  0.414313
    H   H122  0.873520  0.624110  0.783580  0.102273
    H   H123  0.954620  0.519200  0.890110  0.476850
    H   H124  0.985200  0.872570  0.741250  0.422195
    H   H125  0.916080  0.551870  0.374340  0.452388
    H   H126  0.001840  0.453930  0.224590  0.392724
    H   H127  0.008360  0.362510  0.230860  0.290012
    H   H128  0.952300  0.733720  0.502220  0.102524
    H   H129  0.953590  0.661720  0.538660  0.145177
    H   H130  0.997620  0.907700  0.245610  0.123951
    H   H131  0.001600  0.411250  0.928060  0.146037
    H   H132  0.015950  0.614270  0.890200  0.428946
    N   N1    0.151610  0.960950  0.149600  -0.901895
    N   N2    0.240230  0.924140  0.262800  -0.898422
    N   N3    0.319560  0.326310  0.813870  -0.817005
    N   N4    0.382190  0.947410  0.689070  -1.075971
    N   N5    0.482350  0.994300  0.262700  -0.841583
    N   N6    0.722230  0.899350  0.346410  -0.903172
    N   N7    0.036700  0.418700  0.226070  -0.871008
    N   N8    0.740820  0.605140  0.659680  -0.993939
    N   N9    0.889870  0.053970  0.824710  -0.951836
    N   N10   0.972830  0.572320  0.880700  -1.116542
    N   N11   0.902810  0.496280  0.369170  -1.093801
    N   N12   0.995050  0.184330  0.684370  -0.935799
    O   O1    0.166030  0.994110  0.812630  -0.777686
    O   O2    0.112510  0.079080  0.792050  -0.664179
    O   O3    0.115300  0.004330  0.742490  -0.744625
    O   O4    0.138850  0.905600  0.763970  -0.671231
    O   O5    0.993070  0.935350  0.798990  -1.097932
    O   O6    0.035450  0.789630  0.799540  -0.646551
    O   O7    0.007460  0.706880  0.389820  -0.797112
    O   O8    0.093430  0.676550  0.418960  -0.655815
    O   O9    0.248790  0.679460  0.351150  -1.191280
    O   O10   0.295170  0.574280  0.392500  -0.733207
    O   O11   0.090910  0.586270  0.372690  -0.738942
    O   O12   0.231780  0.640470  0.417460  -0.666015
    O   O13   0.069150  0.660470  0.338260  -0.684736
    O   O14   0.191430  0.771310  0.375880  -1.099511
    O   O15   0.122360  0.811550  0.323410  -0.683373
    O   O16   0.362040  0.838580  0.374280  -0.732597
    O   O17   0.257930  0.858100  0.320290  -0.692723
    O   O18   0.368810  0.733010  0.397130  -0.627894
    O   O19   0.296340  0.795590  0.145520  -1.044764
    O   O20   0.160790  0.785200  0.187490  -0.695779
    O   O21   0.409470  0.944130  0.144670  -0.683693
    O   O22   0.260650  0.894700  0.191710  -0.597030
    O   O23   0.172690  0.639310  0.134280  -0.746534
    O   O24   0.296920  0.668500  0.113950  -0.605856
    O   O25   0.398070  0.791230  0.182330  -1.161887
    O   O26   0.321510  0.632760  0.169850  -0.689448
    O   O27   0.451490  0.739540  0.124550  -0.617707
    O   O28   0.225670  0.669630  0.191040  -0.610449
    O   O29   0.135780  0.266320  0.222540  -0.758321
    O   O30   0.100250  0.315000  0.261550  -0.650826
    O   O31   0.101330  0.170330  0.285980  -0.682339
    O   O32   0.094340  0.111750  0.244910  -0.577075
    O   O33   0.979670  0.080390  0.758500  -0.703235
    O   O34   0.775780  0.373550  0.928990  -0.593296
    O   O35   0.642330  0.381420  0.858940  -1.117531
    O   O36   0.576570  0.477640  0.897910  -0.759760
    O   O37   0.794700  0.470150  0.881170  -0.755649
    O   O38   0.640160  0.413630  0.924280  -0.653420
    O   O39   0.451290  0.329300  0.850500  -0.681498
    O   O40   0.528200  0.280210  0.823740  -0.624390
    O   O41   0.689950  0.284410  0.885820  -1.132513
    O   O42   0.776300  0.253460  0.835010  -0.634456
    O   O43   0.519630  0.216990  0.880090  -0.735054
    O   O44   0.643240  0.206630  0.829400  -0.630503
    O   O45   0.513110  0.317510  0.904120  -0.604191
    O   O46   0.555990  0.065670  0.639990  -0.715973
    O   O47   0.506520  0.145550  0.615280  -0.643287
    O   O48   0.540660  0.295430  0.679870  -1.176486
    O   O49   0.413720  0.338690  0.647660  -0.733336
    O   O50   0.432590  0.145050  0.668050  -0.769271
    O   O51   0.466370  0.273050  0.618360  -0.609410
    O   O52   0.525690  0.119960  0.694180  -0.663119
    O   O53   0.594330  0.476570  0.678620  -0.715369
    O   O54   0.673120  0.420900  0.701480  -0.648738
    O   O55   0.624690  0.239480  0.648290  -1.047984
    O   O56   0.685990  0.175430  0.697740  -0.649532
    O   O57   0.699340  0.399990  0.643130  -0.718207
    O   O58   0.739300  0.302550  0.696160  -0.590673
    O   O59   0.577760  0.398120  0.628000  -0.653050
    O   O60   0.440090  0.719730  0.344200  -0.762999
    O   O61   0.383070  0.792540  0.319080  -0.657732
    O   O62   0.540960  0.944550  0.185940  -0.718512
    O   O63   0.421410  0.943460  0.204640  -0.722177
    O   O64   0.496710  0.881750  0.133150  -0.592821
    O   O65   0.547990  0.760770  0.156010  -0.755420
    O   O66   0.745350  0.049730  0.307730  -0.801445
    O   O67   0.803180  0.984170  0.278990  -0.706890
    O   O68   0.796930  0.095470  0.239830  -0.716714
    O   O69   0.786190  0.180000  0.270830  -0.717316
    O   O70   0.824970  0.398290  0.848750  -0.717664
    O   O71   0.868460  0.344460  0.901700  -0.765084
    O   O72   0.938200  0.036770  0.716000  -0.729059
    O   O73   0.800340  0.831980  0.720060  -0.622711
    O   O74   0.801080  0.780300  0.763180  -0.537065
    O   O75   0.824750  0.911210  0.796560  -0.710681
    O   O76   0.902010  0.773420  0.805650  -0.641438
    O   O77   0.806150  0.961950  0.754680  -0.661323
    O   O78   0.960180  0.186960  0.245210  -1.187444
    O   O79   0.931270  0.007310  0.239540  -0.652273
    O   O80   0.926040  0.121120  0.292830  -1.161726
    O   O81   0.870020  0.255990  0.314780  -0.648051
    O   O82   0.956800  0.904820  0.749400  -1.192655
    O   O83   0.981450  0.083740  0.201860  -0.703964
    O   O84   0.003470  0.278210  0.308830  -0.614886
    Zn  Zn1   0.028480  0.002190  0.767610  1.426154
    Zn  Zn2   0.082470  0.899800  0.805480  1.238059
    Zn  Zn3   0.174610  0.668900  0.387410  1.421456
    Zn  Zn4   0.285830  0.788640  0.346930  1.402587
    Zn  Zn5   0.087810  0.763100  0.360670  1.208715
    Zn  Zn6   0.352850  0.872570  0.174610  1.332569
    Zn  Zn7   0.190330  0.729090  0.157200  1.178229
    Zn  Zn8   0.356700  0.726140  0.147600  1.340438
    Zn  Zn9   0.041590  0.178590  0.218520  1.178659
    Zn  Zn10  0.705340  0.386470  0.895960  1.393054
    Zn  Zn11  0.540740  0.398940  0.869780  1.219945
    Zn  Zn12  0.607910  0.272890  0.854650  1.356773
    Zn  Zn13  0.797950  0.293120  0.872290  1.212785
    Zn  Zn14  0.512230  0.222890  0.646070  1.405958
    Zn  Zn15  0.513020  0.384740  0.667680  1.244676
    Zn  Zn16  0.656820  0.329120  0.674740  1.372045
    Zn  Zn17  0.624670  0.142450  0.664100  1.173825
    Zn  Zn18  0.343140  0.654740  0.363630  1.289029
    Zn  Zn19  0.512870  0.840650  0.174310  1.234872
    Zn  Zn20  0.833040  0.145240  0.308350  1.232477
    Zn  Zn21  0.882840  0.928660  0.724700  1.206496
    Zn  Zn22  0.896360  0.858580  0.782770  1.351564
    Zn  Zn23  0.886530  0.078440  0.258110  1.422605
    Zn  Zn24  0.017660  0.215380  0.279160  1.360466
