# Generated by REPEAT Assigner based on pymatgen
data_DB7-ddmof_22160
_audit_creation_date              2022-05-24
_audit_creation_method            REPEAT_Assigner
_cell_length_a                    32.718150
_cell_length_b                    27.602560
_cell_length_c                    42.384050
_cell_angle_alpha                 103.590700
_cell_angle_beta                  115.753940
_cell_angle_gamma                 112.569690
_cell_volume                      27874.210160
_symmetry_space_group_name_H-M    P1
_symmetry_Int_Tables_number       1
loop_
    _symmetry_equiv_pos_site_id
    _symmetry_equiv_pos_as_xyz
    1  x,y,z
loop_
    _atom_site_type_symbol
    _atom_site_label
    _atom_site_fract_x
    _atom_site_fract_y
    _atom_site_fract_z
    _atom_type_partial_charge
    C   C1    0.560890  0.232240  0.914350  0.277726
    C   C2    0.582560  0.287690  0.915210  -0.277743
    C   C3    0.621730  0.306150  0.907280  0.091119
    C   C4    0.639020  0.268950  0.898420  -0.217949
    C   C5    0.617530  0.213550  0.897670  0.095243
    C   C6    0.578120  0.195060  0.905370  -0.290814
    H   H1    0.569380  0.316580  0.922330  0.146104
    H   H2    0.670240  0.283820  0.893210  0.120355
    H   H3    0.561610  0.152340  0.904990  0.148834
    C   C7    0.572300  0.238210  0.420910  0.137410
    C   C8    0.594210  0.294050  0.422230  -0.245414
    C   C9    0.632170  0.312080  0.413180  0.073384
    C   C10   0.648300  0.274290  0.402930  -0.236746
    C   C11   0.626650  0.218540  0.401710  0.103900
    C   C12   0.588180  0.200300  0.410300  -0.271077
    H   H4    0.581960  0.323410  0.430440  0.113374
    H   H5    0.678760  0.288940  0.396990  0.125369
    H   H6    0.571540  0.157310  0.409550  0.122201
    C   C13   0.485140  0.789520  0.995190  0.139927
    C   C14   0.463290  0.823590  0.999130  -0.277020
    C   C15   0.418640  0.801620  0.001220  0.112655
    C   C16   0.395900  0.745530  0.999390  -0.247150
    C   C17   0.417510  0.711270  0.995380  0.105809
    C   C18   0.462250  0.733380  0.993390  -0.273149
    H   H7    0.480840  0.866890  0.000420  0.119789
    H   H8    0.360780  0.728070  0.000320  0.125300
    H   H9    0.478920  0.706870  0.990130  0.122272
    C   C19   0.490750  0.791920  0.495200  0.264908
    C   C20   0.469420  0.826410  0.499530  -0.293678
    C   C21   0.424480  0.804410  0.501300  0.109261
    C   C22   0.401030  0.747920  0.498820  -0.218402
    C   C23   0.422170  0.713240  0.494410  0.092897
    C   C24   0.467110  0.735330  0.492610  -0.279356
    H   H10   0.487490  0.870020  0.501300  0.145710
    H   H11   0.365820  0.730530  0.499630  0.119428
    H   H12   0.483490  0.708550  0.489130  0.147211
    Zn  Zn1   0.133830  0.122110  0.990460  1.202020
    Zn  Zn2   0.044860  0.073620  0.903620  1.340504
    O   O1    0.040580  0.976450  0.842390  -0.681034
    O   O2    0.018650  0.046010  0.845580  -0.607460
    O   O3    0.044860  0.907630  0.899790  -0.721438
    C   C25   0.190060  0.090770  0.963600  0.727764
    O   O4    0.994510  0.991520  0.889650  -1.018416
    C   C26   0.141450  0.203290  0.955360  0.817641
    O   O5    0.195260  0.118720  0.996180  -0.730355
    O   O6    0.142680  0.061510  0.928750  -0.655563
    O   O7    0.060220  0.084410  0.957930  -1.199406
    O   O8    0.086290  0.987940  0.958990  -0.777841
    O   O9    0.100780  0.156530  0.919420  -0.693164
    O   O10   0.155790  0.198770  0.988240  -0.664204
    Zn  Zn3   0.894810  0.894200  0.904550  1.184777
    Zn  Zn4   0.988280  0.929050  0.981090  1.398221
    Zn  Zn5   0.012930  0.002030  0.941620  1.485820
    C   C27   0.889290  0.805310  0.934330  0.923364
    C   C28   0.865950  0.938510  0.952320  0.848496
    O   O11   0.940840  0.020710  0.925400  -0.746191
    Zn  Zn6   0.995790  0.040380  0.008100  1.319531
    O   O12   0.941390  0.843460  0.964520  -0.684151
    O   O13   0.865390  0.815660  0.904900  -0.688983
    O   O14   0.850480  0.916100  0.915260  -0.663844
    O   O15   0.913910  0.953110  0.981070  -0.831589
    C   C29   0.022110  0.998310  0.066020  0.996724
    O   O16   0.965350  0.919740  0.925430  -1.266829
    C   C30   0.936350  0.058140  0.947410  0.907427
    O   O17   0.015110  0.952950  0.039860  -0.731210
    O   O18   0.023080  0.043350  0.060040  -0.740478
    O   O19   0.963790  0.078490  0.986100  -0.714000
    O   O20   0.030810  0.011560  0.993230  -1.209227
    Zn  Zn7   0.014410  0.942040  0.870970  1.213990
    C   C31   0.026800  0.008860  0.827470  0.710763
    C   C32   0.083460  0.941520  0.938240  1.099810
    H   H13   0.070230  0.032710  0.014450  0.414033
    H   H14   0.955740  0.976220  0.870420  0.333039
    Zn  Zn8   0.140850  0.128460  0.493240  1.208757
    Zn  Zn9   0.051950  0.075720  0.405220  1.345032
    O   O21   0.047840  0.977200  0.345240  -0.658728
    O   O22   0.025790  0.046610  0.347160  -0.636065
    O   O23   0.051370  0.910140  0.403560  -0.717965
    C   C33   0.200970  0.099810  0.469570  0.947721
    O   O24   0.001460  0.994140  0.391990  -0.988976
    C   C34   0.146260  0.206430  0.455920  0.782223
    O   O25   0.204680  0.129000  0.501030  -0.756555
    O   O26   0.153590  0.065980  0.434450  -0.674804
    O   O27   0.067030  0.088080  0.459680  -1.223703
    O   O28   0.093720  0.992130  0.462140  -0.805784
    O   O29   0.108320  0.158000  0.420360  -0.678830
    O   O30   0.159910  0.203680  0.489310  -0.646686
    Zn  Zn10  0.902180  0.897700  0.407790  1.176076
    Zn  Zn11  0.996410  0.934830  0.484890  1.407428
    Zn  Zn12  0.020180  0.006050  0.444270  1.500676
    C   C35   0.898300  0.810680  0.439140  0.955270
    C   C36   0.873660  0.943790  0.455210  0.763451
    O   O31   0.947590  0.024070  0.427240  -0.764424
    Zn  Zn13  0.003140  0.046240  0.510550  1.332891
    O   O32   0.950450  0.849430  0.469100  -0.695186
    O   O33   0.873740  0.820040  0.409320  -0.695268
    O   O34   0.857380  0.919380  0.417960  -0.647883
    O   O35   0.921860  0.958680  0.483890  -0.873645
    C   C37   0.027650  0.004820  0.568750  1.011895
    O   O36   0.972980  0.924060  0.428890  -1.266667
    C   C38   0.942840  0.061800  0.448760  0.947936
    O   O37   0.022170  0.959800  0.543560  -0.731275
    O   O38   0.030160  0.050250  0.562720  -0.761093
    O   O39   0.970250  0.083030  0.487530  -0.727701
    O   O40   0.038380  0.017070  0.496220  -1.199338
    Zn  Zn14  0.021090  0.943850  0.373910  1.194956
    C   C39   0.034180  0.009120  0.329670  0.729336
    C   C40   0.090490  0.945010  0.441860  1.117433
    H   H15   0.077860  0.038630  0.517450  0.415458
    H   H16   0.962690  0.978820  0.372730  0.324397
    C   C41   0.028510  0.006890  0.731540  0.297493
    C   C42   0.076130  0.021400  0.733870  -0.197806
    C   C43   0.076860  0.019730  0.700880  -0.241280
    C   C44   0.029960  0.003510  0.665450  0.285032
    C   C45   0.982290  0.988750  0.663090  -0.239144
    C   C46   0.981570  0.990430  0.696060  -0.212889
    C   C47   0.031140  0.004120  0.631990  -0.004734
    C   C48   0.030490  0.004120  0.603340  -0.315752
    C   C49   0.027530  0.007830  0.765300  -0.085264
    C   C50   0.026990  0.008700  0.793680  -0.162621
    H   H17   0.112530  0.033980  0.761180  0.186004
    H   H18   0.113890  0.031350  0.702950  0.153765
    H   H19   0.945920  0.976310  0.635820  0.183090
    H   H20   0.944580  0.978970  0.694000  0.143831
    C   C51   0.036940  0.001120  0.167150  0.182043
    C   C52   0.065790  0.056400  0.200980  -0.210454
    C   C53   0.065880  0.058350  0.234290  -0.198880
    C   C54   0.037130  0.005020  0.233890  0.317526
    C   C55   0.009230  0.949700  0.200390  -0.241763
    C   C56   0.009120  0.947760  0.167080  -0.131430
    C   C57   0.036070  0.007010  0.267760  -0.070175
    C   C58   0.034990  0.008300  0.296000  -0.182512
    C   C59   0.032110  0.999340  0.131420  0.051421
    C   C60   0.028360  0.998430  0.101690  -0.345384
    H   H21   0.087290  0.097850  0.201220  0.155789
    H   H22   0.087820  0.101260  0.260180  0.173895
    H   H23   0.987180  0.908280  0.199980  0.139234
    H   H24   0.986630  0.904870  0.141000  0.151378
    C   C61   0.396280  0.653200  0.490770  0.128061
    C   C62   0.395870  0.647090  0.522600  -0.172783
    C   C63   0.365740  0.590230  0.517600  -0.156043
    C   C64   0.335750  0.538980  0.480720  0.072613
    C   C65   0.337640  0.544950  0.449310  -0.163323
    C   C66   0.367800  0.601860  0.454320  -0.169862
    C   C67   0.300670  0.479370  0.474530  0.129294
    C   C68   0.311540  0.435180  0.466650  -0.177062
    C   C69   0.278890  0.379130  0.461600  -0.199442
    C   C70   0.235170  0.366890  0.464340  0.253866
    C   C71   0.223930  0.410740  0.471800  -0.194597
    C   C72   0.256520  0.466790  0.476850  -0.173688
    C   C73   0.202980  0.310050  0.460810  -0.130470
    C   C74   0.176630  0.262660  0.458300  -0.158336
    H   H25   0.417950  0.686460  0.550910  0.116788
    H   H26   0.365010  0.586030  0.542160  0.122689
    H   H27   0.314750  0.505640  0.420770  0.121756
    H   H28   0.367800  0.606130  0.429550  0.125477
    H   H29   0.345530  0.444450  0.464820  0.120766
    H   H30   0.287860  0.345450  0.455890  0.165099
    H   H31   0.190200  0.401600  0.473960  0.149034
    H   H32   0.247590  0.500470  0.482660  0.126143
    C   C75   0.833280  0.939460  0.463600  -0.012166
    C   C76   0.781050  0.921680  0.432900  -0.118174
    C   C77   0.740580  0.909850  0.439290  -0.150154
    C   C78   0.751880  0.915840  0.476450  0.113992
    C   C79   0.804810  0.936900  0.507830  -0.182800
    C   C80   0.845390  0.948880  0.501540  -0.111200
    C   C81   0.707450  0.896030  0.481600  0.115877
    C   C82   0.692710  0.848120  0.489770  -0.185622
    C   C83   0.649300  0.827760  0.493150  -0.208657
    C   C84   0.620280  0.855050  0.488340  0.293748
    C   C85   0.635160  0.903190  0.480490  -0.188598
    C   C86   0.678620  0.923650  0.477120  -0.183271
    C   C87   0.574720  0.833020  0.490880  -0.209252
    C   C88   0.536500  0.814320  0.492900  -0.117451
    H   H33   0.771340  0.915500  0.403770  0.120546
    H   H34   0.700000  0.894320  0.415010  0.113321
    H   H35   0.814170  0.942680  0.536840  0.124721
    H   H36   0.885720  0.963840  0.525830  0.143798
    H   H37   0.714480  0.826260  0.493030  0.137655
    H   H38   0.638020  0.790520  0.499220  0.145791
    H   H39   0.612940  0.924560  0.476790  0.144422
    H   H40   0.689730  0.960720  0.470890  0.119522
    C   C89   0.400300  0.839230  0.503970  0.157418
    C   C90   0.372780  0.846950  0.471390  -0.209453
    C   C91   0.342610  0.871660  0.471290  -0.143778
    C   C92   0.339800  0.888950  0.503810  0.071706
    C   C93   0.369750  0.884230  0.537320  -0.161569
    C   C94   0.399820  0.859390  0.537380  -0.188031
    C   C95   0.301270  0.906050  0.500990  0.118244
    C   C96   0.305900  0.955260  0.494960  -0.167849
    C   C97   0.265540  0.966910  0.487420  -0.173143
    C   C98   0.220380  0.929500  0.485860  0.152910
    C   C99   0.216920  0.881960  0.493580  -0.182775
    C   C100  0.257200  0.870240  0.501130  -0.148592
    C   C101  0.174920  0.935740  0.471980  0.070460
    C   C102  0.136400  0.940120  0.459000  -0.444252
    H   H41   0.373050  0.831670  0.445520  0.134094
    H   H42   0.319750  0.875250  0.445310  0.125004
    H   H43   0.368350  0.898090  0.562770  0.121612
    H   H44   0.421370  0.854100  0.562830  0.121351
    H   H45   0.339970  0.983480  0.495120  0.112018
    H   H46   0.268580  0.003920  0.481630  0.149455
    H   H47   0.182160  0.852910  0.492470  0.140254
    H   H48   0.253230  0.832160  0.505750  0.123582
    C   C103  0.392040  0.651400  0.992050  0.137171
    C   C104  0.364100  0.599920  0.955830  -0.171239
    C   C105  0.334340  0.543090  0.951050  -0.160978
    C   C106  0.332320  0.537330  0.982470  0.068941
    C   C107  0.361790  0.588740  0.019130  -0.160319
    C   C108  0.391520  0.645530  0.023900  -0.174975
    C   C109  0.297520  0.477750  0.976430  0.126796
    C   C110  0.253030  0.464800  0.978380  -0.177712
    C   C111  0.220390  0.408610  0.973120  -0.188925
    C   C112  0.231920  0.364980  0.965830  0.244785
    C   C113  0.276080  0.377640  0.963590  -0.189394
    C   C114  0.308780  0.433850  0.968850  -0.175482
    C   C115  0.199330  0.307760  0.961690  -0.118223
    C   C116  0.172510  0.260010  0.958570  -0.180206
    H   H49   0.364190  0.604010  0.931050  0.123453
    H   H50   0.311840  0.503650  0.922670  0.121856
    H   H51   0.360950  0.584710  0.043690  0.123347
    H   H52   0.413200  0.685020  0.052040  0.116484
    H   H53   0.243810  0.498270  0.983970  0.128048
    H   H54   0.186320  0.399120  0.974890  0.149067
    H   H55   0.285270  0.344140  0.958010  0.155733
    H   H56   0.343030  0.443430  0.967320  0.121222
    C   C117  0.531400  0.812180  0.992250  0.171574
    C   C118  0.523890  0.815540  0.957810  -0.201768
    C   C119  0.567480  0.835800  0.954630  -0.157537
    C   C120  0.619010  0.853120  0.985950  0.064497
    C   C121  0.626680  0.850690  0.020670  -0.118287
    C   C122  0.583010  0.830120  0.023750  -0.221155
    C   C123  0.664190  0.871020  0.981600  0.134235
    C   C124  0.688310  0.838320  0.983360  -0.166585
    C   C125  0.730310  0.854380  0.978450  -0.212837
    C   C126  0.748400  0.903060  0.971590  0.312070
    C   C127  0.724560  0.935960  0.969920  -0.250108
    C   C128  0.682640  0.920100  0.975010  -0.170029
    C   C129  0.790360  0.917940  0.965130  -0.158696
    C   C130  0.825150  0.928490  0.959470  -0.137197
    H   H57   0.484160  0.801820  0.933360  0.123824
    H   H58   0.561030  0.837200  0.927620  0.125976
    H   H59   0.666360  0.864280  0.045110  0.105509
    H   H60   0.589220  0.828010  0.050540  0.130377
    H   H61   0.674160  0.800150  0.988160  0.117292
    H   H62   0.748470  0.828640  0.979640  0.166572
    H   H63   0.738230  0.973540  0.964490  0.169319
    H   H64   0.664430  0.945770  0.973730  0.124936
    C   C131  0.393960  0.835980  0.003480  0.154525
    C   C132  0.392190  0.855150  0.036340  -0.192842
    C   C133  0.361770  0.879660  0.035810  -0.156730
    C   C134  0.332860  0.885180  0.002410  0.070790
    C   C135  0.337030  0.868980  0.970500  -0.153308
    C   C136  0.367470  0.844480  0.971040  -0.198812
    C   C137  0.293920  0.901830  0.998950  0.132735
    C   C138  0.248330  0.864500  0.997080  -0.158809
    C   C139  0.207910  0.876110  0.988990  -0.187864
    C   C140  0.212780  0.925100  0.982780  0.181200
    C   C141  0.259400  0.963970  0.986380  -0.196861
    C   C142  0.299850  0.952340  0.994380  -0.163357
    C   C143  0.167550  0.931720  0.968550  0.032969
    C   C144  0.129170  0.936340  0.955390  -0.420692
    H   H65   0.413000  0.849340  0.061700  0.124086
    H   H66   0.359280  0.892660  0.060780  0.118254
    H   H67   0.314990  0.873220  0.944630  0.123456
    H   H68   0.368760  0.830010  0.945600  0.133217
    H   H69   0.243390  0.825420  0.000580  0.124392
    H   H70   0.172030  0.845960  0.986330  0.143618
    H   H71   0.263670  0.002240  0.981960  0.154078
    H   H72   0.335090  0.981710  0.996090  0.109748
    C   C145  0.647700  0.181640  0.394670  0.136980
    C   C146  0.645260  0.163550  0.359700  -0.166953
    C   C147  0.672390  0.136470  0.355730  -0.186199
    C   C148  0.701830  0.126950  0.386580  0.084440
    C   C149  0.701880  0.142220  0.420610  -0.163412
    C   C150  0.675010  0.169520  0.424670  -0.176137
    C   C151  0.736770  0.106490  0.385150  0.131384
    C   C152  0.728110  0.053370  0.386520  -0.158396
    C   C153  0.767190  0.039930  0.393150  -0.218213
    C   C154  0.815100  0.079450  0.398440  0.199665
    C   C155  0.822010  0.130350  0.394310  -0.171629
    C   C156  0.782930  0.143830  0.387620  -0.169661
    C   C157  0.860220  0.072800  0.414160  -0.060129
    C   C158  0.898160  0.067790  0.429060  -0.261977
    H   H73   0.623750  0.172110  0.336170  0.121499
    H   H74   0.671730  0.124340  0.329190  0.121512
    H   H75   0.724470  0.134970  0.444560  0.129367
    H   H76   0.677140  0.183300  0.451770  0.123128
    H   H77   0.692310  0.023910  0.384190  0.111551
    H   H78   0.761390  0.000260  0.396020  0.168846
    H   H79   0.858810  0.160950  0.398130  0.141798
    H   H80   0.789810  0.184760  0.386350  0.130825
    C   C159  0.656770  0.371520  0.415880  0.157635
    C   C160  0.692450  0.423490  0.453250  -0.178348
    C   C161  0.721180  0.479390  0.456550  -0.161128
    C   C162  0.714400  0.483710  0.422500  0.072223
    C   C163  0.677220  0.431990  0.384930  -0.162678
    C   C164  0.648520  0.376130  0.381630  -0.176607
    C   C165  0.748030  0.541840  0.426430  0.128778
    C   C166  0.785480  0.549940  0.416970  -0.184943
    C   C167  0.817090  0.604880  0.420370  -0.166828
    C   C168  0.811530  0.652070  0.433300  0.201119
    C   C169  0.774440  0.644230  0.443030  -0.198697
    C   C170  0.742770  0.589280  0.439620  -0.158656
    C   C171  0.842890  0.708040  0.435650  -0.023949
    C   C172  0.868610  0.754890  0.437380  -0.316261
    H   H81   0.699100  0.420350  0.479860  0.126342
    H   H82   0.749670  0.519110  0.485670  0.118830
    H   H83   0.671280  0.435000  0.358410  0.122794
    H   H84   0.620820  0.336260  0.352630  0.118199
    H   H85   0.790070  0.513690  0.407000  0.128403
    H   H86   0.845690  0.610660  0.412810  0.147890
    H   H87   0.769900  0.680540  0.453000  0.154355
    H   H88   0.713960  0.583440  0.446970  0.117715
    C   C173  0.533780  0.220080  0.431670  0.170809
    C   C174  0.478900  0.173170  0.402240  -0.227427
    C   C175  0.442120  0.156730  0.412300  -0.128306
    C   C176  0.460010  0.186920  0.451930  0.074075
    C   C177  0.515190  0.233060  0.481510  -0.184952
    C   C178  0.551900  0.249660  0.471390  -0.176434
    C   C179  0.420330  0.172970  0.461850  0.134849
    C   C180  0.412200  0.217070  0.476370  -0.178230
    C   C181  0.370890  0.202460  0.481970  -0.179787
    C   C182  0.337310  0.143690  0.473010  0.201062
    C   C183  0.346670  0.100080  0.459990  -0.198114
    C   C184  0.388150  0.114690  0.454500  -0.170106
    C   C185  0.289880  0.126920  0.473000  -0.066570
    C   C186  0.249570  0.113980  0.472010  -0.260577
    H   H89   0.464640  0.149990  0.371520  0.124673
    H   H90   0.399550  0.121310  0.389200  0.121688
    H   H91   0.529440  0.256460  0.512210  0.125890
    H   H92   0.594330  0.285610  0.494360  0.113323
    H   H93   0.436830  0.262190  0.482170  0.126170
    H   H94   0.363890  0.236400  0.492080  0.147302
    H   H95   0.320940  0.054560  0.453100  0.154769
    H   H96   0.394500  0.080480  0.443720  0.114307
    C   C187  0.639480  0.177190  0.891910  0.139671
    C   C188  0.667730  0.167270  0.922960  -0.191462
    C   C189  0.695090  0.140150  0.919860  -0.158245
    C   C190  0.694490  0.122740  0.885690  0.098669
    C   C191  0.664160  0.130130  0.853840  -0.187291
    C   C192  0.636690  0.157200  0.856920  -0.165413
    C   C193  0.729630  0.102110  0.884980  0.105437
    C   C194  0.774070  0.137370  0.885030  -0.158628
    C   C195  0.813250  0.124030  0.891810  -0.181716
    C   C196  0.808190  0.075370  0.898510  0.193636
    C   C197  0.762060  0.037880  0.895920  -0.170552
    C   C198  0.722820  0.051130  0.889110  -0.160909
    C   C199  0.853560  0.069120  0.913760  -0.066677
    C   C200  0.891630  0.064250  0.928240  -0.233991
    H   H97   0.670120  0.182550  0.950080  0.131350
    H   H98   0.718390  0.134610  0.944600  0.126253
    H   H99   0.663070  0.116340  0.827200  0.124258
    H   H100  0.614530  0.164150  0.832620  0.120225
    H   H101  0.779560  0.176680  0.881680  0.129273
    H   H102  0.848700  0.153060  0.893610  0.143719
    H   H103  0.757800  0.000040  0.900960  0.142427
    H   H104  0.688360  0.023260  0.888690  0.111169
    C   C201  0.646540  0.365570  0.909960  0.135136
    C   C202  0.680520  0.417630  0.947110  -0.164681
    C   C203  0.709110  0.473670  0.950540  -0.166457
    C   C204  0.703930  0.478060  0.916840  0.084245
    C   C205  0.668620  0.426170  0.879460  -0.157227
    C   C206  0.640030  0.370150  0.876030  -0.178329
    C   C207  0.737100  0.536580  0.920980  0.107586
    C   C208  0.794170  0.567090  0.944150  -0.149632
    C   C209  0.825560  0.621730  0.947110  -0.181987
    C   C210  0.800100  0.646160  0.926930  0.209898
    C   C211  0.743150  0.615940  0.903970  -0.167017
    C   C212  0.711720  0.561300  0.900980  -0.161403
    C   C213  0.832350  0.702250  0.929790  -0.035982
    C   C214  0.858790  0.749260  0.931980  -0.301783
    H   H105  0.685850  0.414510  0.973470  0.122968
    H   H106  0.735930  0.513560  0.979460  0.118882
    H   H107  0.664260  0.429150  0.853270  0.125887
    H   H108  0.613750  0.330200  0.847210  0.118999
    H   H109  0.814110  0.548200  0.959550  0.116395
    H   H110  0.869580  0.644900  0.964960  0.149090
    H   H111  0.723230  0.634690  0.888380  0.136884
    H   H112  0.667700  0.538150  0.883100  0.117779
    C   C215  0.238420  0.098610  0.965430  -0.001633
    C   C216  0.290890  0.148300  0.997920  -0.113321
    C   C217  0.335440  0.161790  0.996240  -0.197077
    C   C218  0.327960  0.125770  0.962130  0.110006
    C   C219  0.276420  0.073540  0.931090  -0.171849
    C   C220  0.231860  0.059910  0.932760  -0.086118
    C   C221  0.372140  0.146410  0.956830  0.127701
    C   C222  0.391860  0.199930  0.954990  -0.157412
    C   C223  0.431030  0.217630  0.947220  -0.201956
    C   C224  0.450720  0.181970  0.941170  0.264073
    C   C225  0.431730  0.128930  0.943570  -0.173968
    C   C226  0.392540  0.111180  0.951400  -0.205468
    C   C227  0.489590  0.199280  0.931740  -0.188947
    C   C228  0.522050  0.214180  0.923770  -0.139490
    H   H113  0.296840  0.177970  0.023680  0.133305
    H   H114  0.375340  0.201580  0.020730  0.107263
    H   H115  0.270420  0.044880  0.904920  0.101843
    H   H116  0.191980  0.020250  0.908120  0.126565
    H   H117  0.376100  0.227230  0.958880  0.126367
    H   H118  0.445620  0.258730  0.945480  0.140854
    H   H119  0.446930  0.101240  0.939040  0.135237
    H   H120  0.377660  0.069860  0.952850  0.133764
