# generated using pymatgen
data_Zn3H29C55NO14
_symmetry_space_group_name_H-M   'P 1'
_cell_length_a   30.16825000
_cell_length_b   28.37376000
_cell_length_c   36.70006000
_cell_angle_alpha   89.94323000
_cell_angle_beta   89.93646000
_cell_angle_gamma   90.76245000
_symmetry_Int_Tables_number   1
_chemical_formula_structural   Zn3H29C55NO14
_chemical_formula_sum   'Zn12 H116 C220 N4 O56'
_cell_volume   31411.94602961
_cell_formula_units_Z   4
loop_
 _symmetry_equiv_pos_site_id
 _symmetry_equiv_pos_as_xyz
  1  'x, y, z'
loop_
 _atom_site_type_symbol
 _atom_site_label
 _atom_site_symmetry_multiplicity
 _atom_site_fract_x
 _atom_site_fract_y
 _atom_site_fract_z
 _atom_site_occupancy
  Zn  Zn1  1  0.55684000  0.50343000  0.99659000  1
  Zn  Zn2  1  0.59377000  0.46145000  0.93098000  1
  Zn  Zn3  1  0.28028000  0.24731000  0.97083000  1
  Zn  Zn4  1  0.26444000  0.33991000  0.00438000  1
  Zn  Zn5  1  0.80231000  0.80049000  0.98469000  1
  Zn  Zn6  1  0.83474000  0.73376000  0.03946000  1
  Zn  Zn7  1  0.25825000  0.74421000  0.01375000  1
  Zn  Zn8  1  0.33194000  0.78235000  0.06025000  1
  Zn  Zn9  1  0.74196000  0.21096000  0.00875000  1
  Zn  Zn10  1  0.68927000  0.13927000  0.96663000  1
  Zn  Zn11  1  0.03963000  0.04526000  0.02195000  1
  Zn  Zn12  1  0.08802000  0.02603000  0.09004000  1
  H  H1  1  0.45708000  0.06681000  0.34978000  1
  H  H2  1  0.57951000  0.99086000  0.34684000  1
  H  H3  1  0.55872000  0.91309000  0.61493000  1
  H  H4  1  0.43214000  0.98078000  0.61967000  1
  H  H5  1  0.56089000  0.09965000  0.47223000  1
  H  H6  1  0.55601000  0.07885000  0.53696000  1
  H  H7  1  0.45458000  0.89647000  0.42846000  1
  H  H8  1  0.44975000  0.87564000  0.49321000  1
  H  H9  1  0.49179000  0.92814000  0.71778000  1
  H  H10  1  0.52968000  0.05555000  0.24921000  1
  H  H11  1  0.93625000  0.44258000  0.37233000  1
  H  H12  1  0.03265000  0.55539000  0.37994000  1
  H  H13  1  0.01967000  0.56008000  0.65593000  1
  H  H14  1  0.92269000  0.44762000  0.65071000  1
  H  H15  1  0.89517000  0.57830000  0.47773000  1
  H  H16  1  0.89333000  0.58115000  0.54449000  1
  H  H17  1  0.06076000  0.42065000  0.48491000  1
  H  H18  1  0.05893000  0.42351000  0.55167000  1
  H  H19  1  0.96526000  0.50136000  0.75483000  1
  H  H20  1  0.99444000  0.50118000  0.27486000  1
  H  H21  1  0.85801000  0.13935000  0.95149000  1
  H  H22  1  0.93851000  0.12550000  0.94646000  1
  H  H23  1  0.80595000  0.05523000  0.98539000  1
  H  H24  1  0.89211000  0.06417000  0.00612000  1
  H  H25  1  0.96594000  0.39700000  0.74643000  1
  H  H26  1  0.91780000  0.34538000  0.78397000  1
  H  H27  1  0.80253000  0.41568000  0.74241000  1
  H  H28  1  0.85081000  0.46777000  0.70521000  1
  H  H29  1  0.84576000  0.28215000  0.76860000  1
  H  H30  1  0.80598000  0.23606000  0.81583000  1
  H  H31  1  0.76520000  0.36489000  0.86726000  1
  H  H32  1  0.80531000  0.41102000  0.82032000  1
  H  H33  1  0.80442000  0.33198000  0.07598000  1
  H  H34  1  0.83491000  0.37063000  0.13075000  1
  H  H35  1  0.83101000  0.23788000  0.18790000  1
  H  H36  1  0.80088000  0.19888000  0.13311000  1
  H  H37  1  0.79856000  0.37695000  0.20325000  1
  H  H38  1  0.83370000  0.42113000  0.25373000  1
  H  H39  1  0.94835000  0.33266000  0.24643000  1
  H  H40  1  0.91346000  0.28872000  0.19574000  1
  H  H41  1  0.19394000  0.87424000  0.99621000  1
  H  H42  1  0.13664000  0.93248000  0.98223000  1
  H  H43  1  0.26746000  0.91921000  0.04304000  1
  H  H44  1  0.20281000  0.97109000  0.03871000  1
  H  H45  1  0.23491000  0.74855000  0.88266000  1
  H  H46  1  0.19446000  0.71884000  0.82883000  1
  H  H47  1  0.09193000  0.66211000  0.89869000  1
  H  H48  1  0.13192000  0.69222000  0.95255000  1
  H  H49  1  0.17191000  0.62066000  0.81492000  1
  H  H50  1  0.13080000  0.57889000  0.76628000  1
  H  H51  1  0.01766000  0.66656000  0.78563000  1
  H  H52  1  0.05882000  0.70860000  0.83413000  1
  H  H53  1  0.99643000  0.60438000  0.28029000  1
  H  H54  1  0.04838000  0.64965000  0.24135000  1
  H  H55  1  0.15849000  0.57945000  0.29160000  1
  H  H56  1  0.10641000  0.53350000  0.33006000  1
  H  H57  1  0.12252000  0.71039000  0.25117000  1
  H  H58  1  0.16721000  0.74581000  0.20148000  1
  H  H59  1  0.20350000  0.60714000  0.16526000  1
  H  H60  1  0.15847000  0.57166000  0.21457000  1
  H  H61  1  0.92942000  0.84936000  0.06680000  1
  H  H62  1  0.98758000  0.90232000  0.09449000  1
  H  H63  1  0.94002000  0.85385000  0.98354000  1
  H  H64  1  0.97422000  0.92342000  0.01313000  1
  H  H65  1  0.73604000  0.89494000  0.90064000  1
  H  H66  1  0.69815000  0.91140000  0.84268000  1
  H  H67  1  0.75880000  0.78987000  0.79424000  1
  H  H68  1  0.79680000  0.77322000  0.85217000  1
  H  H69  1  0.66342000  0.79058000  0.78819000  1
  H  H70  1  0.60895000  0.80636000  0.73973000  1
  H  H71  1  0.67107000  0.94155000  0.71977000  1
  H  H72  1  0.72579000  0.92571000  0.76809000  1
  H  H73  1  0.57581000  0.92938000  0.28392000  1
  H  H74  1  0.63052000  0.89671000  0.24116000  1
  H  H75  1  0.67893000  0.03705000  0.21746000  1
  H  H76  1  0.62417000  0.06975000  0.26027000  1
  H  H77  1  0.65307000  0.98308000  0.15378000  1
  H  H78  1  0.69390000  0.94364000  0.10437000  1
  H  H79  1  0.76637000  0.86380000  0.18390000  1
  H  H80  1  0.72580000  0.90346000  0.23340000  1
  H  H81  1  0.16455000  0.23341000  0.04719000  1
  H  H82  1  0.11386000  0.17822000  0.08509000  1
  H  H83  1  0.12975000  0.24553000  0.96789000  1
  H  H84  1  0.09115000  0.18290000  0.00138000  1
  H  H85  1  0.26197000  0.20619000  0.84417000  1
  H  H86  1  0.27680000  0.15420000  0.79188000  1
  H  H87  1  0.34999000  0.06133000  0.86199000  1
  H  H88  1  0.33398000  0.11257000  0.91448000  1
  H  H89  1  0.30531000  0.01069000  0.80990000  1
  H  H90  1  0.34187000  0.96529000  0.76124000  1
  H  H91  1  0.39475000  0.09420000  0.71559000  1
  H  H92  1  0.35939000  0.13950000  0.76467000  1
  H  H93  1  0.28232000  0.29596000  0.11583000  1
  H  H94  1  0.30770000  0.26247000  0.17411000  1
  H  H95  1  0.34028000  0.13302000  0.11948000  1
  H  H96  1  0.31467000  0.16626000  0.06129000  1
  H  H97  1  0.39533000  0.23586000  0.18676000  1
  H  H98  1  0.43967000  0.19983000  0.23555000  1
  H  H99  1  0.35020000  0.08025000  0.23768000  1
  H  H100  1  0.30529000  0.11661000  0.18925000  1
  H  H101  1  0.45842000  0.38606000  0.98260000  1
  H  H102  1  0.41577000  0.30789000  0.96672000  1
  H  H103  1  0.45317000  0.43656000  0.90662000  1
  H  H104  1  0.38078000  0.39763000  0.92960000  1
  H  H105  1  0.43125000  0.60381000  0.98956000  1
  H  H106  1  0.35973000  0.64368000  0.98433000  1
  H  H107  1  0.47127000  0.60215000  0.06785000  1
  H  H108  1  0.40448000  0.65186000  0.06233000  1
  H  H109  1  0.65531000  0.29324000  0.04267000  1
  H  H110  1  0.64242000  0.37950000  0.04443000  1
  H  H111  1  0.58132000  0.24353000  0.99933000  1
  H  H112  1  0.56706000  0.32733000  0.00459000  1
  H  H113  1  0.75332000  0.61828000  0.99486000  1
  H  H114  1  0.71553000  0.54570000  0.97026000  1
  H  H115  1  0.68745000  0.70102000  0.98534000  1
  H  H116  1  0.64873000  0.62284000  0.98905000  1
  C  C1  1  0.59903000  0.41465000  0.00449000  1
  C  C2  1  0.50145000  0.45542000  0.94527000  1
  C  C3  1  0.64289000  0.53252000  0.96858000  1
  C  C4  1  0.50346000  0.56704000  0.02091000  1
  C  C5  1  0.28728000  0.25556000  0.04898000  1
  C  C6  1  0.34739000  0.31931000  0.96947000  1
  C  C7  1  0.19291000  0.27791000  0.98591000  1
  C  C8  1  0.29298000  0.19694000  0.91297000  1
  C  C9  1  0.51794000  0.02790000  0.35250000  1
  C  C10  1  0.48558000  0.05445000  0.33472000  1
  C  C11  1  0.48996000  0.06455000  0.29753000  1
  C  C12  1  0.52667000  0.04825000  0.27814000  1
  C  C13  1  0.55901000  0.02158000  0.29580000  1
  C  C14  1  0.55469000  0.01160000  0.33306000  1
  C  C15  1  0.49246000  0.97542000  0.40056000  1
  C  C16  1  0.48905000  0.96302000  0.43761000  1
  C  C17  1  0.50675000  0.99362000  0.46408000  1
  C  C18  1  0.52733000  0.03614000  0.45336000  1
  C  C19  1  0.53015000  0.04728000  0.41605000  1
  C  C20  1  0.46844000  0.92046000  0.44850000  1
  C  C21  1  0.46571000  0.90857000  0.48543000  1
  C  C22  1  0.48348000  0.93906000  0.51207000  1
  C  C23  1  0.50397000  0.98163000  0.50134000  1
  C  C24  1  0.52171000  0.01221000  0.52780000  1
  C  C25  1  0.54496000  0.06670000  0.48000000  1
  C  C26  1  0.54219000  0.05483000  0.51692000  1
  C  C27  1  0.48107000  0.92771000  0.54938000  1
  C  C28  1  0.51862000  0.99967000  0.56481000  1
  C  C29  1  0.49490000  0.94637000  0.61289000  1
  C  C30  1  0.45846000  0.96185000  0.63315000  1
  C  C31  1  0.45741000  0.95542000  0.67097000  1
  C  C32  1  0.49214000  0.93218000  0.68836000  1
  C  C33  1  0.52883000  0.91720000  0.66829000  1
  C  C34  1  0.52996000  0.92373000  0.63048000  1
  C  C35  1  0.78598000  0.82063000  0.06038000  1
  C  C36  1  0.75592000  0.71381000  0.99794000  1
  C  C37  1  0.89179000  0.80517000  0.00979000  1
  C  C38  1  0.78597000  0.81848000  0.91666000  1
  C  C39  1  0.25340000  0.73379000  0.09188000  1
  C  C40  1  0.34141000  0.69667000  0.02078000  1
  C  C41  1  0.26647000  0.84332000  0.02926000  1
  C  C42  1  0.21235000  0.73639000  0.95400000  1
  C  C43  1  0.98399000  0.49897000  0.38044000  1
  C  C44  1  0.95860000  0.46757000  0.35920000  1
  C  C45  1  0.96234000  0.46848000  0.32111000  1
  C  C46  1  0.99133000  0.50075000  0.30432000  1
  C  C47  1  0.01670000  0.53219000  0.32541000  1
  C  C48  1  0.01303000  0.53124000  0.36350000  1
  C  C49  1  0.00880000  0.47013000  0.43920000  1
  C  C50  1  0.00794000  0.47095000  0.47758000  1
  C  C51  1  0.97759000  0.50011000  0.49547000  1
  C  C52  1  0.94835000  0.52768000  0.47499000  1
  C  C53  1  0.95022000  0.52594000  0.43665000  1
  C  C54  1  0.03715000  0.44336000  0.49824000  1
  C  C55  1  0.03613000  0.44501000  0.53633000  1
  C  C56  1  0.00582000  0.47423000  0.55441000  1
  C  C57  1  0.97655000  0.50177000  0.53393000  1
  C  C58  1  0.94623000  0.53096000  0.55183000  1
  C  C59  1  0.91798000  0.55682000  0.49307000  1
  C  C60  1  0.91695000  0.55847000  0.53117000  1
  C  C61  1  0.00414000  0.47618000  0.59274000  1
  C  C62  1  0.94554000  0.53197000  0.59021000  1
  C  C63  1  0.97124000  0.50411000  0.64901000  1
  C  C64  1  0.94276000  0.47192000  0.66666667  1
  C  C65  1  0.94071000  0.47077000  0.70483000  1
  C  C66  1  0.96691000  0.50216000  0.72530000  1
  C  C67  1  0.99537000  0.53434000  0.70777000  1
  C  C68  1  0.99754000  0.53537000  0.66961000  1
  C  C69  1  0.73335000  0.22290000  0.93114000  1
  C  C70  1  0.77848000  0.12274000  0.98792000  1
  C  C71  1  0.64712000  0.21202000  0.00643000  1
  C  C72  1  0.78155000  0.23946000  0.06784000  1
  C  C73  1  0.12040000  0.99251000  0.01803000  1
  C  C74  1  0.08954000  0.11816000  0.05780000  1
  C  C75  1  0.01678000  0.96542000  0.06755000  1
  C  C76  1  0.97612000  0.08967000  0.98976000  1
  C  C77  1  0.93583000  0.10363000  0.97070000  1
  C  C78  1  0.89434000  0.09001000  0.98426000  1
  C  C79  1  0.85584000  0.11033000  0.97085000  1
  C  C80  1  0.81190000  0.09298000  0.98298000  1
  C  C81  1  0.91169000  0.43621000  0.72353000  1
  C  C82  1  0.93029000  0.40092000  0.74527000  1
  C  C83  1  0.90302000  0.37159000  0.76645000  1
  C  C84  1  0.85687000  0.37722000  0.76600000  1
  C  C85  1  0.83814000  0.41131000  0.74317000  1
  C  C86  1  0.86547000  0.44070000  0.72200000  1
  C  C87  1  0.82859000  0.34977000  0.79137000  1
  C  C88  1  0.82793000  0.30032000  0.78991000  1
  C  C89  1  0.80533000  0.27423000  0.81661000  1
  C  C90  1  0.78314000  0.29739000  0.84484000  1
  C  C91  1  0.78235000  0.34675000  0.84555000  1
  C  C92  1  0.80499000  0.37288000  0.81892000  1
  C  C93  1  0.76446000  0.27071000  0.87468000  1
  C  C94  1  0.74973000  0.24871000  0.90018000  1
  C  C95  1  0.80033000  0.26263000  0.10058000  1
  C  C96  1  0.81009000  0.31122000  0.10028000  1
  C  C97  1  0.82725000  0.33322000  0.13139000  1
  C  C98  1  0.83485000  0.30696000  0.16314000  1
  C  C99  1  0.82525000  0.25845000  0.16351000  1
  C  C100  1  0.80813000  0.23636000  0.13240000  1
  C  C101  1  0.85381000  0.33014000  0.19571000  1
  C  C102  1  0.83110000  0.36697000  0.21275000  1
  C  C103  1  0.85091000  0.39183000  0.24148000  1
  C  C104  1  0.89345000  0.37996000  0.25342000  1
  C  C105  1  0.91543000  0.34201000  0.23738000  1
  C  C106  1  0.89570000  0.31716000  0.20863000  1
  C  C107  1  0.91659000  0.41005000  0.27890000  1
  C  C108  1  0.93687000  0.43614000  0.29898000  1
  C  C109  1  0.14942000  0.95563000  0.00347000  1
  C  C110  1  0.18871000  0.94663000  0.01893000  1
  C  C111  1  0.21068000  0.90117000  0.01243000  1
  C  C112  1  0.24920000  0.89152000  0.02885000  1
  C  C113  1  0.18659000  0.72197000  0.92152000  1
  C  C114  1  0.20359000  0.73004000  0.88634000  1
  C  C115  1  0.18072000  0.71309000  0.85578000  1
  C  C116  1  0.14058000  0.68814000  0.86008000  1
  C  C117  1  0.12294000  0.68128000  0.89510000  1
  C  C118  1  0.14576000  0.69815000  0.92565000  1
  C  C119  1  0.11805000  0.66720000  0.82813000  1
  C  C120  1  0.13851000  0.63125000  0.80825000  1
  C  C121  1  0.11522000  0.60758000  0.78070000  1
  C  C122  1  0.07138000  0.61973000  0.77281000  1
  C  C123  1  0.05153000  0.65692000  0.79161000  1
  C  C124  1  0.07478000  0.68062000  0.81916000  1
  C  C125  1  0.04526000  0.59079000  0.74848000  1
  C  C126  1  0.02286000  0.56561000  0.72922000  1
  C  C127  1  0.04783000  0.56531000  0.30743000  1
  C  C128  1  0.03179000  0.59926000  0.28312000  1
  C  C129  1  0.06122000  0.62499000  0.26113000  1
  C  C130  1  0.10698000  0.61715000  0.26339000  1
  C  C131  1  0.12318000  0.58530000  0.28931000  1
  C  C132  1  0.09370000  0.55942000  0.31121000  1
  C  C133  1  0.13727000  0.63855000  0.23623000  1
  C  C134  1  0.14034000  0.68777000  0.23261000  1
  C  C135  1  0.16567000  0.70782000  0.20449000  1
  C  C136  1  0.18815000  0.67882000  0.17993000  1
  C  C137  1  0.18612000  0.62976000  0.18412000  1
  C  C138  1  0.16076000  0.60967000  0.21213000  1
  C  C139  1  0.21146000  0.69917000  0.14934000  1
  C  C140  1  0.23072000  0.71539000  0.12330000  1
  C  C141  1  0.98955000  0.92200000  0.06911000  1
  C  C142  1  0.96969000  0.90516000  0.03899000  1
  C  C143  1  0.94121000  0.86220000  0.04054000  1
  C  C144  1  0.92776000  0.84100000  0.00964000  1
  C  C145  1  0.76825000  0.83222000  0.88080000  1
  C  C146  1  0.74149000  0.87213000  0.87746000  1
  C  C147  1  0.72008000  0.88156000  0.84456000  1
  C  C148  1  0.72541000  0.85136000  0.81465000  1
  C  C149  1  0.75404000  0.81300000  0.81735000  1
  C  C150  1  0.77544000  0.80350000  0.85023000  1
  C  C151  1  0.69789000  0.85741000  0.78187000  1
  C  C152  1  0.66571000  0.82319000  0.77287000  1
  C  C153  1  0.63489000  0.83211000  0.74541000  1
  C  C154  1  0.63605000  0.87522000  0.72678000  1
  C  C155  1  0.66984000  0.90821000  0.73420000  1
  C  C156  1  0.70071000  0.89934000  0.76165000  1
  C  C157  1  0.59912000  0.88849000  0.70447000  1
  C  C158  1  0.56740000  0.90080000  0.68718000  1
  C  C159  1  0.59592000  0.00182000  0.27470000  1
  C  C160  1  0.59871000  0.95291000  0.26990000  1
  C  C161  1  0.62967000  0.93442000  0.24567000  1
  C  C162  1  0.65811000  0.96469000  0.22606000  1
  C  C163  1  0.65678000  0.01345000  0.23219000  1
  C  C164  1  0.62581000  0.03195000  0.25645000  1
  C  C165  1  0.68638000  0.94568000  0.19697000  1
  C  C166  1  0.67823000  0.95759000  0.16048000  1
  C  C167  1  0.70128000  0.93520000  0.13250000  1
  C  C168  1  0.73259000  0.90082000  0.14083000  1
  C  C169  1  0.74205000  0.89023000  0.17728000  1
  C  C170  1  0.71905000  0.91263000  0.20530000  1
  C  C171  1  0.75210000  0.87359000  0.11211000  1
  C  C172  1  0.76781000  0.84989000  0.08828000  1
  C  C173  1  0.10509000  0.16266000  0.05896000  1
  C  C174  1  0.11110000  0.19100000  0.02530000  1
  C  C175  1  0.14330000  0.22695000  0.02374000  1
  C  C176  1  0.15097000  0.25189000  0.99134000  1
  C  C177  1  0.29768000  0.16341000  0.88279000  1
  C  C178  1  0.28089000  0.17442000  0.84821000  1
  C  C179  1  0.28920000  0.14492000  0.81860000  1
  C  C180  1  0.31500000  0.10455000  0.82318000  1
  C  C181  1  0.33004000  0.09240000  0.85812000  1
  C  C182  1  0.32114000  0.12157000  0.88784000  1
  C  C183  1  0.33046000  0.07818000  0.79103000  1
  C  C184  1  0.32452000  0.02906000  0.78922000  1
  C  C185  1  0.34498000  0.00338000  0.76153000  1
  C  C186  1  0.37109000  0.02670000  0.73535000  1
  C  C187  1  0.37471000  0.07595000  0.73582000  1
  C  C188  1  0.35465000  0.10161000  0.76361000  1
  C  C189  1  0.39926000  0.00016000  0.71160000  1
  C  C190  1  0.42477000  0.97910000  0.69255000  1
  C  C191  1  0.29752000  0.23377000  0.08435000  1
  C  C192  1  0.29478000  0.26033000  0.11653000  1
  C  C193  1  0.30898000  0.24130000  0.14959000  1
  C  C194  1  0.32623000  0.19565000  0.15074000  1
  C  C195  1  0.32701000  0.16830000  0.11889000  1
  C  C196  1  0.31259000  0.18721000  0.08588000  1
  C  C197  1  0.34770000  0.17833000  0.18417000  1
  C  C198  1  0.38481000  0.20239000  0.19832000  1
  C  C199  1  0.40994000  0.18196000  0.22594000  1
  C  C200  1  0.39826000  0.13734000  0.23952000  1
  C  C201  1  0.35961000  0.11464000  0.22712000  1
  C  C202  1  0.33428000  0.13513000  0.19959000  1
  C  C203  1  0.42923000  0.11209000  0.26169000  1
  C  C204  1  0.45635000  0.09060000  0.27882000  1
  C  C205  1  0.38936000  0.33329000  0.96350000  1
  C  C206  1  0.40101000  0.38127000  0.95047000  1
  C  C207  1  0.44034000  0.40052000  0.95959000  1
  C  C208  1  0.46341000  0.43444000  0.93497000  1
  C  C209  1  0.36560000  0.65970000  0.01084000  1
  C  C210  1  0.40209000  0.64185000  0.03379000  1
  C  C211  1  0.43386000  0.61272000  0.01830000  1
  C  C212  1  0.46921000  0.59536000  0.03876000  1
  C  C213  1  0.61433000  0.37459000  0.02625000  1
  C  C214  1  0.59750000  0.33132000  0.02027000  1
  C  C215  1  0.62386000  0.28911000  0.02845000  1
  C  C216  1  0.61312000  0.24767000  0.01297000  1
  C  C217  1  0.68334000  0.56136000  0.97500000  1
  C  C218  1  0.68089000  0.60658000  0.98556000  1
  C  C219  1  0.72159000  0.63544000  0.99131000  1
  C  C220  1  0.71903000  0.68469000  0.99135000  1
  N  N1  1  0.51315000  0.01680000  0.39048000  1
  N  N2  1  0.49841000  0.95803000  0.57491000  1
  N  N3  1  0.98056000  0.49789000  0.41954000  1
  N  N4  1  0.97399000  0.50445000  0.60987000  1
  O  O1  1  0.60400000  0.54723000  0.97959000  1
  O  O2  1  0.58965000  0.40844000  0.96971000  1
  O  O3  1  0.64594000  0.49204000  0.95174000  1
  O  O4  1  0.51153000  0.45882000  0.97986000  1
  O  O5  1  0.53054000  0.46898000  0.92075000  1
  O  O6  1  0.50470000  0.56222000  0.98579000  1
  O  O7  1  0.59406000  0.45615000  0.01985000  1
  O  O8  1  0.52942000  0.53964000  0.03915000  1
  O  O9  1  0.21944000  0.26543000  0.95955000  1
  O  O10  1  0.29580000  0.30073000  0.04383000  1
  O  O11  1  0.20710000  0.30782000  0.01057000  1
  O  O12  1  0.33905000  0.27478000  0.97644000  1
  O  O13  1  0.31525000  0.35010000  0.97133000  1
  O  O14  1  0.29495000  0.24217000  0.90785000  1
  O  O15  1  0.27210000  0.22927000  0.02207000  1
  O  O16  1  0.28539000  0.18334000  0.94611000  1
  O  O17  1  0.54946000  0.08700000  0.40560000  1
  O  O18  1  0.47596000  0.94707000  0.37542000  1
  O  O19  1  0.46202000  0.88786000  0.55985000  1
  O  O20  1  0.53509000  0.02809000  0.58994000  1
  O  O21  1  0.86713000  0.79971000  0.98075000  1
  O  O22  1  0.78912000  0.77500000  0.06605000  1
  O  O23  1  0.88177000  0.78188000  0.03963000  1
  O  O24  1  0.75183000  0.75950000  0.99483000  1
  O  O25  1  0.79365000  0.69624000  0.00918000  1
  O  O26  1  0.79693000  0.77533000  0.92366000  1
  O  O27  1  0.79711000  0.83916000  0.02874000  1
  O  O28  1  0.78462000  0.84632000  0.94462000  1
  O  O29  1  0.23895000  0.80710000  0.02821000  1
  O  O30  1  0.27897000  0.77137000  0.09494000  1
  O  O31  1  0.30901000  0.83683000  0.03428000  1
  O  O32  1  0.31238000  0.71381000  0.99789000  1
  O  O33  1  0.34778000  0.71699000  0.05249000  1
  O  O34  1  0.24698000  0.76394000  0.95174000  1
  O  O35  1  0.25011000  0.71156000  0.06061000  1
  O  O36  1  0.20574000  0.71709000  0.98556000  1
  O  O37  1  0.92299000  0.55167000  0.41712000  1
  O  O38  1  0.03713000  0.44293000  0.42208000  1
  O  O39  1  0.03142000  0.45049000  0.61227000  1
  O  O40  1  0.91726000  0.55922000  0.60734000  1
  O  O41  1  0.68136000  0.20894000  0.02826000  1
  O  O42  1  0.72546000  0.17732000  0.92833000  1
  O  O43  1  0.64626000  0.18795000  0.97600000  1
  O  O44  1  0.78620000  0.16830000  0.98968000  1
  O  O45  1  0.73773000  0.10642000  0.99038000  1
  O  O46  1  0.77004000  0.19518000  0.06760000  1
  O  O47  1  0.73053000  0.24412000  0.96287000  1
  O  O48  1  0.77180000  0.26285000  0.03865000  1
  O  O49  1  0.00148000  0.00316000  0.05141000  1
  O  O50  1  0.13187000  0.01579000  0.04765000  1
  O  O51  1  0.05555000  0.96686000  0.08359000  1
  O  O52  1  0.08196000  0.09747000  0.02641000  1
  O  O53  1  0.08336000  0.09462000  0.08823000  1
  O  O54  1  0.98334000  0.10197000  0.02328000  1
  O  O55  1  0.08083000  0.99798000  0.00379000  1
  O  O56  1  0.00131000  0.05684000  0.97725000  1
