# Generated by REPEAT Assigner based on pymatgen
data_DB7-ddmof_3869
_audit_creation_date              2022-05-24
_audit_creation_method            REPEAT_Assigner
_cell_length_a                    20.703340
_cell_length_b                    21.417760
_cell_length_c                    39.659620
_cell_angle_alpha                 60.697080
_cell_angle_beta                  119.063140
_cell_angle_gamma                 133.297000
_cell_volume                      10844.635057
_symmetry_space_group_name_H-M    P1
_symmetry_Int_Tables_number       1
loop_
    _symmetry_equiv_pos_site_id
    _symmetry_equiv_pos_as_xyz
    1  x,y,z
loop_
    _atom_site_type_symbol
    _atom_site_label
    _atom_site_fract_x
    _atom_site_fract_y
    _atom_site_fract_z
    _atom_type_partial_charge
    C   C1    0.011850  0.007310  0.204930  0.893817
    C   C2    0.072470  0.225500  0.103250  1.142978
    C   C3    0.185660  0.867040  0.130270  0.949924
    C   C4    0.012800  0.984730  0.709370  0.956579
    C   C5    0.114160  0.226570  0.619110  0.993021
    C   C6    0.071850  0.766240  0.620750  0.929712
    C   C7    0.059080  0.937920  0.894810  -0.102904
    C   C8    0.058560  0.933980  0.931010  -0.028460
    C   C9    0.093830  0.029130  0.807440  -0.068663
    C   C10   0.098540  0.025140  0.774380  -0.021436
    C   C11   0.021170  0.961580  0.752680  -0.155185
    C   C12   0.042060  0.066350  0.359240  -0.201044
    C   C13   0.045530  0.071480  0.394310  0.069687
    C   C14   0.050770  0.966980  0.280610  -0.096968
    C   C15   0.046420  0.964070  0.315940  -0.147608
    C   C16   0.118700  0.618210  0.639860  -0.246191
    C   C17   0.073340  0.637300  0.646170  0.156516
    C   C18   0.118600  0.723020  0.648210  -0.218616
    C   C19   0.165080  0.721900  0.165950  0.051448
    C   C20   0.031800  0.991460  0.464940  0.875470
    C   C21   0.189370  0.315240  0.625970  -0.069467
    C   C22   0.142740  0.310860  0.114560  -0.234746
    C   C23   0.189740  0.668800  0.172190  -0.148428
    C   C24   0.156340  0.387780  0.084930  0.059871
    C   C25   0.166680  0.310590  0.154510  0.028809
    C   C26   0.012230  0.965420  0.820790  0.097078
    C   C27   0.009940  0.962800  0.858710  0.010534
    C   C28   0.178940  0.457740  0.093850  -0.201008
    C   C29   0.007290  0.955140  0.931690  -0.018933
    C   C30   0.184380  0.377900  0.163300  -0.163350
    C   C31   0.994860  0.982550  0.243720  -0.055766
    C   C32   0.996040  0.993370  0.421960  -0.109803
    C   C33   0.990280  0.983780  0.351570  0.090875
    C   C34   0.988890  0.979360  0.314630  0.114393
    C   C35   0.216770  0.326310  0.664050  -0.141043
    C   C36   0.238790  0.401500  0.667680  -0.097924
    C   C37   0.223880  0.814850  0.153290  -0.180917
    C   C38   0.310290  0.853610  0.150080  -0.088090
    C   C39   0.714890  0.273610  0.028360  0.084757
    C   C40   0.771740  0.363780  0.028760  -0.169468
    C   C41   0.745830  0.393390  0.041360  0.151701
    C   C42   0.659730  0.337420  0.048610  -0.203740
    C   C43   0.599830  0.250870  0.044990  0.001746
    C   C44   0.629660  0.216540  0.038150  -0.155155
    C   C45   0.725140  0.288570  0.523230  -0.034208
    C   C46   0.763750  0.377800  0.517220  -0.133104
    C   C47   0.716190  0.398640  0.520590  0.120664
    C   C48   0.627960  0.331990  0.526400  -0.184637
    C   C49   0.592110  0.243460  0.535300  0.038682
    C   C50   0.640070  0.221350  0.533410  -0.116355
    C   C51   0.294680  0.654850  0.163890  0.123294
    C   C52   0.229900  0.578030  0.148730  -0.195861
    C   C53   0.260000  0.538130  0.146070  0.130359
    C   C54   0.353050  0.577460  0.155920  -0.211960
    C   C55   0.416770  0.656220  0.167720  0.068231
    C   C56   0.387910  0.689180  0.175990  -0.218033
    C   C57   0.267700  0.655680  0.642490  -0.075751
    C   C58   0.350290  0.727420  0.630060  -0.078419
    C   C59   0.402180  0.711570  0.626570  0.030420
    C   C60   0.367260  0.625550  0.630730  -0.091306
    C   C61   0.281800  0.554670  0.638770  -0.000516
    C   C62   0.235350  0.568220  0.648220  -0.076984
    C   C63   0.943560  0.716620  0.077830  0.767683
    C   C64   0.230210  0.085430  0.031980  0.945505
    C   C65   0.773530  0.858700  0.148520  0.788013
    C   C66   0.994030  0.936530  0.970520  0.684670
    C   C67   0.830060  0.089020  0.043630  0.870966
    C   C68   0.858750  0.725570  0.535970  0.841437
    C   C69   0.231920  0.024820  0.556190  0.919444
    C   C70   0.773230  0.883700  0.641040  0.889524
    C   C71   0.875180  0.126600  0.549050  1.032733
    C   C72   0.960040  0.985680  0.858800  0.009010
    C   C73   0.959000  0.981710  0.895290  -0.136299
    C   C74   0.942550  0.892740  0.768320  0.060321
    C   C75   0.937860  0.896140  0.801740  -0.214785
    C   C76   0.935660  0.906240  0.377710  -0.033902
    C   C77   0.935930  0.911980  0.411660  -0.107781
    C   C78   0.932260  0.993410  0.277960  -0.082046
    C   C79   0.934220  0.993220  0.243140  0.046472
    C   C80   0.238870  0.468180  0.633830  0.134147
    C   C81   0.221430  0.461240  0.596170  0.008449
    C   C82   0.201670  0.387030  0.592950  -0.067831
    C   C83   0.525160  0.797590  0.592990  -0.244434
    C   C84   0.498190  0.782220  0.624260  0.168548
    C   C85   0.564450  0.808880  0.659090  -0.181454
    C   C86   0.651970  0.836220  0.665080  0.050165
    C   C87   0.676450  0.842060  0.635670  -0.226582
    C   C88   0.613110  0.825030  0.598860  0.086304
    C   C89   0.262630  0.747810  0.662720  -0.273887
    C   C90   0.215460  0.672800  0.649210  0.272786
    C   C91   0.214830  0.775530  0.660330  0.035032
    C   C92   0.195860  0.454260  0.133610  0.177973
    C   C93   0.609740  0.790210  0.119810  -0.009351
    C   C94   0.679670  0.791670  0.152970  -0.168190
    C   C95   0.663120  0.749010  0.191420  0.058986
    C   C96   0.578560  0.709870  0.196310  -0.217230
    C   C97   0.510190  0.712280  0.163190  0.260422
    C   C98   0.526280  0.753410  0.124710  -0.244330
    C   C99   0.327780  0.801420  0.149630  -0.068422
    C   C100  0.268770  0.708470  0.161140  0.122212
    C   C101  0.728180  0.203950  0.498040  -0.234015
    C   C102  0.774710  0.264740  0.520310  0.271079
    C   C103  0.865360  0.295660  0.542520  -0.190761
    C   C104  0.906960  0.265400  0.541970  0.060635
    C   C105  0.854060  0.191520  0.527110  -0.295723
    C   C106  0.766400  0.165210  0.502250  0.068022
    C   C107  0.782530  0.495330  0.561810  -0.111618
    C   C108  0.762300  0.486770  0.524340  0.009816
    C   C109  0.760190  0.552380  0.490050  0.075634
    C   C110  0.778450  0.625380  0.493590  -0.187496
    C   C111  0.801910  0.635380  0.531240  -0.218692
    C   C112  0.795010  0.565460  0.564970  0.132105
    C   C113  0.428090  0.123310  0.518660  -0.056249
    C   C114  0.502930  0.174330  0.545650  0.119460
    C   C115  0.488620  0.173160  0.577410  -0.131339
    C   C116  0.399540  0.128270  0.579300  0.008382
    C   C117  0.324650  0.081010  0.550950  -0.061563
    C   C118  0.339300  0.076720  0.521090  -0.184531
    C   C119  0.840210  0.275150  0.030580  -0.287406
    C   C120  0.746670  0.238190  0.019840  0.151461
    C   C121  0.683780  0.164510  0.002750  -0.212898
    C   C122  0.712050  0.117220  0.006210  -0.029915
    C   C123  0.804940  0.151540  0.019970  -0.216805
    C   C124  0.868860  0.239420  0.024020  0.315513
    C   C125  0.797640  0.547650  0.020330  -0.128558
    C   C126  0.809280  0.481810  0.048820  0.119270
    C   C127  0.857170  0.490480  0.088200  -0.073334
    C   C128  0.888160  0.561700  0.099110  -0.104481
    C   C129  0.877720  0.628210  0.070560  -0.072921
    C   C130  0.828700  0.619040  0.031240  0.002874
    C   C131  0.354750  0.169170  0.000520  0.031841
    C   C132  0.328000  0.146360  0.033500  -0.256535
    C   C133  0.392410  0.160320  0.070210  0.123152
    C   C134  0.478190  0.184940  0.074840  -0.260268
    C   C135  0.502840  0.202030  0.042350  0.331595
    C   C136  0.440710  0.195150  0.004820  -0.219932
    Co  Co1   0.054540  0.016530  0.037510  1.265186
    Co  Co2   0.099510  0.890650  0.045630  1.210018
    Co  Co3   0.017620  0.090640  0.576790  1.277176
    Co  Co4   0.066780  0.016700  0.542390  1.269267
    Co  Co5   0.052990  0.861320  0.536460  1.320572
    Co  Co6   0.017450  0.863110  0.108390  1.228568
    Co  Co7   0.990950  0.079790  0.069910  1.271241
    Co  Co8   0.947750  0.924010  0.139530  1.235168
    Co  Co9   0.906350  0.056450  0.129640  1.266093
    Co  Co10  0.970710  0.839960  0.596060  1.221747
    Co  Co11  0.934370  0.917330  0.635310  1.224442
    Co  Co12  0.934090  0.069120  0.636200  1.292823
    H   H1    0.097850  0.920840  0.894930  0.180746
    H   H2    0.160690  0.075790  0.763790  0.149425
    H   H3    0.081380  0.126570  0.338510  0.186096
    H   H4    0.089990  0.952830  0.344090  0.162103
    H   H5    0.144890  0.391540  0.054520  0.089329
    H   H6    0.099800  0.690700  0.170210  0.126120
    H   H7    0.158170  0.551260  0.138300  0.133122
    H   H8    0.175450  0.511680  0.659960  0.121121
    H   H9    0.184170  0.380450  0.563730  0.139896
    H   H10   0.999510  0.593530  0.639920  0.087193
    H   H11   0.258900  0.409390  0.696950  0.138885
    H   H12   0.835300  0.410330  0.019520  0.113634
    H   H13   0.638010  0.362460  0.055830  0.102480
    H   H14   0.586450  0.146480  0.040050  0.118426
    H   H15   0.830840  0.430110  0.510970  0.138834
    H   H16   0.589700  0.348910  0.526960  0.118166
    H   H17   0.611710  0.152390  0.540050  0.082890
    H   H18   0.376180  0.549560  0.151780  0.129666
    H   H19   0.438520  0.746170  0.188650  0.120239
    H   H20   0.374920  0.794920  0.623860  0.090052
    H   H21   0.406600  0.613710  0.627150  0.103769
    H   H22   0.919080  0.997450  0.895180  0.186037
    H   H23   0.877240  0.843600  0.813440  0.187107
    H   H24   0.895770  0.851690  0.432110  0.162280
    H   H25   0.892190  0.006930  0.215060  0.065148
    H   H26   0.475090  0.779850  0.565490  0.198543
    H   H27   0.701790  0.854760  0.692460  0.163001
    H   H28   0.336220  0.786500  0.673510  0.205463
    H   H29   0.201080  0.376190  0.194090  0.145759
    H   H30   0.622680  0.823920  0.090280  0.166271
    H   H31   0.565330  0.675740  0.225770  0.168506
    H   H32   0.388580  0.833590  0.141030  0.140583
    H   H33   0.660470  0.183290  0.479180  0.167861
    H   H34   0.977080  0.290830  0.558330  0.124587
    H   H35   0.779060  0.442500  0.588030  0.174604
    H   H36   0.779860  0.677170  0.467190  0.222286
    H   H37   0.438770  0.123260  0.494480  0.141512
    H   H38   0.388620  0.127880  0.603530  0.158299
    H   H39   0.890830  0.332810  0.042680  0.181805
    H   H40   0.661910  0.053750  0.998720  0.162670
    H   H41   0.758140  0.539770  0.990310  0.145948
    H   H42   0.926220  0.568600  0.129320  0.156022
    H   H43   0.306450  0.161770  0.971770  0.118192
    H   H44   0.527580  0.195360  0.103210  0.165050
    N   N1    0.110100  0.907930  0.967040  0.682056
    N   N2    0.171820  0.098880  0.827030  0.612767
    N   N3    0.101370  0.156090  0.402140  0.619345
    N   N4    0.114320  0.957460  0.282340  0.689821
    N   N5    0.067030  0.555560  0.617090  0.581945
    N   N6    0.138210  0.576880  0.191970  0.621170
    N   N7    0.178880  0.245280  0.186280  0.623227
    N   N8    0.188020  0.533800  0.062630  0.687438
    N   N9    0.216880  0.258600  0.698960  0.688619
    N   N10   0.378610  0.947210  0.144720  0.705150
    N   N11   0.909750  0.012110  0.822160  0.640027
    N   N12   0.868450  0.818170  0.751150  0.627474
    N   N13   0.883810  0.821100  0.371230  0.562435
    N   N14   0.876040  0.012780  0.275500  0.640423
    N   N15   0.225770  0.530560  0.561240  0.502996
    N   N16   0.636690  0.833150  0.567810  0.609120
    N   N17   0.540740  0.801130  0.689990  0.646887
    N   N18   0.264400  0.858850  0.668080  0.677553
    N   N19   0.457510  0.757490  0.090500  0.673882
    N   N20   0.733370  0.748040  0.225670  0.657131
    N   N21   0.714470  0.096470  0.482760  0.654353
    N   N22   0.910940  0.348300  0.569470  0.566572
    N   N23   0.791100  0.560880  0.601260  0.543359
    N   N24   0.737540  0.544100  0.451450  0.575240
    N   N25   0.263980  0.026150  0.492730  0.766941
    N   N26   0.564700  0.219020  0.607310  0.677138
    N   N27   0.955270  0.297200  0.013740  0.445528
    N   N28   0.596200  0.144500  0.978120  0.722189
    N   N29   0.810650  0.682460  0.002220  0.652523
    N   N30   0.870690  0.424490  0.117650  0.629647
    N   N31   0.465580  0.216640  0.970720  0.648904
    N   N32   0.373880  0.156810  0.101690  0.651102
    O   O1    0.014290  0.075660  0.178000  -0.708076
    O   O2    0.042710  0.111650  0.027050  -0.507087
    O   O3    0.012450  0.955340  0.195760  -0.633185
    O   O4    0.133060  0.860420  0.143970  -0.661584
    O   O5    0.093480  0.190170  0.094170  -0.709134
    O   O6    0.049520  0.922950  0.064590  -0.703381
    O   O7    0.178180  0.020790  0.014770  -0.679827
    O   O8    0.027380  0.061790  0.687870  -0.705207
    O   O9    0.082960  0.124730  0.539040  -0.534981
    O   O10   0.029780  0.754390  0.584860  -0.774850
    O   O11   0.066510  0.811060  0.632060  -0.630326
    O   O12   0.031730  0.198700  0.614150  -0.814363
    O   O13   0.126440  0.184260  0.609890  -0.697572
    O   O14   0.024070  0.908550  0.558570  -0.707922
    O   O15   0.070790  0.824680  0.985690  -0.407068
    O   O16   0.165480  0.152320  0.829970  -0.315971
    O   O17   0.082610  0.213000  0.378600  -0.340784
    O   O18   0.184130  0.024640  0.266630  -0.343166
    O   O19   0.107270  0.884320  0.302860  -0.345389
    O   O20   0.001600  0.474160  0.629710  -0.327531
    O   O21   0.074860  0.583030  0.580990  -0.291333
    O   O22   0.083610  0.964600  0.486410  -0.777140
    O   O23   0.012040  0.015540  0.481630  -0.596514
    O   O24   0.178910  0.545050  0.224090  -0.331539
    O   O25   0.049700  0.526980  0.180080  -0.332697
    O   O26   0.000670  0.382550  0.006110  -0.322239
    O   O27   0.190110  0.238960  0.728580  -0.352036
    O   O28   0.028090  0.760710  0.077180  -0.698157
    O   O29   0.160550  0.217910  0.219980  -0.412907
    O   O30   0.004940  0.935390  0.694150  -0.644684
    O   O31   0.146350  0.563410  0.058660  -0.382880
    O   O32   0.187370  0.938550  0.564750  -0.661820
    O   O33   0.179840  0.559400  0.552810  -0.268500
    O   O34   0.175590  0.179320  0.430460  -0.347534
    O   O35   0.004620  0.996850  0.979210  -0.609990
    O   O36   0.194380  0.094000  0.047770  -0.690096
    O   O37   0.198830  0.962000  0.975000  -0.362413
    O   O38   0.203900  0.919080  0.095520  -0.695225
    O   O39   0.987290  0.186930  0.100500  -0.872520
    O   O40   0.246860  0.218780  0.701730  -0.343459
    O   O41   0.981460  0.266070  0.005990  -0.311016
    O   O42   0.202700  0.059870  0.560230  -0.724984
    O   O43   0.232610  0.569600  0.036530  -0.331152
    O   O44   0.422420  0.992020  0.117030  -0.410226
    O   O45   0.947900  0.015030  0.110770  -0.740619
    O   O46   0.969270  0.834060  0.152100  -0.494119
    O   O47   0.976670  0.955750  0.082690  -0.859945
    O   O48   0.824080  0.928950  0.161740  -0.689729
    O   O49   0.809700  0.842180  0.137080  -0.538890
    O   O50   0.989220  0.868010  0.998390  -0.504008
    O   O51   0.805900  0.036710  0.077620  -0.688894
    O   O52   0.882350  0.091060  0.032170  -0.588132
    O   O53   0.921540  0.745190  0.090650  -0.558736
    O   O54   0.961100  0.021110  0.613440  -0.697475
    O   O55   0.922210  0.810860  0.639590  -0.493682
    O   O56   0.972990  0.958360  0.579600  -0.858947
    O   O57   0.835290  0.943600  0.661380  -0.807640
    O   O58   0.797390  0.858200  0.627690  -0.561761
    O   O59   0.844400  0.069290  0.581380  -0.738513
    O   O60   0.933180  0.133720  0.538890  -0.630428
    O   O61   0.915300  0.791170  0.512430  -0.679810
    O   O62   0.860260  0.737910  0.566460  -0.544412
    O   O63   0.823490  0.972130  0.817420  -0.364463
    O   O64   0.951390  0.079670  0.794530  -0.350922
    O   O65   0.885050  0.779110  0.742960  -0.331624
    O   O66   0.784630  0.782280  0.748720  -0.393145
    O   O67   0.250600  0.112600  0.839530  -0.354940
    O   O68   0.898850  0.763080  0.398240  -0.356157
    O   O69   0.816530  0.798900  0.340030  -0.254639
    O   O70   0.889190  0.088330  0.253910  -0.389134
    O   O71   0.808070  0.952880  0.292700  -0.342231
    O   O72   0.273300  0.562810  0.537170  -0.338258
    O   O73   0.598490  0.762770  0.557950  -0.346260
    O   O74   0.689820  0.911060  0.547030  -0.314686
    O   O75   0.534600  0.740310  0.722990  -0.343982
    O   O76   0.531430  0.858580  0.686220  -0.356273
    O   O77   0.241690  0.864020  0.691500  -0.343299
    O   O78   0.334990  0.928690  0.653300  -0.400413
    O   O79   0.215640  0.218830  0.182730  -0.308523
    O   O80   0.424490  0.794060  0.088190  -0.366698
    O   O81   0.433030  0.730750  0.060420  -0.342402
    O   O82   0.752510  0.769970  0.256340  -0.379892
    O   O83   0.776560  0.723040  0.226610  -0.362519
    O   O84   0.402580  0.986190  0.169740  -0.339119
    O   O85   0.627470  0.036430  0.481110  -0.387534
    O   O86   0.753580  0.095380  0.465640  -0.343403
    O   O87   0.875160  0.317820  0.598110  -0.297822
    O   O88   0.994420  0.418950  0.569540  -0.318391
    O   O89   0.842050  0.544940  0.634900  -0.354036
    O   O90   0.728190  0.560830  0.601220  -0.293292
    O   O91   0.670470  0.546580  0.424000  -0.360716
    O   O92   0.788680  0.541680  0.442730  -0.332810
    O   O93   0.244930  0.066620  0.456180  -0.361341
    O   O94   0.225400  0.941930  0.501560  -0.410415
    O   O95   0.569160  0.271280  0.617530  -0.388369
    O   O96   0.628560  0.207080  0.624910  -0.347080
    O   O97   0.590410  0.206020  0.948600  -0.344691
    O   O98   0.523480  0.063170  0.982630  -0.362762
    O   O99   0.817690  0.709400  0.966010  -0.401766
    O   O100  0.780530  0.708120  0.011170  -0.359529
    O   O101  0.914800  0.407530  0.112880  -0.382390
    O   O102  0.841060  0.383060  0.149770  -0.328086
    O   O103  0.417420  0.157280  0.951100  -0.294086
    O   O104  0.527670  0.298220  0.956140  -0.354476
    O   O105  0.319900  0.080910  0.123060  -0.307859
    O   O106  0.416490  0.229390  0.110920  -0.368947
