# Generated by REPEAT Assigner based on pymatgen
data_DB7-ddmof_6342
_audit_creation_date              2022-05-24
_audit_creation_method            REPEAT_Assigner
_cell_length_a                    28.735060
_cell_length_b                    30.227840
_cell_length_c                    43.954080
_cell_angle_alpha                 61.059830
_cell_angle_beta                  118.648520
_cell_angle_gamma                 133.139800
_cell_volume                      23710.644803
_symmetry_space_group_name_H-M    P1
_symmetry_Int_Tables_number       1
loop_
    _symmetry_equiv_pos_site_id
    _symmetry_equiv_pos_as_xyz
    1  x,y,z
loop_
    _atom_site_type_symbol
    _atom_site_label
    _atom_site_fract_x
    _atom_site_fract_y
    _atom_site_fract_z
    _atom_type_partial_charge
    Co  Co1   0.047800  0.005280  0.068870  1.271396
    Co  Co2   0.984100  0.039400  0.091700  1.249209
    Co  Co3   0.107700  0.934600  0.083950  1.245474
    O   O1    0.021430  0.061780  0.053210  -0.591780
    C   C1    0.035910  0.147100  0.113300  0.974089
    C   C2    0.163250  0.929020  0.160130  1.020505
    O   O2    0.030670  0.907940  0.039950  -0.719682
    O   O3    0.974810  0.115080  0.113470  -0.739359
    O   O4    0.054910  0.121650  0.109010  -0.649703
    O   O5    0.178710  0.963760  0.129140  -0.700865
    O   O6    0.121810  0.925120  0.168540  -0.683519
    O   O7    0.054780  0.946500  0.095890  -0.757115
    Co  Co4   0.041040  0.013370  0.568390  1.267447
    Co  Co5   0.986740  0.049430  0.596670  1.221911
    Co  Co6   0.082010  0.930130  0.577980  1.263278
    O   O8    0.031870  0.079390  0.559810  -0.563204
    C   C3    0.055800  0.127030  0.649370  1.080670
    C   C4    0.110840  0.895240  0.656360  1.054045
    O   O9    0.018610  0.926360  0.528220  -0.708018
    O   O10   0.017250  0.081450  0.671510  -0.728914
    O   O11   0.063700  0.115330  0.627340  -0.694228
    O   O12   0.138680  0.936280  0.629260  -0.710858
    O   O13   0.066700  0.892230  0.661430  -0.699616
    O   O14   0.030040  0.944520  0.588550  -0.761649
    C   C5    0.078970  0.990090  0.937860  -0.132245
    C   C6    0.079160  0.991620  0.969220  -0.178554
    C   C7    0.055970  0.007660  0.857450  -0.149251
    C   C8    0.054820  0.003990  0.826510  -0.153754
    H   H1    0.125070  0.013410  0.932390  0.118564
    H   H2    0.125410  0.015770  0.987710  0.147837
    H   H3    0.084100  0.053070  0.862080  0.120973
    H   H4    0.081240  0.046620  0.807280  0.138708
    C   C9    0.088290  0.067830  0.292180  -0.138863
    C   C10   0.087400  0.068930  0.259700  -0.198484
    C   C11   0.099720  0.038100  0.373310  -0.141590
    C   C12   0.094250  0.037980  0.403360  -0.164000
    H   H5    0.117130  0.111450  0.299180  0.114379
    H   H6    0.115110  0.113470  0.241820  0.164447
    H   H7    0.147460  0.059190  0.371000  0.116207
    H   H8    0.137740  0.058380  0.424160  0.149054
    H   H9    0.025220  0.248260  0.657570  0.147813
    C   C13   0.710490  0.316400  0.007350  1.060534
    N   N1    0.759410  0.373320  0.015120  -0.827925
    C   C14   0.744340  0.408750  0.013080  0.987864
    N   N2    0.681020  0.387600  0.002850  -0.843783
    C   C15   0.632140  0.328790  0.998590  0.944420
    N   N3    0.646720  0.293040  0.000500  -0.819540
    C   C16   0.688340  0.319460  0.492350  1.090195
    N   N4    0.630240  0.282400  0.501460  -0.821900
    C   C17   0.606440  0.308860  0.501270  0.947042
    N   N5    0.639690  0.371650  0.490940  -0.829180
    C   C18   0.701240  0.408660  0.486630  0.944147
    N   N6    0.725410  0.382620  0.486650  -0.827754
    C   C19   0.286260  0.627420  0.213510  1.068364
    N   N7    0.352320  0.657610  0.222340  -0.819762
    C   C20   0.376790  0.629320  0.225800  0.936095
    N   N8    0.335370  0.570930  0.221020  -0.840204
    C   C21   0.270110  0.542930  0.209050  0.996649
    N   N9    0.245000  0.570970  0.205360  -0.831193
    C   C22   0.257560  0.614130  0.718720  1.073079
    N   N10   0.323710  0.649370  0.723920  -0.822800
    C   C23   0.350920  0.627020  0.723100  0.958206
    N   N11   0.312110  0.569590  0.717420  -0.847087
    C   C24   0.246130  0.536090  0.709830  0.977850
    N   N12   0.218460  0.558250  0.710440  -0.828297
    Co  Co7   0.969220  0.940370  0.158410  1.230351
    Co  Co8   0.030110  0.904020  0.134990  1.253030
    C   C25   0.181740  0.072740  0.062950  1.080557
    Co  Co9   0.929620  0.026840  0.147330  1.249339
    C   C26   0.001710  0.805320  0.114330  1.005717
    O   O15   0.850380  0.996340  0.104950  -0.656064
    O   O16   0.959470  0.997170  0.130490  -0.696130
    C   C27   0.858650  0.028860  0.072220  0.896485
    O   O17   0.990020  0.880030  0.172640  -0.569011
    C   C28   0.849390  0.888800  0.176430  1.017766
    O   O18   0.984860  0.956760  0.107010  -0.838986
    C   C29   0.020400  0.949020  0.014110  0.953056
    O   O19   0.900280  0.038300  0.060240  -0.602121
    O   O20   0.010950  0.981060  0.020440  -0.625225
    O   O21   0.884550  0.942470  0.183710  -0.806467
    O   O22   0.873990  0.876630  0.165260  -0.612648
    C   C30   0.028270  0.015590  0.210930  0.899766
    O   O23   0.014850  0.055590  0.187050  -0.691669
    O   O24   0.034020  0.984540  0.201020  -0.681265
    O   O25   0.155320  0.024480  0.052610  -0.793417
    O   O26   0.148230  0.072290  0.075720  -0.702393
    O   O27   0.064090  0.843200  0.114590  -0.732324
    O   O28   0.976420  0.818750  0.124070  -0.598276
    Co  Co10  0.926710  0.924470  0.646110  1.255740
    Co  Co11  0.987900  0.891570  0.621060  1.243637
    C   C31   0.176540  0.064640  0.575950  1.097014
    Co  Co12  0.918340  0.021480  0.651560  1.267761
    C   C32   0.957370  0.803920  0.589470  0.986949
    O   O29   0.924980  0.094740  0.607700  -0.759484
    O   O30   0.942670  0.995440  0.628300  -0.727337
    C   C33   0.902700  0.090610  0.574600  1.010381
    O   O31   0.930120  0.856010  0.652220  -0.578328
    C   C34   0.798660  0.897010  0.641520  0.960801
    O   O32   0.963140  0.960270  0.597880  -0.818157
    C   C35   0.020840  0.976250  0.505890  1.045233
    O   O33   0.919750  0.070610  0.563760  -0.609751
    O   O34   0.019570  0.010970  0.515670  -0.622590
    O   O35   0.823560  0.956920  0.629380  -0.689967
    O   O36   0.827160  0.874820  0.643010  -0.613763
    C   C36   0.957590  0.944270  0.715100  1.033346
    O   O37   0.911360  0.952490  0.698500  -0.786742
    O   O38   0.980030  0.940300  0.697160  -0.668211
    O   O39   0.147700  0.024230  0.558230  -0.804195
    O   O40   0.141710  0.063770  0.587860  -0.705884
    O   O41   0.020920  0.834330  0.597330  -0.744907
    O   O42   0.931100  0.818160  0.597650  -0.591154
    C   C37   0.019880  0.959530  0.977560  -0.101215
    C   C38   0.960340  0.928220  0.953350  -0.109272
    C   C39   0.960090  0.927140  0.921700  -0.155610
    C   C40   0.019450  0.956960  0.914200  0.120327
    C   C41   0.019410  0.952940  0.881800  0.077289
    C   C42   0.016590  0.945690  0.819360  0.162766
    C   C43   0.982140  0.890890  0.844350  -0.177702
    C   C44   0.983700  0.894450  0.875510  -0.126135
    C   C45   0.001480  0.942840  0.783590  -0.021985
    C   C46   0.984580  0.942290  0.752670  -0.253839
    H   H10   0.914260  0.902970  0.959580  0.115200
    H   H11   0.913830  0.902320  0.903370  0.121505
    H   H12   0.952130  0.845610  0.839030  0.136281
    H   H13   0.956410  0.851830  0.894440  0.117281
    C   C47   0.046980  0.013110  0.249090  -0.014523
    C   C48   0.012310  0.955790  0.272870  -0.085196
    C   C49   0.013290  0.954640  0.305450  -0.171892
    C   C50   0.049360  0.010830  0.314610  0.104612
    C   C51   0.043560  0.010240  0.346610  0.113926
    C   C52   0.032630  0.009880  0.407070  0.131307
    C   C53   0.976600  0.982970  0.380150  -0.132865
    C   C54   0.982020  0.983320  0.349980  -0.174483
    C   C55   0.026120  0.001300  0.440530  0.052206
    C   C56   0.022430  0.991730  0.469660  -0.379919
    H   H14   0.981150  0.912370  0.265110  0.114946
    H   H15   0.984270  0.910230  0.322940  0.115732
    H   H16   0.928730  0.960720  0.382880  0.132368
    H   H17   0.938430  0.962490  0.329330  0.133350
    C   C57   0.120060  0.294790  0.650170  0.202145
    C   C58   0.183550  0.350210  0.649680  -0.145785
    C   C59   0.202700  0.400120  0.658510  -0.229344
    C   C60   0.158490  0.394660  0.668010  0.273985
    C   C61   0.093870  0.340670  0.666410  -0.192390
    C   C62   0.074610  0.290880  0.657400  -0.159095
    C   C63   0.181910  0.441550  0.683020  -0.076038
    C   C64   0.207120  0.483460  0.695280  -0.265433
    C   C65   0.103950  0.239230  0.648370  -0.023385
    C   C66   0.085220  0.189870  0.647560  -0.311162
    H   H18   0.218840  0.353750  0.643940  0.148574
    H   H19   0.252670  0.442040  0.659380  0.173295
    H   H20   0.059270  0.336280  0.673420  0.153763
    C   C67   0.642090  0.791990  0.683600  0.242235
    C   C68   0.634250  0.825130  0.692370  -0.189738
    C   C69   0.579370  0.793770  0.704670  -0.119116
    C   C70   0.532290  0.729200  0.708300  0.136410
    C   C71   0.541680  0.695740  0.701020  -0.121798
    C   C72   0.596410  0.727100  0.688630  -0.184497
    C   C73   0.470600  0.698390  0.714840  -0.005908
    C   C74   0.417240  0.668200  0.719860  -0.280437
    C   C75   0.695800  0.825120  0.668330  -0.033878
    C   C76   0.741840  0.855760  0.655680  -0.284805
    H   H21   0.669850  0.875330  0.688890  0.146575
    H   H22   0.572480  0.819940  0.710270  0.138062
    H   H23   0.505440  0.645730  0.703810  0.137420
    H   H24   0.602490  0.701130  0.682220  0.149702
    C   C77   0.140200  0.759560  0.705440  0.165526
    C   C78   0.098960  0.709610  0.689330  -0.196491
    C   C79   0.118730  0.673900  0.695730  -0.104197
    C   C80   0.179670  0.687740  0.718420  0.125654
    C   C81   0.218070  0.733800  0.737120  -0.130533
    C   C82   0.198290  0.769560  0.730690  -0.160939
    C   C83   0.206500  0.660950  0.718740  0.077760
    C   C84   0.228910  0.638520  0.718980  -0.430192
    C   C85   0.130610  0.807800  0.690260  0.031695
    C   C86   0.120640  0.846990  0.676630  -0.326475
    H   H25   0.053640  0.701070  0.670050  0.163993
    H   H26   0.088260  0.637740  0.681600  0.127272
    H   H27   0.264790  0.744140  0.755170  0.135223
    H   H28   0.230190  0.807610  0.743570  0.140490
    C   C87   0.180820  0.397590  0.169730  0.171185
    C   C88   0.190480  0.351260  0.193470  -0.143371
    C   C89   0.173050  0.305980  0.180900  -0.190071
    C   C90   0.145460  0.306420  0.144500  0.236425
    C   C91   0.137530  0.353850  0.120600  -0.213448
    C   C92   0.154980  0.399170  0.133180  -0.118492
    C   C93   0.111210  0.251110  0.133420  -0.081805
    C   C94   0.082170  0.205240  0.123600  -0.222460
    C   C95   0.207410  0.448980  0.182030  -0.012871
    C   C96   0.231050  0.490680  0.194030  -0.305186
    H   H29   0.211870  0.350510  0.221650  0.133834
    H   H30   0.178580  0.269110  0.199690  0.160379
    H   H31   0.115610  0.354280  0.092470  0.157289
    H   H32   0.148900  0.435720  0.114470  0.136822
    C   C97   0.677330  0.770560  0.205940  0.140316
    C   C98   0.618470  0.720950  0.191030  -0.116948
    C   C99   0.559620  0.693530  0.197660  -0.215485
    C   C100  0.559410  0.715720  0.219180  0.287612
    C   C101  0.618550  0.763530  0.235310  -0.196965
    C   C102  0.677440  0.790820  0.228770  -0.145684
    C   C103  0.498100  0.690010  0.223830  -0.103899
    C   C104  0.444130  0.665080  0.225860  -0.225229
    C   C105  0.735630  0.806790  0.193880  0.017954
    C   C106  0.786940  0.840830  0.185460  -0.314813
    H   H33   0.617930  0.705070  0.173340  0.136369
    H   H34   0.514010  0.656020  0.185420  0.165678
    H   H35   0.618850  0.780430  0.252280  0.151176
    H   H36   0.722850  0.829190  0.240420  0.149718
    C   C107  0.190670  0.792820  0.201180  0.198502
    C   C108  0.248270  0.799700  0.225360  -0.186930
    C   C109  0.263590  0.761380  0.229830  -0.143524
    C   C110  0.221320  0.715860  0.210210  0.167587
    C   C111  0.161790  0.706360  0.187750  -0.125665
    C   C112  0.146470  0.744660  0.183280  -0.204917
    C   C113  0.241830  0.682970  0.210740  0.044766
    C   C114  0.260510  0.656350  0.211820  -0.408441
    C   C115  0.183040  0.841700  0.189560  0.025504
    C   C116  0.173840  0.881030  0.178450  -0.333954
    H   H37   0.282720  0.836630  0.239350  0.149991
    H   H38   0.309410  0.768690  0.247530  0.138723
    H   H39   0.128490  0.670930  0.172750  0.125554
    H   H40   0.101760  0.738820  0.164590  0.168144
    C   C117  0.759340  0.239050  0.493050  0.161266
    C   C118  0.718640  0.174750  0.495510  -0.147350
    C   C119  0.745890  0.144470  0.503960  -0.158018
    C   C120  0.813960  0.178280  0.510270  0.140180
    C   C121  0.853570  0.243550  0.504090  -0.145629
    C   C122  0.826360  0.273840  0.495650  -0.146184
    C   C123  0.843930  0.145740  0.531380  0.049483
    C   C124  0.870280  0.119690  0.549080  -0.338351
    C   C125  0.734190  0.267580  0.492520  0.067293
    C   C126  0.713290  0.291580  0.492080  -0.434660
    H   H41   0.666520  0.147660  0.492830  0.137247
    H   H42   0.714680  0.094120  0.508180  0.147669
    H   H43   0.906130  0.270270  0.508390  0.142106
    H   H44   0.858000  0.323770  0.493090  0.136300
    C   C127  0.856450  0.660450  0.545430  0.209878
    C   C128  0.850560  0.672930  0.509070  -0.169436
    C   C129  0.827320  0.626310  0.495160  -0.181287
    C   C130  0.810000  0.567170  0.517580  0.225672
    C   C131  0.816390  0.555030  0.553930  -0.167897
    C   C132  0.839320  0.601410  0.567770  -0.176690
    C   C133  0.775460  0.516000  0.502680  -0.059140
    C   C134  0.745040  0.469180  0.493570  -0.251884
    C   C135  0.889360  0.710510  0.560840  -0.022873
    C   C136  0.916900  0.752220  0.573950  -0.298431
    H   H45   0.864760  0.718850  0.491720  0.154991
    H   H46   0.821610  0.635830  0.466920  0.145661
    H   H47   0.802260  0.509140  0.571340  0.152652
    H   H48   0.844750  0.591720  0.596000  0.146479
    C   C137  0.370000  0.176040  0.581610  0.139627
    C   C138  0.390890  0.140250  0.589580  -0.131391
    C   C139  0.441770  0.165350  0.575970  -0.201766
    C   C140  0.472980  0.226770  0.555140  0.282901
    C   C141  0.457590  0.264860  0.550930  -0.202629
    C   C142  0.406380  0.239590  0.564350  -0.130303
    C   C143  0.518470  0.250140  0.536650  -0.083936
    C   C144  0.557130  0.273550  0.520290  -0.250961
    C   C145  0.303080  0.144060  0.580870  0.011270
    C   C146  0.245830  0.110840  0.580520  -0.297317
    H   H49   0.363960  0.091370  0.603630  0.138920
    H   H50   0.454840  0.136200  0.580320  0.154661
    H   H51   0.483100  0.313140  0.535800  0.154888
    H   H52   0.391510  0.268000  0.558650  0.139918
    C   C147  0.794230  0.138280  0.024300  0.179643
    C   C148  0.840980  0.203030  0.020680  -0.149816
    C   C149  0.822530  0.239880  0.014260  -0.170884
    C   C150  0.757210  0.212230  0.011340  0.192272
    C   C151  0.709700  0.148190  0.012690  -0.151755
    C   C152  0.728160  0.111310  0.019110  -0.176030
    C   C153  0.740020  0.248540  0.009780  0.031283
    C   C154  0.726230  0.279380  0.008490  -0.394925
    C   C155  0.815640  0.098730  0.039800  -0.002865
    C   C156  0.834450  0.066390  0.052780  -0.276344
    H   H53   0.892120  0.224350  0.024560  0.149962
    H   H54   0.859450  0.289460  0.012840  0.141829
    H   H55   0.658950  0.126530  0.010040  0.141261
    H   H56   0.691620  0.061370  0.021750  0.151342
    C   C157  0.911460  0.648260  0.086920  0.215387
    C   C158  0.941810  0.658030  0.064860  -0.145857
    C   C159  0.915730  0.608900  0.052210  -0.169862
    C   C160  0.859290  0.549780  0.061610  0.203409
    C   C161  0.830540  0.539430  0.084870  -0.182410
    C   C162  0.856520  0.588620  0.097440  -0.166999
    C   C163  0.824940  0.502720  0.043340  -0.030463
    C   C164  0.792020  0.460500  0.029390  -0.284877
    C   C165  0.937190  0.699840  0.098530  -0.026478
    C   C166  0.963040  0.746260  0.106610  -0.319285
    H   H57   0.984850  0.703960  0.056970  0.136058
    H   H58   0.938090  0.617370  0.034170  0.146767
    H   H59   0.786760  0.493800  0.092210  0.160460
    H   H60   0.833300  0.580540  0.114830  0.149173
    C   C167  0.462640  0.261620  0.013270  0.301369
    C   C168  0.401290  0.235070  0.989470  -0.203346
    C   C169  0.346040  0.211130  0.998450  -0.130664
    C   C170  0.351770  0.212740  0.031540  0.111991
    C   C171  0.414030  0.244170  0.053890  -0.111281
    C   C172  0.469370  0.268400  0.044830  -0.229335
    C   C173  0.294690  0.168680  0.046050  0.023042
    C   C174  0.243400  0.128520  0.055000  -0.301270
    C   C175  0.518930  0.282080  0.005540  -0.106437
    C   C176  0.568610  0.300640  0.001200  -0.229123
    H   H61   0.395990  0.231220  0.964560  0.151547
    H   H62   0.298130  0.187470  0.980810  0.140605
    H   H63   0.419100  0.246110  0.079370  0.139322
    H   H64   0.517090  0.290510  0.062920  0.168441
