# Generated by REPEAT Assigner based on pymatgen
data_DB7-ddmof_22885
_audit_creation_date              2022-05-24
_audit_creation_method            REPEAT_Assigner
_cell_length_a                    31.282140
_cell_length_b                    23.272250
_cell_length_c                    42.534520
_cell_angle_alpha                 89.942050
_cell_angle_beta                  89.931030
_cell_angle_gamma                 91.015040
_cell_volume                      30960.478471
_symmetry_space_group_name_H-M    P1
_symmetry_Int_Tables_number       1
loop_
    _symmetry_equiv_pos_site_id
    _symmetry_equiv_pos_as_xyz
    1  x,y,z
loop_
    _atom_site_type_symbol
    _atom_site_label
    _atom_site_fract_x
    _atom_site_fract_y
    _atom_site_fract_z
    _atom_type_partial_charge
    C   C1    0.572250  0.430660  0.012700  0.836639
    C   C2    0.467860  0.467890  0.968360  0.816843
    C   C3    0.615820  0.513660  0.951760  0.662069
    C   C4    0.515130  0.641680  0.991430  0.850380
    C   C5    0.259360  0.190590  0.961380  0.693369
    C   C6    0.204070  0.224470  0.040790  0.637555
    C   C7    0.317700  0.330230  0.993880  0.583154
    C   C8    0.328300  0.179420  0.070830  0.788530
    C   C9    0.423090  0.822550  0.679290  0.307732
    C   C10   0.460130  0.815340  0.697290  -0.305901
    C   C11   0.459410  0.825520  0.729750  0.130022
    C   C12   0.421110  0.840930  0.744360  -0.245305
    C   C13   0.384010  0.848390  0.726450  0.134870
    C   C14   0.384970  0.838950  0.693900  -0.295914
    C   C15   0.415820  0.766230  0.631550  0.460318
    C   C16   0.422510  0.759040  0.599030  -0.121087
    C   C17   0.437510  0.805850  0.580990  0.055859
    C   C18   0.447260  0.858330  0.595880  -0.128595
    C   C19   0.439700  0.864050  0.628340  0.463965
    C   C20   0.416730  0.705090  0.584780  -0.025806
    C   C21   0.424990  0.698000  0.552790  -0.186164
    C   C22   0.435720  0.745890  0.533630  0.051095
    C   C23   0.444240  0.799590  0.548210  0.029164
    C   C24   0.461430  0.846260  0.530580  0.049764
    C   C25   0.466680  0.903110  0.578630  -0.017685
    C   C26   0.475530  0.896210  0.546740  -0.184108
    C   C27   0.440360  0.740560  0.500460  0.043639
    C   C28   0.457820  0.787100  0.482890  0.049438
    C   C29   0.466210  0.840840  0.497440  0.040519
    C   C30   0.477240  0.888610  0.478290  -0.188598
    C   C31   0.486510  0.881200  0.446500  -0.002318
    C   C32   0.481060  0.827140  0.432340  -0.151944
    C   C33   0.465040  0.780690  0.450180  0.059485
    C   C34   0.426010  0.690810  0.484220  -0.192431
    C   C35   0.434860  0.683960  0.452290  -0.022396
    C   C36   0.454900  0.728450  0.435170  -0.126091
    C   C37   0.489200  0.819500  0.400080  0.468154
    C   C38   0.462950  0.722660  0.402730  0.462434
    C   C39   0.483910  0.763180  0.352290  0.329919
    C   C40   0.452220  0.784880  0.332480  -0.313632
    C   C41   0.458520  0.786160  0.299840  0.135232
    C   C42   0.495880  0.763400  0.287000  -0.282240
    C   C43   0.527480  0.741230  0.306680  0.173602
    C   C44   0.521500  0.741110  0.339360  -0.322269
    C   C45   0.807820  0.674630  0.054350  0.752398
    C   C46   0.786340  0.599960  0.977300  0.496679
    C   C47   0.903630  0.724610  0.004220  0.662627
    C   C48   0.793040  0.792310  0.949640  0.640682
    C   C49   0.324090  0.908280  0.049270  0.702480
    C   C50   0.422900  0.846600  0.005460  0.826532
    C   C51   0.322800  0.990100  0.978210  0.564891
    C   C52   0.320710  0.805980  0.938070  0.670908
    C   C53   0.965670  0.786580  0.321380  0.279661
    C   C54   0.933710  0.764450  0.301500  -0.262761
    C   C55   0.938000  0.769420  0.268750  0.083810
    C   C56   0.973240  0.799610  0.256080  -0.188535
    C   C57   0.004790  0.823150  0.275940  0.059044
    C   C58   0.000440  0.817500  0.308640  -0.241661
    C   C59   0.982640  0.717670  0.362080  0.452142
    C   C60   0.984940  0.701250  0.393860  -0.126972
    C   C61   0.971520  0.739530  0.417230  0.042670
    C   C62   0.952780  0.791550  0.408440  -0.127512
    C   C63   0.950750  0.806410  0.376350  0.470896
    C   C64   0.999010  0.646510  0.402440  -0.029923
    C   C65   0.001520  0.630980  0.434050  -0.161627
    C   C66   0.993520  0.671690  0.457930  0.024905
    C   C67   0.975830  0.725080  0.449430  0.065452
    C   C68   0.960820  0.763070  0.472790  0.028071
    C   C69   0.935010  0.826820  0.431600  -0.033026
    C   C70   0.937350  0.811560  0.463300  -0.172282
    C   C71   0.000980  0.659160  0.490160  0.051821
    C   C72   0.986130  0.697180  0.513590  0.019958
    C   C73   0.967900  0.750320  0.505110  0.061552
    C   C74   0.959350  0.790720  0.529060  -0.186260
    C   C75   0.962720  0.775440  0.560680  -0.030645
    C   C76   0.978160  0.721390  0.569240  -0.117401
    C   C77   0.991380  0.683140  0.545770  0.065398
    C   C78   0.025010  0.611110  0.499470  -0.164970
    C   C79   0.028390  0.596340  0.531130  -0.037917
    C   C80   0.011070  0.631680  0.554430  -0.143863
    C   C81   0.982400  0.705840  0.601090  0.453794
    C   C82   0.014790  0.617610  0.586500  0.476718
    C   C83   0.005220  0.639890  0.641720  0.294086
    C   C84   0.042360  0.656800  0.657940  -0.277078
    C   C85   0.047460  0.641850  0.689660  0.082922
    C   C86   0.015200  0.609970  0.705080  -0.205819
    C   C87   0.978470  0.591930  0.688730  0.085777
    C   C88   0.973330  0.607390  0.657110  -0.270113
    C   C89   0.790390  0.284770  0.933340  0.748304
    C   C90   0.836500  0.174460  0.990560  0.499152
    C   C91   0.717360  0.295420  0.008250  0.657515
    C   C92   0.833800  0.354670  0.045000  0.797268
    C   C93   0.147390  0.980750  0.009370  0.866379
    C   C94   0.099120  0.047940  0.077140  0.625509
    C   C95   0.045250  0.879280  0.026620  0.793027
    C   C96   0.984810  0.036260  0.004860  0.918082
    C   C97   0.874610  0.138620  0.990510  0.467406
    C   C98   0.870450  0.078630  0.992300  -0.404966
    C   C99   0.906770  0.044960  0.995470  0.045500
    C   C100  0.947610  0.070930  0.996380  -0.486465
    C   C101  0.951880  0.130980  0.992600  0.710641
    C   C102  0.915370  0.164560  0.990110  -0.600855
    C   C103  0.854180  0.490020  0.795560  -0.105555
    C   C104  0.862690  0.462520  0.766910  0.063393
    C   C105  0.850000  0.404840  0.762760  -0.151425
    C   C106  0.831740  0.373890  0.787730  -0.150340
    C   C107  0.825690  0.400510  0.816940  0.089734
    C   C108  0.835650  0.459160  0.820430  -0.213570
    C   C109  0.814370  0.365670  0.844760  0.190657
    C   C110  0.844500  0.328520  0.857680  -0.185072
    C   C111  0.836010  0.300530  0.886130  -0.061566
    C   C112  0.797150  0.309070  0.901800  -0.155537
    C   C113  0.766280  0.344480  0.888280  -0.017026
    C   C114  0.774960  0.372930  0.859910  -0.243230
    C   C115  0.889440  0.491830  0.742930  0.057174
    C   C116  0.929080  0.469000  0.734510  -0.107829
    C   C117  0.957230  0.500480  0.715350  -0.258461
    C   C118  0.946170  0.555230  0.704590  0.227238
    C   C119  0.905700  0.576890  0.711660  -0.230866
    C   C120  0.877380  0.545250  0.730720  -0.135709
    C   C121  0.877820  0.636240  0.145990  -0.144680
    C   C122  0.855130  0.632980  0.174450  0.066279
    C   C123  0.823570  0.590010  0.178580  -0.126307
    C   C124  0.816920  0.548330  0.155400  -0.091556
    C   C125  0.842140  0.548860  0.128080  0.029277
    C   C126  0.871510  0.594170  0.122960  -0.095119
    C   C127  0.840890  0.499250  0.106520  0.130921
    C   C128  0.831100  0.506950  0.074640  -0.252613
    C   C129  0.830670  0.460040  0.054180  -0.071792
    C   C130  0.839570  0.404860  0.065510  -0.125703
    C   C131  0.849620  0.397200  0.097340  -0.088896
    C   C132  0.850550  0.444230  0.117720  -0.143227
    C   C133  0.869010  0.668490  0.201390  0.149618
    C   C134  0.868930  0.728680  0.199280  -0.206581
    C   C135  0.889060  0.762090  0.222450  -0.194231
    C   C136  0.909650  0.735480  0.247790  0.156323
    C   C137  0.907360  0.675440  0.250840  -0.159155
    C   C138  0.887050  0.642150  0.227810  -0.217265
    C   C139  0.276310  0.001450  0.978920  0.337568
    C   C140  0.247890  0.965420  0.962080  -0.217557
    C   C141  0.204800  0.961610  0.970640  -0.119203
    C   C142  0.189410  0.994670  0.995550  -0.274103
    C   C143  0.216570  0.035720  0.009910  0.514079
    C   C144  0.259710  0.039850  0.001100  -0.416710
    C   C145  0.168200  0.751310  0.795780  -0.173096
    C   C146  0.182400  0.713010  0.772680  0.070504
    C   C147  0.223070  0.688840  0.775480  -0.163846
    C   C148  0.248200  0.700330  0.802010  -0.124592
    C   C149  0.233130  0.736750  0.825700  0.090285
    C   C150  0.193600  0.763520  0.821980  -0.119283
    C   C151  0.258250  0.746270  0.854680  0.076279
    C   C152  0.300180  0.768520  0.852980  -0.160458
    C   C153  0.321600  0.785320  0.880400  -0.057402
    C   C154  0.301230  0.779980  0.909760  -0.110098
    C   C155  0.260470  0.753930  0.911560  -0.045154
    C   C156  0.239140  0.737080  0.884170  -0.183999
    C   C157  0.153080  0.694200  0.747290  0.080594
    C   C158  0.143050  0.635560  0.743500  -0.126338
    C   C159  0.110240  0.618250  0.723170  -0.221994
    C   C160  0.086560  0.659430  0.706880  0.195166
    C   C161  0.098160  0.717810  0.709290  -0.217236
    C   C162  0.131540  0.735070  0.729180  -0.143816
    C   C163  0.171000  0.835170  0.190320  -0.119031
    C   C164  0.155190  0.883380  0.206060  0.063285
    C   C165  0.172120  0.938250  0.199110  -0.161281
    C   C166  0.203250  0.945010  0.175680  -0.096220
    C   C167  0.217790  0.896940  0.159200  -0.020141
    C   C168  0.202270  0.841940  0.167100  -0.170816
    C   C169  0.246190  0.904510  0.131870  0.207931
    C   C170  0.288680  0.886460  0.133340  -0.075583
    C   C171  0.314560  0.889040  0.106530  -0.168980
    C   C172  0.297900  0.908950  0.077970  -0.029040
    C   C173  0.255560  0.927790  0.076680  -0.020697
    C   C174  0.229860  0.925710  0.103530  -0.306553
    C   C175  0.118820  0.876610  0.228030  0.080912
    C   C176  0.121020  0.837290  0.252990  -0.148909
    C   C177  0.084170  0.822120  0.269880  -0.190848
    C   C178  0.044870  0.846890  0.262310  0.154483
    C   C179  0.043390  0.889600  0.239010  -0.170026
    C   C180  0.080130  0.904120  0.221800  -0.173687
    C   C181  0.011870  0.836450  0.018060  0.060732
    C   C182  0.979710  0.850970  0.996590  -0.181106
    C   C183  0.945360  0.813180  0.991130  -0.146642
    C   C184  0.942710  0.760330  0.006940  0.021700
    C   C185  0.975620  0.744670  0.027650  0.361006
    C   C186  0.010220  0.782540  0.032960  -0.314540
    C   C187  0.637550  0.789790  0.810580  -0.188585
    C   C188  0.609970  0.836230  0.807080  0.108490
    C   C189  0.616960  0.886450  0.824750  -0.138280
    C   C190  0.650430  0.889460  0.846480  -0.200592
    C   C191  0.677110  0.842240  0.850750  0.108206
    C   C192  0.670930  0.792740  0.832350  -0.157748
    C   C193  0.708990  0.842500  0.876300  0.114555
    C   C194  0.752200  0.833040  0.869530  -0.201985
    C   C195  0.780890  0.821740  0.893860  0.001026
    C   C196  0.766450  0.819240  0.925170  -0.117937
    C   C197  0.724170  0.834520  0.932050  -0.104026
    C   C198  0.695520  0.845650  0.907700  -0.166634
    C   C199  0.572580  0.831220  0.786120  0.096404
    C   C200  0.568660  0.868300  0.760300  -0.170567
    C   C201  0.532240  0.865300  0.741330  -0.204246
    C   C202  0.499450  0.825120  0.748000  0.184859
    C   C203  0.503790  0.787220  0.773430  -0.209186
    C   C204  0.540180  0.790290  0.792430  -0.168989
    C   C205  0.644300  0.681110  0.194000  -0.182658
    C   C206  0.662450  0.686950  0.223990  0.156786
    C   C207  0.707100  0.687990  0.227320  -0.234554
    C   C208  0.733360  0.683320  0.200810  -0.064884
    C   C209  0.715120  0.677420  0.170770  -0.008515
    C   C210  0.670450  0.676540  0.167550  -0.137376
    C   C211  0.742580  0.673120  0.142570  0.135086
    C   C212  0.773390  0.716140  0.135990  -0.131490
    C   C213  0.795640  0.715740  0.107440  -0.113509
    C   C214  0.786640  0.673060  0.085070  -0.063083
    C   C215  0.756860  0.629150  0.091970  -0.105364
    C   C216  0.735390  0.628680  0.120780  -0.109273
    C   C217  0.634550  0.695380  0.251540  0.053226
    C   C218  0.634360  0.748790  0.266810  -0.139529
    C   C219  0.601180  0.761990  0.287490  -0.235757
    C   C220  0.567950  0.721930  0.292960  0.199731
    C   C221  0.570260  0.666730  0.279960  -0.229999
    C   C222  0.603530  0.653420  0.259380  -0.134116
    C   C223  0.170000  0.198690  0.060150  0.257465
    C   C224  0.180940  0.164530  0.086010  -0.287130
    C   C225  0.153790  0.119330  0.095400  -0.131547
    C   C226  0.115940  0.107780  0.078630  0.031589
    C   C227  0.101170  0.149680  0.057340  0.266302
    C   C228  0.128360  0.195170  0.048250  -0.322826
    C   C229  0.280720  0.962770  0.870200  -0.234489
    C   C230  0.255550  0.011910  0.867860  0.089281
    C   C231  0.235220  0.024380  0.839300  -0.155816
    C   C232  0.243420  0.991330  0.812590  -0.132328
    C   C233  0.272140  0.945770  0.814240  0.031917
    C   C234  0.289140  0.930000  0.843470  -0.097138
    C   C235  0.290420  0.921820  0.785150  0.065688
    C   C236  0.315310  0.957330  0.765390  -0.118529
    C   C237  0.342890  0.933050  0.743450  -0.277697
    C   C238  0.346080  0.873160  0.741320  0.222330
    C   C239  0.317870  0.837820  0.758640  -0.204927
    C   C240  0.289710  0.862200  0.780220  -0.157495
    C   C241  0.256520  0.055040  0.893270  0.065838
    C   C242  0.295450  0.081490  0.901790  -0.145478
    C   C243  0.296300  0.125720  0.923920  -0.116070
    C   C244  0.258190  0.144090  0.937830  -0.087866
    C   C245  0.219290  0.116610  0.929930  -0.072489
    C   C246  0.218470  0.072360  0.907660  -0.118860
    C   C247  0.396130  0.919410  0.179430  -0.189815
    C   C248  0.371840  0.917390  0.207180  0.087774
    C   C249  0.337090  0.954150  0.210750  -0.126138
    C   C250  0.328310  0.994890  0.187570  -0.175537
    C   C251  0.354160  0.999050  0.160630  0.057258
    C   C252  0.387350  0.960060  0.156260  -0.061316
    C   C253  0.347550  0.045450  0.137580  0.118950
    C   C254  0.307770  0.051110  0.122830  -0.161138
    C   C255  0.301670  0.094770  0.100850  -0.078577
    C   C256  0.335010  0.133860  0.093910  -0.076320
    C   C257  0.374780  0.128330  0.108560  -0.133117
    C   C258  0.381050  0.084320  0.130390  -0.185272
    C   C259  0.386080  0.882040  0.233830  0.046391
    C   C260  0.388900  0.822220  0.230570  -0.130128
    C   C261  0.410090  0.790030  0.253330  -0.198262
    C   C262  0.428730  0.817490  0.279450  0.165978
    C   C263  0.423280  0.876690  0.283740  -0.187885
    C   C264  0.402000  0.908800  0.261050  -0.149472
    C   C265  0.425650  0.439140  0.972840  0.060554
    C   C266  0.409530  0.400640  0.950120  -0.207760
    C   C267  0.373270  0.366620  0.956630  -0.235439
    C   C268  0.352880  0.370440  0.985920  0.074978
    C   C269  0.367540  0.411020  0.008080  0.356654
    C   C270  0.403350  0.445810  0.001300  -0.300960
    C   C271  0.501060  0.700380  0.998050  -0.115296
    C   C272  0.501120  0.741420  0.973860  -0.162415
    C   C273  0.479080  0.792700  0.977580  -0.133404
    C   C274  0.456260  0.802980  0.005340  -0.148940
    C   C275  0.459420  0.764280  0.030670  0.355818
    C   C276  0.481910  0.713140  0.026970  -0.197495
    C   C277  0.607700  0.395960  0.024680  -0.055952
    C   C278  0.603610  0.335760  0.024410  -0.179823
    C   C279  0.639870  0.302010  0.021650  -0.144264
    C   C280  0.680620  0.328160  0.020240  0.012645
    C   C281  0.684910  0.387450  0.026880  0.215194
    C   C282  0.648410  0.421290  0.028670  -0.154860
    C   C283  0.660460  0.534930  0.955260  0.140345
    C   C284  0.693490  0.496820  0.962470  -0.147630
    C   C285  0.734500  0.518040  0.969780  -0.384984
    C   C286  0.743070  0.577480  0.969630  0.275275
    C   C287  0.710020  0.615640  0.962070  0.176350
    C   C288  0.669340  0.594230  0.954360  -0.302476
    H   H1    0.489720  0.803730  0.685830  0.126196
    H   H2    0.356680  0.846080  0.679850  0.125597
    H   H3    0.476740  0.942560  0.590170  0.137920
    H   H4    0.495390  0.928390  0.535290  0.131182
    H   H5    0.407460  0.667880  0.598690  0.136747
    H   H6    0.425340  0.654800  0.543560  0.137842
    H   H7    0.423570  0.802820  0.342580  0.122648
    H   H8    0.546290  0.725250  0.354700  0.133580
    H   H9    0.476410  0.931900  0.487350  0.131871
    H   H10   0.496190  0.918270  0.432620  0.132191
    H   H11   0.405980  0.658770  0.495630  0.135663
    H   H12   0.424550  0.644700  0.440680  0.137303
    H   H13   0.501160  0.765080  0.261800  0.130679
    H   H14   0.420640  0.849760  0.769400  0.109884
    H   H15   0.907130  0.740020  0.311430  0.122680
    H   H16   0.025240  0.834180  0.324080  0.127316
    H   H17   0.918020  0.865200  0.425080  0.142332
    H   H18   0.918960  0.835810  0.480000  0.131982
    H   H19   0.006680  0.615060  0.384640  0.128635
    H   H20   0.007480  0.586580  0.439690  0.131376
    H   H21   0.067240  0.681110  0.645810  0.128477
    H   H22   0.944980  0.593590  0.644370  0.123167
    H   H23   0.952420  0.834850  0.523490  0.135620
    H   H24   0.954780  0.806720  0.578510  0.137827
    H   H25   0.043060  0.586830  0.482560  0.129084
    H   H26   0.045930  0.558340  0.537510  0.140587
    H   H27   0.018770  0.598950  0.729710  0.111564
    H   H28   0.977460  0.801680  0.230790  0.114812
    H   H29   0.903130  0.998780  0.997960  0.115467
    H   H30   0.918770  0.210880  0.988230  0.218508
    H   H31   0.839050  0.058230  0.992310  0.177680
    H   H32   0.000690  0.159330  0.970880  0.332191
    H   H33   0.855830  0.383430  0.740600  0.116801
    H   H34   0.830890  0.480130  0.842870  0.137286
    H   H35   0.988260  0.483200  0.709750  0.140243
    H   H36   0.896780  0.618990  0.703290  0.142217
    H   H37   0.846660  0.562980  0.736780  0.113790
    H   H38   0.938710  0.427820  0.743760  0.114574
    H   H39   0.875010  0.322670  0.846130  0.116342
    H   H40   0.859910  0.272940  0.896270  0.108825
    H   H41   0.751500  0.401530  0.850090  0.119001
    H   H42   0.736230  0.351510  0.900240  0.103086
    H   H43   0.823750  0.328740  0.784740  0.095992
    H   H44   0.863690  0.534550  0.799000  0.111716
    H   H45   0.805470  0.587530  0.200280  0.089130
    H   H46   0.890770  0.595390  0.101780  0.064497
    H   H47   0.890110  0.808450  0.220090  0.117749
    H   H48   0.923080  0.654410  0.270280  0.152832
    H   H49   0.887150  0.595720  0.229720  0.115064
    H   H50   0.854690  0.749450  0.179140  0.149765
    H   H51   0.823310  0.549010  0.065830  0.170261
    H   H52   0.822080  0.466280  0.029760  0.102094
    H   H53   0.858700  0.437930  0.142220  0.090565
    H   H54   0.856370  0.354740  0.106320  0.124028
    H   H55   0.793290  0.514410  0.159160  0.086068
    H   H56   0.901920  0.669620  0.142410  0.102925
    H   H57   0.183840  0.930980  0.958860  0.157789
    H   H58   0.280730  0.070130  0.013090  0.192759
    H   H59   0.259670  0.937490  0.943800  0.163629
    H   H60   0.207490  0.048190  0.053310  0.386486
    H   H61   0.234710  0.660060  0.757530  0.115365
    H   H62   0.182230  0.793010  0.839690  0.097300
    H   H63   0.102150  0.572970  0.720950  0.129455
    H   H64   0.080370  0.749930  0.696620  0.144294
    H   H65   0.139600  0.780350  0.731430  0.106490
    H   H66   0.159520  0.603580  0.757210  0.112355
    H   H67   0.315630  0.774630  0.830390  0.105686
    H   H68   0.353320  0.804470  0.878650  0.110752
    H   H69   0.207260  0.718340  0.885790  0.109165
    H   H70   0.244840  0.748050  0.934110  0.100812
    H   H71   0.278970  0.680140  0.804400  0.101012
    H   H72   0.136950  0.770330  0.793880  0.128677
    H   H73   0.160500  0.975680  0.211360  0.113701
    H   H74   0.213410  0.804620  0.154500  0.112398
    H   H75   0.085790  0.789300  0.287900  0.139077
    H   H76   0.013390  0.909730  0.233340  0.120442
    H   H77   0.078100  0.934850  0.202730  0.127152
    H   H78   0.150890  0.816580  0.258380  0.115749
    H   H79   0.301480  0.869890  0.155130  0.088401
    H   H80   0.347180  0.874340  0.107790  0.165325
    H   H81   0.197040  0.939580  0.102200  0.139703
    H   H82   0.242460  0.943500  0.054810  0.033189
    H   H83   0.215360  0.987620  0.169870  0.100263
    H   H84   0.158100  0.792660  0.195410  0.117960
    H   H85   0.920240  0.825550  0.975090  0.165046
    H   H86   0.035250  0.770450  0.049140  0.173657
    H   H87   0.980540  0.892360  0.984900  0.133244
    H   H88   0.958320  0.700240  0.062920  0.350888
    H   H89   0.595880  0.922580  0.822140  0.112803
    H   H90   0.691260  0.755990  0.835540  0.136943
    H   H91   0.529080  0.894910  0.721830  0.143036
    H   H92   0.478680  0.756030  0.778730  0.125721
    H   H93   0.542930  0.761490  0.812320  0.135983
    H   H94   0.593610  0.899810  0.755140  0.113289
    H   H95   0.763160  0.832040  0.845370  0.103688
    H   H96   0.813790  0.812240  0.888230  0.087224
    H   H97   0.662370  0.853940  0.913200  0.112725
    H   H98   0.712870  0.834800  0.956130  0.104452
    H   H99   0.655050  0.927940  0.860470  0.113134
    H   H100  0.632610  0.751040  0.796860  0.114679
    H   H101  0.721410  0.692860  0.250370  0.127669
    H   H102  0.656020  0.673020  0.144470  0.109236
    H   H103  0.599860  0.804560  0.297700  0.137598
    H   H104  0.544970  0.635320  0.284320  0.131213
    H   H105  0.603840  0.611660  0.248150  0.111251
    H   H106  0.658440  0.781260  0.261220  0.121623
    H   H107  0.779290  0.750610  0.152610  0.090150
    H   H108  0.819150  0.749260  0.102460  0.108808
    H   H109  0.712450  0.594510  0.125900  0.096834
    H   H110  0.750160  0.595600  0.074940  0.089678
    H   H111  0.767770  0.684780  0.203570  0.095682
    H   H112  0.609890  0.681100  0.191150  0.126578
    H   H113  0.164310  0.089830  0.113420  0.156810
    H   H114  0.118540  0.224090  0.029730  0.169499
    H   H115  0.212150  0.169430  0.096780  0.162618
    H   H116  0.065180  0.127060  0.023800  0.398289
    H   H117  0.215210  0.061730  0.837340  0.110811
    H   H118  0.311410  0.895050  0.845020  0.138802
    H   H119  0.326560  0.146170  0.929970  0.109672
    H   H120  0.189810  0.129120  0.941190  0.115913
    H   H121  0.188330  0.051620  0.901580  0.097825
    H   H122  0.324990  0.068470  0.890780  0.128740
    H   H123  0.315520  0.003520  0.768550  0.115672
    H   H124  0.364060  0.960690  0.729770  0.157150
    H   H125  0.269220  0.834670  0.794390  0.134756
    H   H126  0.319520  0.791490  0.756740  0.113092
    H   H127  0.229510  0.003230  0.790250  0.110755
    H   H128  0.296150  0.952300  0.892210  0.180148
    H   H129  0.317770  0.952340  0.231890  0.108524
    H   H130  0.406720  0.961880  0.135140  0.079414
    H   H131  0.413580  0.744190  0.250030  0.120360
    H   H132  0.437360  0.898280  0.303880  0.142123
    H   H133  0.399770  0.954920  0.263870  0.117667
    H   H134  0.376180  0.801070  0.209830  0.107276
    H   H135  0.281610  0.021850  0.128460  0.126752
    H   H136  0.271110  0.098080  0.089100  0.069019
    H   H137  0.411800  0.080580  0.141830  0.113044
    H   H138  0.400750  0.158130  0.103130  0.110574
    H   H139  0.302140  0.024160  0.190920  0.106919
    H   H140  0.422800  0.890860  0.176330  0.125597
    H   H141  0.361870  0.335950  0.939280  0.209637
    H   H142  0.414430  0.476790  0.018590  0.177301
    H   H143  0.425700  0.395820  0.927770  0.159241
    H   H144  0.360880  0.392260  0.051160  0.378503
    H   H145  0.477290  0.822560  0.958080  0.179747
    H   H146  0.482300  0.682060  0.045960  0.132180
    H   H147  0.516580  0.732420  0.951630  0.129050
    H   H148  0.458800  0.796480  0.071490  0.329975
    H   H149  0.636050  0.255990  0.018660  0.164362
    H   H150  0.652000  0.467510  0.030860  0.114278
    H   H151  0.572220  0.315400  0.023450  0.141499
    H   H152  0.731350  0.410010  0.052850  0.346652
    H   H153  0.759560  0.488250  0.975520  0.226046
    H   H154  0.644370  0.624040  0.948440  0.174975
    H   H155  0.687290  0.450900  0.963010  0.203645
    H   H156  0.710410  0.686320  0.984110  0.305848
    N   N1    0.425240  0.817880  0.645630  -0.122948
    N   N2    0.479390  0.768130  0.385800  -0.128166
    N   N3    0.966280  0.769930  0.353930  -0.130084
    N   N4    0.000400  0.654550  0.609110  -0.123019
    O   O1    0.584120  0.549300  0.955220  -0.647260
    O   O2    0.545590  0.407120  0.992450  -0.773782
    O   O3    0.607540  0.458640  0.948020  -0.755719
    O   O4    0.485760  0.495520  0.991950  -0.618447
    O   O5    0.490210  0.458350  0.942750  -0.782285
    O   O6    0.502140  0.613870  0.966720  -0.651472
    O   O7    0.573660  0.487010  0.015760  -0.627361
    O   O8    0.538100  0.612750  0.011020  -0.712114
    O   O9    0.320060  0.298520  0.019360  -0.624946
    O   O10   0.225450  0.222150  0.966130  -0.706122
    O   O11   0.284950  0.324250  0.974820  -0.703007
    O   O12   0.234870  0.191930  0.030700  -0.490348
    O   O13   0.199940  0.276380  0.029310  -0.761814
    O   O14   0.301670  0.220140  0.076810  -0.681828
    O   O15   0.294220  0.199890  0.977940  -0.534229
    O   O16   0.334330  0.169440  0.041250  -0.671532
    O   O17   0.447130  0.913800  0.642290  -0.532029
    O   O18   0.401040  0.722890  0.648600  -0.525402
    O   O19   0.506000  0.862090  0.383430  -0.526449
    O   O20   0.454230  0.673530  0.388500  -0.526510
    O   O21   0.866210  0.748430  0.007630  -0.654851
    O   O22   0.846470  0.654310  0.051470  -0.639331
    O   O23   0.906220  0.669780  0.996960  -0.695473
    O   O24   0.800310  0.647390  0.964050  -0.614294
    O   O25   0.807980  0.578190  0.000690  -0.645679
    O   O26   0.826430  0.762930  0.942020  -0.608371
    O   O27   0.786140  0.689590  0.029260  -0.660686
    O   O28   0.777200  0.780120  0.977050  -0.608514
    O   O29   0.336090  0.945780  0.962370  -0.702749
    O   O30   0.364910  0.922980  0.050600  -0.734087
    O   O31   0.346930  0.009350  0.001200  -0.691313
    O   O32   0.382720  0.829890  0.006340  -0.565334
    O   O33   0.432970  0.900950  0.000260  -0.822244
    O   O34   0.359450  0.827040  0.937830  -0.643706
    O   O35   0.306330  0.893550  0.022340  -0.609502
    O   O36   0.297580  0.820870  0.961880  -0.637778
    O   O37   0.934160  0.855730  0.367840  -0.530553
    O   O38   0.996790  0.683000  0.340030  -0.518097
    O   O39   0.969000  0.740690  0.623300  -0.525215
    O   O40   0.032170  0.568710  0.594860  -0.524800
    O   O41   0.750720  0.322760  0.996730  -0.528643
    O   O42   0.753680  0.259510  0.940570  -0.718001
    O   O43   0.714750  0.239240  0.005920  -0.771419
    O   O44   0.833860  0.217260  0.010490  -0.579530
    O   O45   0.805740  0.164550  0.970240  -0.723739
    O   O46   0.808950  0.312080  0.053310  -0.682458
    O   O47   0.820780  0.289710  0.954530  -0.560552
    O   O48   0.842660  0.357360  0.015270  -0.709558
    O   O49   0.054240  0.921780  0.007350  -0.643178
    O   O50   0.141520  0.931680  0.024340  -0.691386
    O   O51   0.061320  0.879540  0.055170  -0.781041
    O   O52   0.061800  0.037330  0.064250  -0.618487
    O   O53   0.125470  0.005380  0.081330  -0.767209
    O   O54   0.983730  0.002030  0.028950  -0.636404
    O   O55   0.117050  0.019120  0.008990  -0.648422
    O   O56   0.022470  0.046890  0.993340  -0.707470
    O   O57   0.991460  0.157230  0.993180  -0.570706
    O   O58   0.201610  0.069640  0.033660  -0.551830
    O   O59   0.973780  0.692790  0.043000  -0.505072
    O   O60   0.061010  0.145220  0.044630  -0.410605
    O   O61   0.346300  0.417780  0.036040  -0.518025
    O   O62   0.438170  0.774500  0.058280  -0.503420
    O   O63   0.724600  0.412770  0.030130  -0.412016
    O   O64   0.717320  0.673950  0.962400  -0.315510
    Zn  Zn1   0.540210  0.536130  0.987510  1.179640
    Zn  Zn2   0.548480  0.430100  0.945770  1.240783
    Zn  Zn3   0.291150  0.223190  0.022000  1.084160
    Zn  Zn4   0.228920  0.299330  0.990390  1.260149
    Zn  Zn5   0.814600  0.713590  0.989860  1.186108
    Zn  Zn6   0.864220  0.611620  0.011290  1.180297
    Zn  Zn7   0.339560  0.873210  0.984950  1.174057
    Zn  Zn8   0.396330  0.964350  0.013980  1.266652
    Zn  Zn9   0.807210  0.289330  0.999360  1.115387
    Zn  Zn10  0.749390  0.197310  0.975480  1.252139
    Zn  Zn11  0.058750  0.000090  0.023400  1.109019
    Zn  Zn12  0.110620  0.927860  0.067410  1.246486
