# Generated by REPEAT Assigner based on pymatgen
data_DB7-ddmof_21533
_audit_creation_date              2022-05-24
_audit_creation_method            REPEAT_Assigner
_cell_length_a                    17.069820
_cell_length_b                    18.986890
_cell_length_c                    49.118260
_cell_angle_alpha                 90.492600
_cell_angle_beta                  90.850020
_cell_angle_gamma                 110.734250
_cell_volume                      14885.037737
_symmetry_space_group_name_H-M    P1
_symmetry_Int_Tables_number       1
loop_
    _symmetry_equiv_pos_site_id
    _symmetry_equiv_pos_as_xyz
    1  x,y,z
loop_
    _atom_site_type_symbol
    _atom_site_label
    _atom_site_fract_x
    _atom_site_fract_y
    _atom_site_fract_z
    _atom_type_partial_charge
    C   C1    0.834860  0.472200  0.854390  0.935503
    C   C2    0.683720  0.186620  0.849730  0.739067
    C   C3    0.838270  0.430470  0.929370  0.860228
    C   C4    0.511780  0.275170  0.918560  1.258339
    C   C5    0.615820  0.535240  0.912750  0.782374
    C   C6    0.420410  0.264050  0.844170  0.508138
    C   C7    0.432900  0.160810  0.624700  0.984623
    C   C8    0.385900  0.352860  0.593930  0.695817
    C   C9    0.359500  0.180520  0.694280  0.814602
    C   C10   0.597490  0.498780  0.673700  0.885833
    C   C11   0.692450  0.271380  0.692540  0.931118
    C   C12   0.705670  0.477400  0.607040  0.800937
    C   C13   0.086850  0.980890  0.751350  0.703590
    C   C14   0.898280  0.743360  0.803630  0.670227
    C   C15   0.099580  0.066650  0.806640  0.940696
    C   C16   0.704340  0.915910  0.801120  0.861505
    C   C17   0.851260  0.102710  0.749400  0.842110
    C   C18   0.691570  0.775440  0.735640  0.655094
    C   C19   0.083450  0.628530  0.348060  0.796823
    C   C20   0.207970  0.912980  0.347850  0.686485
    C   C21   0.047660  0.663890  0.421310  0.905796
    C   C22   0.373180  0.860310  0.428790  1.001391
    C   C23   0.295670  0.578010  0.413530  0.828001
    C   C24   0.484420  0.855900  0.358400  0.456398
    C   C25   0.501530  0.929450  0.180000  0.661580
    C   C26   0.216180  0.817880  0.201500  0.918092
    C   C27   0.418430  0.970950  0.109440  0.850324
    C   C28   0.198880  0.666730  0.111270  0.960468
    C   C29   0.514660  0.750350  0.097000  0.772499
    C   C30   0.258980  0.569120  0.171760  0.519406
    C   C31   0.792940  0.080070  0.248750  0.918652
    C   C32   0.980790  0.337760  0.300180  0.592929
    C   C33   0.785620  0.008210  0.305820  0.817332
    C   C34   0.184200  0.177920  0.298850  0.792249
    C   C35   0.043120  0.973930  0.255640  0.691278
    C   C36   0.173120  0.296800  0.232400  0.773063
    C   C37   0.234690  0.497390  0.186030  0.286421
    C   C38   0.167250  0.477600  0.203870  -0.169000
    C   C39   0.145840  0.410770  0.218260  -0.194562
    C   C40   0.191950  0.363140  0.215160  -0.314003
    C   C41   0.258830  0.382130  0.196870  0.731762
    C   C42   0.279290  0.448800  0.182110  -0.578840
    C   C43   0.574360  0.967330  0.198520  0.079102
    C   C44   0.602050  0.045850  0.202830  -0.238103
    C   C45   0.671990  0.082210  0.219620  -0.055011
    C   C46   0.715720  0.040860  0.232300  -0.320322
    C   C47   0.687290  0.961870  0.228390  0.585010
    C   C48   0.616640  0.925530  0.211710  -0.388743
    C   C49   0.153650  0.836150  0.217400  -0.063487
    C   C50   0.166550  0.850670  0.245420  -0.293125
    C   C51   0.118390  0.884750  0.259400  -0.038010
    C   C52   0.059990  0.908100  0.245180  -0.216796
    C   C53   0.039840  0.884890  0.217860  0.490224
    C   C54   0.086450  0.848460  0.204080  -0.311749
    C   C55   0.559390  0.878470  0.341150  0.116771
    C   C56   0.558080  0.912090  0.315860  -0.179877
    C   C57   0.632440  0.946270  0.302000  -0.111326
    C   C58   0.708790  0.946980  0.313140  -0.124046
    C   C59   0.708590  0.904550  0.336520  0.552622
    C   C60   0.633880  0.870170  0.350420  -0.385139
    C   C61   0.039550  0.560630  0.331380  0.106943
    C   C62   0.074980  0.548300  0.307020  -0.320189
    C   C63   0.049230  0.476200  0.295180  -0.069029
    C   C64   0.988190  0.415410  0.307650  -0.078054
    C   C65   0.947180  0.429040  0.330690  0.480150
    C   C66   0.972500  0.501770  0.342340  -0.432972
    C   C67   0.194520  0.115970  0.314660  -0.164333
    C   C68   0.126900  0.067190  0.329200  0.049444
    C   C69   0.129540  0.998910  0.338870  -0.148526
    C   C70   0.199900  0.978920  0.334300  -0.110118
    C   C71   0.267500  0.027560  0.319670  0.339262
    C   C72   0.265590  0.096550  0.310640  -0.134897
    C   C73   0.395790  0.978140  0.500410  0.217504
    C   C74   0.384480  0.047650  0.502360  -0.065771
    C   C75   0.392170  0.084220  0.527710  -0.303342
    C   C76   0.411180  0.051400  0.551220  0.285176
    C   C77   0.422600  0.981990  0.549230  -0.161821
    C   C78   0.414930  0.945470  0.523910  -0.221118
    C   C79   0.419050  0.089040  0.577370  -0.051727
    C   C80   0.425470  0.121050  0.599130  -0.380056
    C   C81   0.387080  0.939660  0.474380  0.008475
    C   C82   0.380510  0.905130  0.453160  -0.457620
    C   C83   0.869580  0.562820  0.546070  0.010323
    C   C84   0.880030  0.633800  0.535480  -0.057463
    C   C85   0.920340  0.655440  0.510740  -0.293947
    C   C86   0.950430  0.606220  0.496530  0.319465
    C   C87   0.944050  0.536970  0.507840  -0.271741
    C   C88   0.903750  0.515330  0.532590  -0.074355
    C   C89   0.984420  0.625380  0.469880  0.012103
    C   C90   0.012750  0.642170  0.447580  -0.360080
    C   C91   0.813260  0.534240  0.568120  0.204118
    C   C92   0.766190  0.509650  0.586570  -0.436707
    C   C93   0.274030  0.405850  0.464280  0.007511
    C   C94   0.214570  0.395720  0.484680  -0.090635
    C   C95   0.231200  0.375540  0.510820  -0.238636
    C   C96   0.305970  0.363190  0.516240  0.370484
    C   C97   0.357950  0.360600  0.494750  -0.189041
    C   C98   0.341250  0.380960  0.468630  -0.210798
    C   C99   0.333670  0.361420  0.543860  -0.091082
    C   C100  0.357840  0.359820  0.566880  -0.174134
    C   C101  0.282530  0.463150  0.444590  0.217244
    C   C102  0.286510  0.511990  0.428730  -0.412529
    C   C103  0.751010  0.240550  0.705520  -0.205559
    C   C104  0.775400  0.187180  0.691620  -0.195174
    C   C105  0.820270  0.149030  0.705330  -0.083120
    C   C106  0.838600  0.162180  0.733260  -0.278635
    C   C107  0.820840  0.220570  0.746560  0.687617
    C   C108  0.777950  0.260210  0.732570  -0.449366
    C   C109  0.296850  0.113940  0.706110  0.255639
    C   C110  0.309030  0.090600  0.732310  -0.326266
    C   C111  0.241380  0.040120  0.746060  -0.013227
    C   C112  0.160600  0.015640  0.734210  -0.199527
    C   C113  0.150620  0.032310  0.706760  0.418631
    C   C114  0.218970  0.080680  0.692770  -0.420625
    C   C115  0.606630  0.569470  0.688370  -0.118779
    C   C116  0.593020  0.568460  0.716500  -0.292468
    C   C117  0.618040  0.635740  0.731690  0.003980
    C   C118  0.657840  0.705070  0.719000  -0.158970
    C   C119  0.669160  0.706290  0.690530  0.390798
    C   C120  0.642130  0.638730  0.675340  -0.186819
    C   C121  0.016190  0.563760  0.054720  0.221896
    C   C122  0.010890  0.491480  0.046170  -0.201762
    C   C123  0.969260  0.460610  0.021730  -0.177704
    C   C124  0.932330  0.501660  0.005780  0.184091
    C   C125  0.932400  0.571580  0.015280  -0.171458
    C   C126  0.974260  0.602580  0.039700  -0.185424
    C   C127  0.899820  0.474750  0.978880  0.078489
    C   C128  0.872230  0.453420  0.956310  -0.368177
    C   C129  0.077140  0.603000  0.075430  0.097620
    C   C130  0.129340  0.632840  0.092820  -0.461608
    C   C131  0.460900  0.090410  0.039740  0.318292
    C   C132  0.525000  0.089190  0.022490  -0.233796
    C   C133  0.536100  0.126680  0.997740  -0.118601
    C   C134  0.483100  0.165380  0.990220  0.151624
    C   C135  0.419600  0.167240  0.007610  -0.139682
    C   C136  0.408520  0.129800  0.032350  -0.259460
    C   C137  0.493960  0.203420  0.964780  0.129284
    C   C138  0.502210  0.235630  0.943520  -0.584270
    C   C139  0.446520  0.048620  0.064410  -0.037734
    C   C140  0.434200  0.013660  0.085120  -0.264886
    C   C141  0.648570  0.739650  0.030570  0.054754
    C   C142  0.620820  0.764700  0.006760  -0.094879
    C   C143  0.624800  0.731290  0.981540  -0.179830
    C   C144  0.657840  0.673580  0.979960  0.180877
    C   C145  0.695660  0.655680  0.003140  -0.117628
    C   C146  0.691630  0.689170  0.028380  -0.174476
    C   C147  0.642530  0.626030  0.955860  0.070029
    C   C148  0.630300  0.585650  0.935890  -0.328022
    C   C149  0.610320  0.746050  0.056040  0.111729
    C   C150  0.573680  0.753180  0.076120  -0.330611
    C   C151  0.689390  0.114500  0.839340  -0.036712
    C   C152  0.767720  0.107090  0.835660  -0.188572
    C   C153  0.772450  0.039490  0.825340  0.093430
    C   C154  0.699050  0.978710  0.818270  -0.376134
    C   C155  0.620570  0.985080  0.822910  0.477599
    C   C156  0.615950  0.052360  0.833530  -0.252687
    C   C157  0.185350  0.120410  0.811030  -0.195086
    C   C158  0.201340  0.197830  0.814210  -0.072286
    C   C159  0.280130  0.245920  0.823670  -0.180886
    C   C160  0.343620  0.217010  0.829590  0.015640
    C   C161  0.329000  0.140230  0.824590  0.474365
    C   C162  0.249970  0.092390  0.815830  -0.249427
    C   C163  0.886220  0.534740  0.837980  -0.059591
    C   C164  0.931800  0.602640  0.851470  -0.273719
    C   C165  0.937290  0.671240  0.839920  0.017668
    C   C166  0.899510  0.672140  0.814470  -0.282869
    C   C167  0.865800  0.605020  0.799130  0.747057
    C   C168  0.862260  0.536700  0.810600  -0.418512
    H   H1    0.672710  0.303960  0.909370  0.222374
    H   H2    0.603540  0.418950  0.850930  0.353435
    H   H3    0.460360  0.361080  0.670890  0.314463
    H   H4    0.632770  0.309850  0.630200  0.322659
    H   H5    0.905980  0.936370  0.815550  0.297208
    H   H6    0.865140  0.912120  0.737050  0.357538
    H   H7    0.209500  0.800480  0.410960  0.241757
    H   H8    0.321830  0.704410  0.358840  0.250661
    H   H9    0.280030  0.817330  0.127010  0.292543
    H   H10   0.425860  0.719450  0.162870  0.280159
    H   H11   0.975210  0.150360  0.314940  0.380792
    H   H12   0.004610  0.153710  0.235940  0.344042
    H   H13   0.093650  0.396150  0.232040  0.158975
    H   H14   0.331070  0.463590  0.168160  0.121980
    H   H15   0.131330  0.514060  0.206590  0.187826
    H   H16   0.351020  0.354190  0.207160  0.389846
    H   H17   0.693120  0.142810  0.222290  0.161761
    H   H18   0.594850  0.864860  0.209120  0.169681
    H   H19   0.570240  0.079050  0.192840  0.161358
    H   H20   0.767750  0.914170  0.228840  0.402238
    H   H21   0.132310  0.899850  0.280710  0.209661
    H   H22   0.074050  0.834560  0.182620  0.114852
    H   H23   0.216610  0.839100  0.256080  0.269694
    H   H24   0.006420  0.950920  0.195720  0.276129
    H   H25   0.631650  0.977990  0.283850  0.088303
    H   H26   0.634800  0.839970  0.368970  0.100116
    H   H27   0.500250  0.915240  0.307590  0.191779
    H   H28   0.804700  0.942200  0.359630  0.381575
    H   H29   0.080430  0.466680  0.277210  0.155688
    H   H30   0.943770  0.511080  0.360900  0.245214
    H   H31   0.125860  0.593610  0.298130  0.185094
    H   H32   0.912890  0.350280  0.356240  0.337034
    H   H33   0.077360  0.962070  0.350230  0.100277
    H   H34   0.317980  0.133550  0.299390  0.063141
    H   H35   0.071100  0.080780  0.332170  0.044424
    H   H36   0.322380  0.979960  0.296670  0.325207
    H   H37   0.369650  0.073300  0.484330  0.082815
    H   H38   0.383290  0.137900  0.529060  0.233316
    H   H39   0.437350  0.956260  0.567260  0.144871
    H   H40   0.423730  0.891760  0.522590  0.192527
    H   H41   0.854000  0.670900  0.545830  0.148954
    H   H42   0.926070  0.709510  0.502260  0.167645
    H   H43   0.968200  0.499080  0.497130  0.192206
    H   H44   0.896130  0.460450  0.540710  0.099851
    H   H45   0.160360  0.411760  0.481150  0.133668
    H   H46   0.188820  0.374460  0.527150  0.134226
    H   H47   0.414140  0.347830  0.498610  0.172764
    H   H48   0.385770  0.385570  0.452630  0.146337
    H   H49   0.834550  0.104730  0.694830  0.115897
    H   H50   0.761440  0.303080  0.743220  0.290191
    H   H51   0.756880  0.173200  0.670480  0.157224
    H   H52   0.792960  0.205660  0.783800  0.411948
    H   H53   0.251250  0.022090  0.766200  0.103609
    H   H54   0.210400  0.095350  0.671930  0.145798
    H   H55   0.369700  0.113970  0.742470  0.154351
    H   H56   0.047330  0.037540  0.694200  0.336434
    H   H57   0.607790  0.633760  0.753430  0.161152
    H   H58   0.653210  0.640050  0.653640  0.175506
    H   H59   0.565200  0.515310  0.726760  0.165763
    H   H60   0.768620  0.780090  0.678010  0.334713
    H   H61   0.042700  0.460870  0.057720  0.160845
    H   H62   0.968390  0.406030  0.014740  0.156585
    H   H63   0.902710  0.603130  0.003280  0.168418
    H   H64   0.977590  0.658260  0.046210  0.130787
    H   H65   0.565620  0.058680  0.028130  0.166867
    H   H66   0.585560  0.125370  0.984380  0.109723
    H   H67   0.378660  0.197390  0.001910  0.135162
    H   H68   0.358780  0.130810  0.045640  0.193415
    H   H69   0.589250  0.805070  0.008090  0.147685
    H   H70   0.597480  0.747020  0.963600  0.136495
    H   H71   0.723580  0.612630  0.001980  0.078117
    H   H72   0.715100  0.670610  0.046530  0.150234
    H   H73   0.833260  0.035810  0.821570  0.040158
    H   H74   0.555030  0.056490  0.836710  0.131217
    H   H75   0.824980  0.153790  0.840450  0.122604
    H   H76   0.531300  0.933350  0.798520  0.338654
    H   H77   0.290940  0.305030  0.827250  0.092920
    H   H78   0.237750  0.032500  0.813910  0.085397
    H   H79   0.151910  0.220180  0.810650  0.175355
    H   H80   0.419400  0.112030  0.813230  0.400515
    H   H81   0.967410  0.723250  0.851290  0.058414
    H   H82   0.831070  0.484490  0.799440  0.203809
    H   H83   0.954150  0.601990  0.872200  0.204204
    H   H84   0.775510  0.598710  0.775150  0.346927
    Ni  Ni1   0.590770  0.287580  0.863970  1.193359
    Ni  Ni2   0.698370  0.434370  0.893780  1.082106
    Ni  Ni3   0.796630  0.321010  0.881870  1.221904
    Ni  Ni4   0.490500  0.393800  0.884430  1.070835
    Ni  Ni5   0.540530  0.387730  0.626470  1.196215
    Ni  Ni6   0.528190  0.263360  0.669420  1.184181
    Ni  Ni7   0.350310  0.263120  0.644980  1.210230
    Ni  Ni8   0.706180  0.412670  0.662590  1.112403
    Ni  Ni9   0.818970  0.843230  0.779780  1.093295
    Ni  Ni10  0.940290  0.010860  0.773580  1.245757
    Ni  Ni11  0.022520  0.899570  0.803490  1.067912
    Ni  Ni12  0.739700  0.943240  0.743510  1.034172
    Ni  Ni13  0.310050  0.829950  0.370730  1.102236
    Ni  Ni14  0.204390  0.674500  0.394050  1.144146
    Ni  Ni15  0.096310  0.775450  0.376220  1.202349
    Ni  Ni16  0.411510  0.738210  0.400420  1.021279
    Ni  Ni17  0.281090  0.727420  0.165480  1.174311
    Ni  Ni18  0.430030  0.829340  0.131420  1.123317
    Ni  Ni19  0.328270  0.918900  0.161280  1.209822
    Ni  Ni20  0.356240  0.643190  0.122400  1.028477
    Ni  Ni21  0.056150  0.233820  0.277250  1.153758
    Ni  Ni22  0.944190  0.063530  0.274980  1.179102
    Ni  Ni23  0.855090  0.177920  0.298550  1.155778
    Ni  Ni24  0.137570  0.133360  0.242480  1.078988
    O   O1    0.687900  0.327070  0.891330  -0.954782
    O   O2    0.610600  0.187990  0.857560  -0.597702
    O   O3    0.748740  0.250270  0.847980  -0.816217
    O   O4    0.512110  0.239360  0.895460  -0.506050
    O   O5    0.412590  0.292600  0.868290  -0.600046
    O   O6    0.857570  0.413300  0.857990  -0.645718
    O   O7    0.807690  0.475060  0.915950  -0.648586
    O   O8    0.595330  0.393780  0.868780  -0.919686
    O   O9    0.491270  0.255540  0.837720  -0.647498
    O   O10   0.680120  0.533780  0.898820  -0.544473
    O   O11   0.538320  0.501120  0.903310  -0.618038
    O   O12   0.511460  0.344280  0.918830  -0.777397
    O   O13   0.758040  0.467550  0.858380  -0.649284
    O   O14   0.855270  0.375530  0.916740  -0.708905
    O   O15   0.463740  0.327280  0.655870  -0.858210
    O   O16   0.447380  0.409310  0.605100  -0.577318
    O   O17   0.366730  0.284980  0.603760  -0.827402
    O   O18   0.565750  0.487040  0.648690  -0.583529
    O   O19   0.727140  0.493020  0.633080  -0.674483
    O   O20   0.365560  0.162990  0.636450  -0.590860
    O   O21   0.438770  0.184860  0.692520  -0.742129
    O   O22   0.612150  0.336650  0.644150  -1.043431
    O   O23   0.626210  0.447450  0.599470  -0.551611
    O   O24   0.618690  0.224530  0.683870  -0.559810
    O   O25   0.705970  0.343850  0.695410  -0.809225
    O   O26   0.630730  0.452860  0.684440  -0.627051
    O   O27   0.505870  0.188360  0.637280  -0.551752
    O   O28   0.334360  0.233450  0.684390  -0.856205
    O   O29   0.921510  0.922280  0.797520  -0.816659
    O   O30   0.828490  0.758500  0.803870  -0.578916
    O   O31   0.964480  0.788100  0.791050  -0.643740
    O   O32   0.753040  0.878790  0.808390  -0.552508
    O   O33   0.690800  0.839620  0.725100  -0.583290
    O   O34   0.086040  0.925630  0.767460  -0.564357
    O   O35   0.043220  0.087550  0.793260  -0.749268
    O   O36   0.843650  0.928010  0.753730  -0.909941
    O   O37   0.710740  0.771070  0.761720  -0.624362
    O   O38   0.925160  0.095370  0.750570  -0.626331
    O   O39   0.785810  0.051350  0.760020  -0.827294
    O   O40   0.669500  0.904450  0.776880  -0.561173
    O   O41   0.016940  0.991790  0.745210  -0.667401
    O   O42   0.076720  0.003520  0.820580  -0.743283
    O   O43   0.204010  0.779190  0.392270  -0.910605
    O   O44   0.277920  0.920800  0.361160  -0.586604
    O   O45   0.150310  0.845480  0.343790  -0.802094
    O   O46   0.371920  0.890060  0.404790  -0.422702
    O   O47   0.490720  0.835820  0.383930  -0.525582
    O   O48   0.049330  0.680270  0.351340  -0.638245
    O   O49   0.087360  0.623910  0.409440  -0.689405
    O   O50   0.316380  0.727880  0.376450  -0.797267
    O   O51   0.419110  0.873040  0.350560  -0.586663
    O   O52   0.231910  0.578570  0.398250  -0.567522
    O   O53   0.351850  0.641600  0.422800  -0.667491
    O   O54   0.374920  0.792250  0.430950  -0.680610
    O   O55   0.161260  0.642070  0.355420  -0.598373
    O   O56   0.030200  0.717480  0.408170  -0.703325
    O   O57   0.316660  0.823680  0.143340  -0.913436
    O   O58   0.194090  0.754130  0.187620  -0.609647
    O   O59   0.291560  0.868940  0.198770  -0.975266
    O   O60   0.186390  0.673340  0.137370  -0.486008
    O   O61   0.263570  0.568160  0.144790  -0.561460
    O   O62   0.452580  0.966440  0.172770  -0.528941
    O   O63   0.470680  0.936830  0.116810  -0.614468
    O   O64   0.386920  0.725610  0.148730  -0.823186
    O   O65   0.252090  0.627930  0.184670  -0.680726
    O   O66   0.528930  0.808510  0.113830  -0.564510
    O   O67   0.437730  0.702970  0.092690  -0.669961
    O   O68   0.274210  0.680450  0.102410  -0.641907
    O   O69   0.496190  0.866390  0.167330  -0.524385
    O   O70   0.356790  0.972840  0.125260  -0.763716
    O   O71   0.958090  0.157510  0.296130  -0.945302
    O   O72   0.048940  0.320360  0.300850  -0.594544
    O   O73   0.911230  0.291770  0.288060  -0.647435
    O   O74   0.129080  0.207530  0.306180  -0.599042
    O   O75   0.171200  0.231690  0.221650  -0.708387
    O   O76   0.803030  0.145830  0.260230  -0.725012
    O   O77   0.850200  0.990710  0.297280  -0.660304
    O   O78   0.031650  0.143660  0.252690  -0.865364
    O   O79   0.160330  0.303970  0.258580  -0.603176
    O   O80   0.966000  0.974370  0.256390  -0.522611
    O   O81   0.106570  0.033570  0.263660  -0.827349
    O   O82   0.212530  0.188610  0.274140  -0.549905
    O   O83   0.858230  0.060140  0.245030  -0.654652
    O   O84   0.796270  0.076040  0.316190  -0.808383
    O   O85   0.304460  0.336050  0.193540  -0.584246
    O   O86   0.726150  0.919760  0.241770  -0.630727
    O   O87   0.977890  0.901360  0.204200  -0.463845
    O   O88   0.781930  0.899540  0.346490  -0.551468
    O   O89   0.884460  0.371090  0.342390  -0.561256
    O   O90   0.335770  0.007860  0.314310  -0.432887
    O   O91   0.842490  0.236910  0.773520  -0.610431
    O   O92   0.075020  0.999620  0.693370  -0.405281
    O   O93   0.708190  0.773070  0.677610  -0.530948
    O   O94   0.548140  0.925310  0.817320  -0.519867
    O   O95   0.389750  0.110610  0.830550  -0.531538
    O   O96   0.835600  0.605940  0.773140  -0.653608
