# generated using pymatgen
data_Ni2H9C13O7
_symmetry_space_group_name_H-M   'P 1'
_cell_length_a   18.28153000
_cell_length_b   16.76158000
_cell_length_c   39.94423000
_cell_angle_alpha   90.48756000
_cell_angle_beta   91.02036000
_cell_angle_gamma   110.98939000
_symmetry_Int_Tables_number   1
_chemical_formula_structural   Ni2H9C13O7
_chemical_formula_sum   'Ni24 H108 C156 O84'
_cell_volume   11424.57454790
_cell_formula_units_Z   12
loop_
 _symmetry_equiv_pos_site_id
 _symmetry_equiv_pos_as_xyz
  1  'x, y, z'
loop_
 _atom_site_type_symbol
 _atom_site_label
 _atom_site_symmetry_multiplicity
 _atom_site_fract_x
 _atom_site_fract_y
 _atom_site_fract_z
 _atom_site_occupancy
  Ni  Ni1  1  0.73919000  0.40453000  0.88545000  1
  Ni  Ni2  1  0.56215000  0.37976000  0.88469000  1
  Ni  Ni3  1  0.60266000  0.22683000  0.85328000  1
  Ni  Ni4  1  0.69900000  0.53182000  0.93542000  1
  Ni  Ni5  1  0.65675000  0.40899000  0.56734000  1
  Ni  Ni6  1  0.53465000  0.25733000  0.60499000  1
  Ni  Ni7  1  0.47096000  0.32373000  0.54050000  1
  Ni  Ni8  1  0.73598000  0.31724000  0.61894000  1
  Ni  Ni9  1  0.93974000  0.01730000  0.67854000  1
  Ni  Ni10  1  0.99739000  0.01461000  0.75238000  1
  Ni  Ni11  1  0.09096000  0.17692000  0.71129000  1
  Ni  Ni12  1  0.80116000  0.89922000  0.72897000  1
  Ni  Ni13  1  0.15269000  0.70004000  0.39284000  1
  Ni  Ni14  1  0.33351000  0.74541000  0.39907000  1
  Ni  Ni15  1  0.27900000  0.88257000  0.36284000  1
  Ni  Ni16  1  0.20591000  0.58892000  0.44638000  1
  Ni  Ni17  1  0.22709000  0.73459000  0.10615000  1
  Ni  Ni18  1  0.34377000  0.78454000  0.04650000  1
  Ni  Ni19  1  0.36580000  0.93321000  0.10035000  1
  Ni  Ni20  1  0.23378000  0.57516000  0.06247000  1
  Ni  Ni21  1  0.91162000  0.06809000  0.18860000  1
  Ni  Ni22  1  0.87873000  0.08351000  0.26411000  1
  Ni  Ni23  1  0.76794000  0.91807000  0.22604000  1
  Ni  Ni24  1  0.06652000  0.18805000  0.23414000  1
  H  H1  1  0.64224000  0.37626000  0.83462000  1
  H  H2  1  0.65191000  0.37603000  0.93433000  1
  H  H3  1  0.52582000  0.40198000  0.59368000  1
  H  H4  1  0.65163000  0.25857000  0.56959000  1
  H  H5  1  0.07612000  0.02446000  0.70062000  1
  H  H6  1  0.87713000  0.05055000  0.72951000  1
  H  H7  1  0.25473000  0.73291000  0.34564000  1
  H  H8  1  0.23602000  0.74253000  0.44472000  1
  H  H9  1  0.25187000  0.85758000  0.06377000  1
  H  H10  1  0.33817000  0.68402000  0.09518000  1
  H  H11  1  0.78502000  0.07058000  0.21556000  1
  H  H12  1  0.98768000  0.03705000  0.23697000  1
  H  H13  1  0.01462000  0.40737000  0.10372000  1
  H  H14  1  0.92592000  0.40686000  0.16147000  1
  H  H15  1  0.06145000  0.27872000  0.13214000  1
  H  H16  1  0.19416000  0.40631000  0.16232000  1
  H  H17  1  0.10746000  0.40858000  0.21957000  1
  H  H18  1  0.05963000  0.53613000  0.19113000  1
  H  H19  1  0.61927000  0.81138000  0.07094000  1
  H  H20  1  0.66531000  0.76575000  0.13390000  1
  H  H21  1  0.71896000  0.98410000  0.08355000  1
  H  H22  1  0.59203000  0.01555000  0.11363000  1
  H  H23  1  0.63791000  0.96981000  0.17653000  1
  H  H24  1  0.53922000  0.79769000  0.16410000  1
  H  H25  1  0.21993000  0.98712000  0.20809000  1
  H  H26  1  0.05709000  0.95370000  0.20088000  1
  H  H27  1  0.25114000  0.14455000  0.17417000  1
  H  H28  1  0.24899000  0.05809000  0.11232000  1
  H  H29  1  0.08643000  0.02430000  0.10509000  1
  H  H30  1  0.05432000  0.86836000  0.13911000  1
  H  H31  1  0.52663000  0.78823000  0.31519000  1
  H  H32  1  0.67351000  0.88144000  0.34592000  1
  H  H33  1  0.55911000  0.90707000  0.26275000  1
  H  H34  1  0.48947000  0.00597000  0.29910000  1
  H  H35  1  0.63855000  0.10030000  0.32930000  1
  H  H36  1  0.60400000  0.98042000  0.38228000  1
  H  H37  1  0.08703000  0.24880000  0.37032000  1
  H  H38  1  0.99807000  0.34489000  0.39405000  1
  H  H39  1  0.20683000  0.40281000  0.35137000  1
  H  H40  1  0.13385000  0.38853000  0.28728000  1
  H  H41  1  0.04506000  0.48457000  0.31097000  1
  H  H42  1  0.92503000  0.33017000  0.32983000  1
  H  H43  1  0.99915000  0.89200000  0.36335000  1
  H  H44  1  0.86728000  0.78428000  0.32585000  1
  H  H45  1  0.04052000  0.00691000  0.30962000  1
  H  H46  1  0.13244000  0.91875000  0.28284000  1
  H  H47  1  0.99997000  0.81152000  0.24498000  1
  H  H48  1  0.96024000  0.69542000  0.29932000  1
  H  H49  1  0.38032000  0.04433000  0.52413000  1
  H  H50  1  0.29712000  0.97528000  0.47419000  1
  H  H51  1  0.54973000  0.09366000  0.50074000  1
  H  H52  1  0.45947000  0.95962000  0.47200000  1
  H  H53  1  0.01229000  0.49188000  0.49724000  1
  H  H54  1  0.93168000  0.40523000  0.54033000  1
  H  H55  1  0.92735000  0.59219000  0.45860000  1
  H  H56  1  0.84718000  0.51149000  0.50524000  1
  H  H57  1  0.53719000  0.50101000  0.45719000  1
  H  H58  1  0.41717000  0.50597000  0.43055000  1
  H  H59  1  0.57809000  0.62338000  0.51802000  1
  H  H60  1  0.50057000  0.66780000  0.47318000  1
  H  H61  1  0.82866000  0.14962000  0.66626000  1
  H  H62  1  0.71632000  0.15959000  0.71230000  1
  H  H63  1  0.73000000  0.16013000  0.61249000  1
  H  H64  1  0.65868000  0.97972000  0.61054000  1
  H  H65  1  0.54571000  0.99018000  0.65671000  1
  H  H66  1  0.64547000  0.97824000  0.71050000  1
  H  H67  1  0.20040000  0.12008000  0.67145000  1
  H  H68  1  0.29995000  0.28576000  0.65356000  1
  H  H69  1  0.24787000  0.05099000  0.61442000  1
  H  H70  1  0.12228000  0.07067000  0.57644000  1
  H  H71  1  0.22325000  0.23713000  0.55843000  1
  H  H72  1  0.17555000  0.30591000  0.61546000  1
  H  H73  1  0.90759000  0.65740000  0.70008000  1
  H  H74  1  0.91688000  0.61197000  0.63217000  1
  H  H75  1  0.74330000  0.56706000  0.69726000  1
  H  H76  1  0.71993000  0.71724000  0.67689000  1
  H  H77  1  0.72942000  0.67242000  0.60901000  1
  H  H78  1  0.89425000  0.76371000  0.61194000  1
  H  H79  1  0.03712000  0.52247000  0.00796000  1
  H  H80  1  0.94920000  0.46207000  0.95917000  1
  H  H81  1  0.00812000  0.68076000  0.03488000  1
  H  H82  1  0.89987000  0.59424000  0.99719000  1
  H  H83  1  0.47308000  0.95373000  0.96732000  1
  H  H84  1  0.46536000  0.16666000  0.96405000  1
  H  H85  1  0.48627000  0.10033000  0.01661000  1
  H  H86  1  0.57508000  0.07880000  0.93795000  1
  H  H87  1  0.40320000  0.48598000  0.94366000  1
  H  H88  1  0.30092000  0.51567000  0.97507000  1
  H  H89  1  0.52409000  0.65370000  0.91911000  1
  H  H90  1  0.43280000  0.68215000  0.95663000  1
  H  H91  1  0.85666000  0.27005000  0.73730000  1
  H  H92  1  0.90487000  0.39298000  0.79065000  1
  H  H93  1  0.73610000  0.16281000  0.77848000  1
  H  H94  1  0.84016000  0.08459000  0.80232000  1
  H  H95  1  0.88956000  0.20666000  0.85519000  1
  H  H96  1  0.00945000  0.31436000  0.81446000  1
  H  H97  1  0.39835000  0.12321000  0.78201000  1
  H  H98  1  0.31830000  0.21423000  0.74698000  1
  H  H99  1  0.25514000  0.02218000  0.81192000  1
  H  H100  1  0.28905000  0.14294000  0.86591000  1
  H  H101  1  0.20894000  0.23398000  0.83085000  1
  H  H102  1  0.35092000  0.33431000  0.80066000  1
  H  H103  1  0.90961000  0.76438000  0.88564000  1
  H  H104  1  0.81314000  0.85290000  0.86207000  1
  H  H105  1  0.97686000  0.77796000  0.82139000  1
  H  H106  1  0.85917000  0.61870000  0.80232000  1
  H  H107  1  0.76297000  0.70728000  0.77877000  1
  H  H108  1  0.69590000  0.69448000  0.84281000  1
  C  C1  1  0.54487000  0.21882000  0.92206000  1
  C  C2  1  0.77496000  0.28895000  0.83796000  1
  C  C3  1  0.44912000  0.25286000  0.84015000  1
  C  C4  1  0.78325000  0.58999000  0.87203000  1
  C  C5  1  0.54209000  0.53094000  0.91438000  1
  C  C6  1  0.84041000  0.48542000  0.94625000  1
  C  C7  1  0.51360000  0.17060000  0.53744000  1
  C  C8  1  0.58495000  0.49417000  0.51986000  1
  C  C9  1  0.36773000  0.22414000  0.59514000  1
  C  C10  1  0.74495000  0.49961000  0.62721000  1
  C  C11  1  0.61385000  0.18986000  0.65607000  1
  C  C12  1  0.81919000  0.40847000  0.55826000  1
  C  C13  1  0.97314000  0.17865000  0.76054000  1
  C  C14  1  0.05947000  0.13962000  0.63909000  1
  C  C15  1  0.15899000  0.11749000  0.77121000  1
  C  C16  1  0.88856000  0.82602000  0.68608000  1
  C  C17  1  0.87827000  0.88195000  0.79235000  1
  C  C18  1  0.77351000  0.96051000  0.66299000  1
  C  C19  1  0.32862000  0.90219000  0.43419000  1
  C  C20  1  0.10661000  0.80518000  0.34365000  1
  C  C21  1  0.43991000  0.87251000  0.35572000  1
  C  C22  1  0.12649000  0.51557000  0.38081000  1
  C  C23  1  0.37236000  0.61167000  0.43358000  1
  C  C24  1  0.05097000  0.60731000  0.44978000  1
  C  C25  1  0.47293000  0.83947000  0.09970000  1
  C  C26  1  0.22493000  0.88700000  0.14320000  1
  C  C27  1  0.42613000  0.96452000  0.02957000  1
  C  C28  1  0.10557000  0.64353000  0.05410000  1
  C  C29  1  0.31647000  0.63928000  0.99986000  1
  C  C30  1  0.16369000  0.54986000  0.12885000  1
  C  C31  1  0.89664000  0.91558000  0.27127000  1
  C  C32  1  0.78048000  0.94125000  0.15254000  1
  C  C33  1  0.72160000  0.99253000  0.28716000  1
  C  C34  1  0.96885000  0.26035000  0.19631000  1
  C  C35  1  0.01198000  0.21739000  0.30051000  1
  C  C36  1  0.07113000  0.11689000  0.16659000  1
  C  C37  1  0.03506000  0.40686000  0.13004000  1
  C  C38  1  0.98679000  0.40731000  0.16164000  1
  C  C39  1  0.06121000  0.33678000  0.14564000  1
  C  C40  1  0.01377000  0.33817000  0.17688000  1
  C  C41  1  0.10703000  0.47582000  0.14666000  1
  C  C42  1  0.13347000  0.40649000  0.16199000  1
  C  C43  1  0.08590000  0.40776000  0.19335000  1
  C  C44  1  0.05966000  0.47768000  0.17786000  1
  C  C45  1  0.62393000  0.84747000  0.09480000  1
  C  C46  1  0.64850000  0.82220000  0.12929000  1
  C  C47  1  0.67802000  0.94179000  0.10163000  1
  C  C48  1  0.70134000  0.91608000  0.13591000  1
  C  C49  1  0.55627000  0.86537000  0.11170000  1
  C  C50  1  0.60907000  0.95925000  0.11824000  1
  C  C51  1  0.63346000  0.93384000  0.15264000  1
  C  C52  1  0.57995000  0.83990000  0.14592000  1
  C  C53  1  0.18975000  0.99617000  0.18486000  1
  C  C54  1  0.10057000  0.97710000  0.18081000  1
  C  C55  1  0.20708000  0.08184000  0.16625000  1
  C  C56  1  0.11852000  0.06167000  0.16210000  1
  C  C57  1  0.18740000  0.95039000  0.15109000  1
  C  C58  1  0.20556000  0.03500000  0.13242000  1
  C  C59  1  0.11660000  0.01571000  0.12841000  1
  C  C60  1  0.09893000  0.93075000  0.14703000  1
  C  C61  1  0.55182000  0.85880000  0.31847000  1
  C  C62  1  0.63178000  0.90955000  0.33531000  1
  C  C63  1  0.56919000  0.92362000  0.28985000  1
  C  C64  1  0.64903000  0.97421000  0.30672000  1
  C  C65  1  0.51500000  0.91347000  0.33809000  1
  C  C66  1  0.53165000  0.97835000  0.30961000  1
  C  C67  1  0.61272000  0.02974000  0.32624000  1
  C  C68  1  0.59445000  0.96432000  0.35514000  1
  C  C69  1  0.07777000  0.30237000  0.35698000  1
  C  C70  1  0.02867000  0.35439000  0.36982000  1
  C  C71  1  0.14304000  0.38607000  0.34650000  1
  C  C72  1  0.09380000  0.43724000  0.35906000  1
  C  C73  1  0.03828000  0.29596000  0.32227000  1
  C  C74  1  0.10329000  0.37893000  0.31152000  1
  C  C75  1  0.05426000  0.43100000  0.32434000  1
  C  C76  1  0.98880000  0.34703000  0.33475000  1
  C  C77  1  0.99926000  0.87361000  0.33658000  1
  C  C78  1  0.92742000  0.81449000  0.31621000  1
  C  C79  1  0.02214000  0.93631000  0.30728000  1
  C  C80  1  0.95051000  0.87714000  0.28700000  1
  C  C81  1  0.04910000  0.82577000  0.32174000  1
  C  C82  1  0.07230000  0.88829000  0.29245000  1
  C  C83  1  0.00013000  0.82932000  0.27182000  1
  C  C84  1  0.97788000  0.76593000  0.30146000  1
  C  C85  1  0.34263000  0.95309000  0.46544000  1
  C  C86  1  0.41258000  0.97860000  0.48146000  1
  C  C87  1  0.42894000  0.03953000  0.50996000  1
  C  C88  1  0.50154000  0.09583000  0.51580000  1
  C  C89  1  0.88637000  0.43205000  0.53587000  1
  C  C90  1  0.89337000  0.48650000  0.51064000  1
  C  C91  1  0.96548000  0.51535000  0.49097000  1
  C  C92  1  0.97530000  0.57221000  0.46646000  1
  C  C93  1  0.42929000  0.57012000  0.44050000  1
  C  C94  1  0.49034000  0.60546000  0.46177000  1
  C  C95  1  0.53823000  0.55530000  0.47259000  1
  C  C96  1  0.57086000  0.56588000  0.50346000  1
  C  C97  1  0.76459000  0.11346000  0.66407000  1
  C  C98  1  0.70344000  0.11859000  0.68937000  1
  C  C99  1  0.71084000  0.11885000  0.63466000  1
  C  C100  1  0.65000000  0.12355000  0.65995000  1
  C  C101  1  0.72494000  0.01546000  0.66291000  1
  C  C102  1  0.67146000  0.02048000  0.63354000  1
  C  C103  1  0.60987000  0.02567000  0.65885000  1
  C  C104  1  0.66419000  0.01970000  0.68837000  1
  C  C105  1  0.20557000  0.14647000  0.64584000  1
  C  C106  1  0.25968000  0.23716000  0.63612000  1
  C  C107  1  0.23098000  0.10835000  0.61465000  1
  C  C108  1  0.28428000  0.19900000  0.60511000  1
  C  C109  1  0.13861000  0.15776000  0.62484000  1
  C  C110  1  0.16283000  0.11931000  0.59376000  1
  C  C111  1  0.21754000  0.21035000  0.58399000  1
  C  C112  1  0.19212000  0.24832000  0.61523000  1
  C  C113  1  0.86716000  0.66056000  0.67949000  1
  C  C114  1  0.87267000  0.63643000  0.64235000  1
  C  C115  1  0.77760000  0.61157000  0.67800000  1
  C  C116  1  0.78330000  0.58831000  0.64112000  1
  C  C117  1  0.85401000  0.74184000  0.66806000  1
  C  C118  1  0.76463000  0.69355000  0.66666667  1
  C  C119  1  0.77001000  0.66945000  0.62957000  1
  C  C120  1  0.85989000  0.71897000  0.63110000  1
  C  C121  1  0.91222000  0.49757000  0.96618000  1
  C  C122  1  0.93472000  0.55539000  0.99136000  1
  C  C123  1  0.00721000  0.56759000  0.01111000  1
  C  C124  1  0.03594000  0.63347000  0.03290000  1
  C  C125  1  0.51157000  0.15838000  0.94928000  1
  C  C126  1  0.53140000  0.08918000  0.95371000  1
  C  C127  1  0.48596000  0.01918000  0.97584000  1
  C  C128  1  0.46709000  0.03504000  0.00699000  1
  C  C129  1  0.33653000  0.58338000  0.97608000  1
  C  C130  1  0.40012000  0.61367000  0.95726000  1
  C  C131  1  0.43082000  0.55444000  0.93997000  1
  C  C132  1  0.49732000  0.58527000  0.92300000  1
  C  C133  1  0.86362000  0.25600000  0.76403000  1
  C  C134  1  0.89070000  0.32313000  0.79309000  1
  C  C135  1  0.79812000  0.19709000  0.78638000  1
  C  C136  1  0.82619000  0.26342000  0.81507000  1
  C  C137  1  0.91977000  0.21385000  0.77778000  1
  C  C138  1  0.85483000  0.15451000  0.79974000  1
  C  C139  1  0.88234000  0.22114000  0.82853000  1
  C  C140  1  0.94749000  0.28022000  0.80643000  1
  C  C141  1  0.35505000  0.14777000  0.79304000  1
  C  C142  1  0.31176000  0.19832000  0.77396000  1
  C  C143  1  0.27710000  0.09272000  0.80945000  1
  C  C144  1  0.23486000  0.14383000  0.79060000  1
  C  C145  1  0.37179000  0.21318000  0.82213000  1
  C  C146  1  0.29522000  0.15857000  0.83891000  1
  C  C147  1  0.25200000  0.20912000  0.81977000  1
  C  C148  1  0.32931000  0.26379000  0.80323000  1
  C  C149  1  0.87660000  0.75190000  0.86137000  1
  C  C150  1  0.82335000  0.79971000  0.84863000  1
  C  C151  1  0.91331000  0.75857000  0.82629000  1
  C  C152  1  0.85971000  0.80544000  0.81395000  1
  C  C153  1  0.81273000  0.66666667  0.85044000  1
  C  C154  1  0.84914000  0.67201000  0.81575000  1
  C  C155  1  0.79600000  0.71993000  0.80305000  1
  C  C156  1  0.75948000  0.71365000  0.83797000  1
  O  O1  1  0.63852000  0.35034000  0.85701000  1
  O  O2  1  0.80216000  0.36657000  0.85113000  1
  O  O3  1  0.71724000  0.22819000  0.85243000  1
  O  O4  1  0.75633000  0.51314000  0.85840000  1
  O  O5  1  0.78049000  0.49811000  0.96073000  1
  O  O6  1  0.60171000  0.21150000  0.90401000  1
  O  O7  1  0.46846000  0.33174000  0.85243000  1
  O  O8  1  0.65867000  0.41696000  0.91592000  1
  O  O9  1  0.83925000  0.46654000  0.91381000  1
  O  O10  1  0.50679000  0.44749000  0.91053000  1
  O  O11  1  0.61737000  0.56716000  0.90864000  1
  O  O12  1  0.78625000  0.60062000  0.90457000  1
  O  O13  1  0.51152000  0.27412000  0.91401000  1
  O  O14  1  0.48397000  0.20115000  0.85173000  1
  O  O15  1  0.54077000  0.36176000  0.57951000  1
  O  O16  1  0.64194000  0.50914000  0.54239000  1
  O  O17  1  0.54521000  0.41539000  0.50953000  1
  O  O18  1  0.67772000  0.47888000  0.61090000  1
  O  O19  1  0.81432000  0.35037000  0.58138000  1
  O  O20  1  0.52522000  0.24438000  0.52361000  1
  O  O21  1  0.42061000  0.22311000  0.61798000  1
  O  O22  1  0.64722000  0.29725000  0.58764000  1
  O  O23  1  0.77488000  0.45613000  0.55892000  1
  O  O24  1  0.54877000  0.17018000  0.63816000  1
  O  O25  1  0.66055000  0.27008000  0.65793000  1
  O  O26  1  0.77160000  0.44039000  0.63712000  1
  O  O27  1  0.49868000  0.16003000  0.56949000  1
  O  O28  1  0.38372000  0.22610000  0.56282000  1
  O  O29  1  0.03960000  0.05274000  0.70763000  1
  O  O30  1  0.00766000  0.06125000  0.63733000  1
  O  O31  1  0.05340000  0.19077000  0.66307000  1
  O  O32  1  0.93746000  0.89370000  0.67079000  1
  O  O33  1  0.75510000  0.89290000  0.68193000  1
  O  O34  1  0.99761000  0.20255000  0.73024000  1
  O  O35  1  0.10447000  0.04053000  0.77558000  1
  O  O36  1  0.89475000  0.00224000  0.72536000  1
  O  O37  1  0.84190000  0.98886000  0.64905000  1
  O  O38  1  0.94888000  0.94107000  0.79348000  1
  O  O39  1  0.81986000  0.89997000  0.77984000  1
  O  O40  1  0.86939000  0.83137000  0.71729000  1
  O  O41  1  0.99439000  0.12188000  0.77601000  1
  O  O42  1  0.13956000  0.17983000  0.75803000  1
  O  O43  1  0.25386000  0.76049000  0.36758000  1
  O  O44  1  0.08719000  0.72708000  0.35533000  1
  O  O45  1  0.16130000  0.86945000  0.35926000  1
  O  O46  1  0.14801000  0.59147000  0.36725000  1
  O  O47  1  0.11577000  0.61379000  0.46685000  1
  O  O48  1  0.27385000  0.90461000  0.41303000  1
  O  O49  1  0.42760000  0.79784000  0.36981000  1
  O  O50  1  0.23489000  0.70135000  0.42668000  1
  O  O51  1  0.05249000  0.63186000  0.41813000  1
  O  O52  1  0.39680000  0.69490000  0.42957000  1
  O  O53  1  0.29934000  0.56389000  0.42574000  1
  O  O54  1  0.12688000  0.50685000  0.41341000  1
  O  O55  1  0.37228000  0.85677000  0.42731000  1
  O  O56  1  0.39926000  0.92054000  0.36477000  1
  O  O57  1  0.28770000  0.83714000  0.07707000  1
  O  O58  1  0.18110000  0.80847000  0.13388000  1
  O  O59  1  0.30176000  0.91102000  0.14404000  1
  O  O60  1  0.13824000  0.71498000  0.07130000  1
  O  O61  1  0.21717000  0.53627000  0.11029000  1
  O  O62  1  0.42328000  0.85829000  0.11841000  1
  O  O63  1  0.38972000  0.88715000  0.01658000  1
  O  O64  1  0.29677000  0.68883000  0.07992000  1
  O  O65  1  0.15968000  0.62730000  0.13212000  1
  O  O66  1  0.37144000  0.70848000  0.01213000  1
  O  O67  1  0.24676000  0.61239000  0.01296000  1
  O  O68  1  0.12237000  0.57588000  0.06136000  1
  O  O69  1  0.45442000  0.81439000  0.06830000  1
  O  O70  1  0.44368000  0.97539000  0.06213000  1
  O  O71  1  0.82184000  0.04111000  0.22108000  1
  O  O72  1  0.83079000  0.02016000  0.15008000  1
  O  O73  1  0.79011000  0.89347000  0.17689000  1
  O  O74  1  0.91685000  0.19274000  0.18085000  1
  O  O75  1  0.09726000  0.18656000  0.18542000  1
  O  O76  1  0.86319000  0.88900000  0.24185000  1
  O  O77  1  0.78021000  0.06724000  0.29078000  1
  O  O78  1  0.97107000  0.08634000  0.23355000  1
  O  O79  1  0.99872000  0.08865000  0.15556000  1
  O  O80  1  0.94124000  0.16001000  0.30371000  1
  O  O81  1  0.06534000  0.19628000  0.28552000  1
  O  O82  1  0.99395000  0.25372000  0.22665000  1
  O  O83  1  0.88343000  0.97710000  0.28738000  1
  O  O84  1  0.73431000  0.92572000  0.27409000  1
