# generated using pymatgen
data_Co6H24C62N10(O7F4)3
_symmetry_space_group_name_H-M   'P 1'
_cell_length_a   20.45867000
_cell_length_b   21.00899000
_cell_length_c   38.80388000
_cell_angle_alpha   60.67249000
_cell_angle_beta   119.10269000
_cell_angle_gamma   133.32592000
_symmetry_Int_Tables_number   1
_chemical_formula_structural   Co6H24C62N10(O7F4)3
_chemical_formula_sum   'Co12 H48 C124 N20 O42 F24'
_cell_volume   10276.64191101
_cell_formula_units_Z   2
loop_
 _symmetry_equiv_pos_site_id
 _symmetry_equiv_pos_as_xyz
  1  'x, y, z'
loop_
 _atom_site_type_symbol
 _atom_site_label
 _atom_site_symmetry_multiplicity
 _atom_site_fract_x
 _atom_site_fract_y
 _atom_site_fract_z
 _atom_site_occupancy
  Co  Co1  1  0.02781000  0.10358000  0.07831000  1
  Co  Co2  1  0.08512000  0.03309000  0.04460000  1
  Co  Co3  1  0.10452000  0.88620000  0.04951000  1
  Co  Co4  1  0.01453000  0.09113000  0.58091000  1
  Co  Co5  1  0.07369000  0.02345000  0.54694000  1
  Co  Co6  1  0.07581000  0.87145000  0.54424000  1
  Co  Co7  1  0.00718000  0.85891000  0.10524000  1
  Co  Co8  1  0.92997000  0.92131000  0.13128000  1
  Co  Co9  1  0.91763000  0.06896000  0.13018000  1
  Co  Co10  1  0.97331000  0.84055000  0.59907000  1
  Co  Co11  1  0.91909000  0.90902000  0.63516000  1
  Co  Co12  1  0.91634000  0.05715000  0.64010000  1
  H  H1  1  0.16563000  0.06703000  0.94420000  1
  H  H2  1  0.12607000  0.09634000  0.80901000  1
  H  H3  1  0.19575000  0.15033000  0.75675000  1
  H  H4  1  0.14909000  0.07929000  0.72615000  1
  H  H5  1  0.24577000  0.07059000  0.91407000  1
  H  H6  1  0.18481000  0.00693000  0.87752000  1
  H  H7  1  0.09520000  0.98679000  0.26679000  1
  H  H8  1  0.18804000  0.01732000  0.33305000  1
  H  H9  1  0.13965000  0.99154000  0.36999000  1
  H  H10  1  0.14858000  0.19116000  0.33840000  1
  H  H11  1  0.07565000  0.12061000  0.30363000  1
  H  H12  1  0.08001000  0.33227000  0.59110000  1
  H  H13  1  0.01414000  0.59523000  0.66540000  1
  H  H14  1  0.22502000  0.25534000  0.21149000  1
  H  H15  1  0.34226000  0.89573000  0.18119000  1
  H  H16  1  0.13401000  0.57847000  0.17151000  1
  H  H17  1  0.32179000  0.40829000  0.71860000  1
  H  H18  1  0.35510000  0.80137000  0.68535000  1
  H  H19  1  0.18416000  0.49309000  0.10777000  1
  H  H20  1  0.27944000  0.16972000  0.49434000  1
  H  H21  1  0.31294000  0.22647000  0.97363000  1
  H  H22  1  0.12684000  0.13431000  0.40584000  1
  H  H23  1  0.87547000  0.91006000  0.84367000  1
  H  H24  1  0.89861000  0.79684000  0.77682000  1
  H  H25  1  0.87095000  0.72887000  0.84364000  1
  H  H26  1  0.93289000  0.79408000  0.87970000  1
  H  H27  1  0.84962000  0.92229000  0.92712000  1
  H  H28  1  0.79181000  0.88119000  0.88244000  1
  H  H29  1  0.87152000  0.83084000  0.37801000  1
  H  H30  1  0.82494000  0.87365000  0.30408000  1
  H  H31  1  0.72597000  0.78629000  0.25439000  1
  H  H32  1  0.77280000  0.78741000  0.22503000  1
  H  H33  1  0.86271000  0.87597000  0.45544000  1
  H  H34  1  0.80458000  0.79811000  0.42611000  1
  H  H35  1  0.57190000  0.67891000  0.72452000  1
  H  H36  1  0.59734000  0.88898000  0.58731000  1
  H  H37  1  0.61339000  0.91917000  0.07794000  1
  H  H38  1  0.56476000  0.65399000  0.19469000  1
  H  H39  1  0.96147000  0.33050000  0.51343000  1
  H  H40  1  0.62382000  0.11702000  0.50449000  1
  H  H41  1  0.91043000  0.59754000  0.58412000  1
  H  H42  1  0.66049000  0.52519000  0.45832000  1
  H  H43  1  0.52627000  0.12286000  0.56981000  1
  H  H44  1  0.97635000  0.34261000  0.00082000  1
  H  H45  1  0.64584000  0.13704000  0.00414000  1
  H  H46  1  0.80036000  0.42977000  0.08128000  1
  H  H47  1  0.84059000  0.71499000  0.98749000  1
  H  H48  1  0.53984000  0.15449000  0.06096000  1
  C  C1  1  0.25637000  0.08345000  0.03742000  1
  C  C2  1  0.11663000  0.21483000  0.13903000  1
  C  C3  1  0.16561000  0.83729000  0.13907000  1
  C  C4  1  0.24779000  0.04163000  0.56473000  1
  C  C5  1  0.11077000  0.20473000  0.63997000  1
  C  C6  1  0.08603000  0.77309000  0.63131000  1
  C  C7  1  0.10397000  0.01221000  0.89325000  1
  C  C8  1  0.10176000  0.02962000  0.92320000  1
  C  C9  1  0.02149000  0.95477000  0.82959000  1
  C  C10  1  0.07835000  0.03025000  0.80287000  1
  C  C11  1  0.07619000  0.02021000  0.76901000  1
  C  C12  1  0.03589000  0.95834000  0.27601000  1
  C  C13  1  0.04857000  0.96719000  0.31306000  1
  C  C14  1  0.13341000  0.34922000  0.61877000  1
  C  C15  1  0.16863000  0.29796000  0.64282000  1
  C  C16  1  0.23987000  0.32292000  0.67775000  1
  C  C17  1  0.13628000  0.60614000  0.67885000  1
  C  C18  1  0.08880000  0.64008000  0.67038000  1
  C  C19  1  0.13547000  0.73334000  0.66279000  1
  C  C20  1  0.23246000  0.78915000  0.67212000  1
  C  C21  1  0.21750000  0.30801000  0.18860000  1
  C  C22  1  0.17392000  0.30220000  0.14794000  1
  C  C23  1  0.16250000  0.36972000  0.11886000  1
  C  C24  1  0.29665000  0.82588000  0.17989000  1
  C  C25  1  0.20073000  0.78228000  0.16584000  1
  C  C26  1  0.14252000  0.69032000  0.16658000  1
  C  C27  1  0.18008000  0.64736000  0.17415000  1
  C  C28  1  0.31569000  0.65755000  0.18118000  1
  C  C29  1  0.29721000  0.53522000  0.17946000  1
  C  C30  1  0.28115000  0.63599000  0.68088000  1
  C  C31  1  0.27951000  0.52703000  0.67593000  1
  C  C32  1  0.26762000  0.39083000  0.69114000  1
  C  C33  1  0.22982000  0.43988000  0.66805000  1
  C  C34  1  0.16293000  0.41908000  0.63149000  1
  C  C35  1  0.28059000  0.75576000  0.68080000  1
  C  C36  1  0.23210000  0.66540000  0.68110000  1
  C  C37  1  0.19146000  0.44027000  0.13064000  1
  C  C38  1  0.23626000  0.44675000  0.17117000  1
  C  C39  1  0.24732000  0.37910000  0.20025000  1
  C  C40  1  0.27649000  0.69518000  0.18256000  1
  C  C41  1  0.33457000  0.78246000  0.18860000  1
  C  C42  1  0.40373000  0.20303000  0.49285000  1
  C  C43  1  0.33416000  0.16068000  0.51121000  1
  C  C44  1  0.33254000  0.10334000  0.55039000  1
  C  C45  1  0.40196000  0.08946000  0.57125000  1
  C  C46  1  0.36347000  0.21216000  0.99319000  1
  C  C47  1  0.34993000  0.14946000  0.03099000  1
  C  C48  1  0.41476000  0.12986000  0.05551000  1
  C  C49  1  0.41768000  0.67168000  0.67988000  1
  C  C50  1  0.04906000  0.00092000  0.46946000  1
  C  C51  1  0.02117000  0.96769000  0.86424000  1
  C  C52  1  0.01129000  0.99965000  0.42602000  1
  C  C53  1  0.05130000  0.05521000  0.36225000  1
  C  C54  1  0.06839000  0.06949000  0.39863000  1
  C  C55  1  0.01332000  0.95863000  0.97283000  1
  C  C56  1  0.01718000  0.98722000  0.93022000  1
  C  C57  1  0.00435000  0.93813000  0.75709000  1
  C  C58  1  0.43565000  0.68009000  0.17102000  1
  C  C59  1  0.98508000  0.96614000  0.35648000  1
  C  C60  1  0.97306000  0.94378000  0.32151000  1
  C  C61  1  0.93641000  0.93735000  0.20623000  1
  C  C62  1  0.96464000  0.94031000  0.71326000  1
  C  C63  1  0.94704000  0.91514000  0.25048000  1
  C  C64  1  0.48944000  0.16898000  0.04144000  1
  C  C65  1  0.43769000  0.25081000  0.97898000  1
  C  C66  1  0.72492000  0.31185000  0.99810000  1
  C  C67  1  0.59311000  0.29133000  0.99452000  1
  C  C68  1  0.73853000  0.42905000  0.00249000  1
  C  C69  1  0.69477000  0.28870000  0.49867000  1
  C  C70  1  0.56119000  0.25634000  0.50108000  1
  C  C71  1  0.69849000  0.40315000  0.49909000  1
  C  C72  1  0.92532000  0.72028000  0.06659000  1
  C  C73  1  0.75012000  0.89951000  0.10669000  1
  C  C74  1  0.91291000  0.16921000  0.04414000  1
  C  C75  1  0.87849000  0.72422000  0.54018000  1
  C  C76  1  0.74332000  0.88132000  0.62695000  1
  C  C77  1  0.89887000  0.15626000  0.55242000  1
  C  C78  1  0.93496000  0.94662000  0.90039000  1
  C  C79  1  0.93817000  0.93980000  0.86690000  1
  C  C80  1  0.95130000  0.86129000  0.78483000  1
  C  C81  1  0.96245000  0.86820000  0.82200000  1
  C  C82  1  0.93254000  0.91776000  0.41498000  1
  C  C83  1  0.92534000  0.89823000  0.38296000  1
  C  C84  1  0.88397000  0.89559000  0.29712000  1
  C  C85  1  0.87024000  0.87355000  0.26431000  1
  C  C86  1  0.57815000  0.72595000  0.69484000  1
  C  C87  1  0.50900000  0.73979000  0.67091000  1
  C  C88  1  0.51816000  0.80120000  0.63261000  1
  C  C89  1  0.59168000  0.84265000  0.61717000  1
  C  C90  1  0.65824000  0.82513000  0.64023000  1
  C  C91  1  0.65189000  0.76756000  0.67946000  1
  C  C92  1  0.60250000  0.86086000  0.10324000  1
  C  C93  1  0.66055000  0.83463000  0.11763000  1
  C  C94  1  0.64317000  0.75698000  0.14935000  1
  C  C95  1  0.57560000  0.71231000  0.16939000  1
  C  C96  1  0.51968000  0.74042000  0.15603000  1
  C  C97  1  0.53292000  0.81455000  0.12245000  1
  C  C98  1  0.88746000  0.28396000  0.51077000  1
  C  C99  1  0.84381000  0.19060000  0.52244000  1
  C  C100  1  0.74731000  0.13155000  0.51685000  1
  C  C101  1  0.69744000  0.16431000  0.50630000  1
  C  C102  1  0.74349000  0.25692000  0.50052000  1
  C  C103  1  0.83787000  0.31733000  0.49978000  1
  C  C104  1  0.85548000  0.58157000  0.55678000  1
  C  C105  1  0.82196000  0.63423000  0.53413000  1
  C  C106  1  0.74998000  0.61199000  0.49915000  1
  C  C107  1  0.71638000  0.54191000  0.48536000  1
  C  C108  1  0.75126000  0.49034000  0.50747000  1
  C  C109  1  0.82112000  0.51060000  0.54337000  1
  C  C110  1  0.47152000  0.13184000  0.55290000  1
  C  C111  1  0.47414000  0.19050000  0.51401000  1
  C  C112  1  0.90364000  0.29767000  0.00069000  1
  C  C113  1  0.85817000  0.20375000  0.01296000  1
  C  C114  1  0.76243000  0.14724000  0.00960000  1
  C  C115  1  0.71795000  0.18267000  0.00328000  1
  C  C116  1  0.76780000  0.27598000  0.99788000  1
  C  C117  1  0.85935000  0.33391000  0.99362000  1
  C  C118  1  0.81118000  0.49286000  0.06076000  1
  C  C119  1  0.79344000  0.50720000  0.01880000  1
  C  C120  1  0.80180000  0.58679000  0.99242000  1
  C  C121  1  0.83030000  0.65214000  0.00804000  1
  C  C122  1  0.85356000  0.64008000  0.05023000  1
  C  C123  1  0.83792000  0.55742000  0.07621000  1
  C  C124  1  0.50179000  0.23017000  0.00321000  1
  N  N1  1  0.18408000  0.03310000  0.89418000  1
  N  N2  1  0.14397000  0.08878000  0.74853000  1
  N  N3  1  0.09627000  0.12684000  0.33291000  1
  N  N4  1  0.13171000  0.99577000  0.34042000  1
  N  N5  1  0.26226000  0.56835000  0.18241000  1
  N  N6  1  0.38493000  0.59051000  0.17574000  1
  N  N7  1  0.40167000  0.71380000  0.17426000  1
  N  N8  1  0.37295000  0.69649000  0.68132000  1
  N  N9  1  0.37150000  0.58633000  0.67886000  1
  N  N10  1  0.23361000  0.55148000  0.67693000  1
  N  N11  1  0.63226000  0.25805000  0.99532000  1
  N  N12  1  0.64563000  0.37859000  0.99481000  1
  N  N13  1  0.77882000  0.39596000  0.00407000  1
  N  N14  1  0.60450000  0.22848000  0.50088000  1
  N  N15  1  0.60729000  0.34428000  0.49809000  1
  N  N16  1  0.74244000  0.37572000  0.49909000  1
  N  N17  1  0.85294000  0.91370000  0.90382000  1
  N  N18  1  0.91775000  0.79197000  0.85025000  1
  N  N19  1  0.86261000  0.85896000  0.43422000  1
  N  N20  1  0.78333000  0.81291000  0.24592000  1
  O  O1  1  0.08809000  0.13821000  0.03718000  1
  O  O2  1  0.19599000  0.89461000  0.10570000  1
  O  O3  1  0.09769000  0.82154000  0.14667000  1
  O  O4  1  0.05294000  0.14496000  0.15977000  1
  O  O5  1  0.12387000  0.20965000  0.10798000  1
  O  O6  1  0.06828000  0.93209000  0.06959000  1
  O  O7  1  0.19979000  0.01473000  0.02136000  1
  O  O8  1  0.22502000  0.10322000  0.05069000  1
  O  O9  1  0.08471000  0.13056000  0.54311000  1
  O  O10  1  0.05409000  0.76314000  0.59455000  1
  O  O11  1  0.07379000  0.81813000  0.63937000  1
  O  O12  1  0.05427000  0.14084000  0.66422000  1
  O  O13  1  0.12278000  0.18475000  0.61678000  1
  O  O14  1  0.03304000  0.91367000  0.56291000  1
  O  O15  1  0.20789000  0.95459000  0.57513000  1
  O  O16  1  0.21325000  0.07377000  0.56760000  1
  O  O17  1  0.04005000  0.98999000  0.09990000  1
  O  O18  1  0.01135000  0.75267000  0.07429000  1
  O  O19  1  0.10441000  0.97636000  0.49217000  1
  O  O20  1  0.02657000  0.02516000  0.48527000  1
  O  O21  1  0.00649000  0.88388000  0.99614000  1
  O  O22  1  0.01245000  0.00530000  0.98655000  1
  O  O23  1  0.99241000  0.92847000  0.69380000  1
  O  O24  1  0.88218000  0.96229000  0.18090000  1
  O  O25  1  0.96891000  0.91937000  0.19258000  1
  O  O26  1  0.90209000  0.95619000  0.69349000  1
  O  O27  1  0.96702000  0.02987000  0.11398000  1
  O  O28  1  0.92921000  0.81726000  0.13972000  1
  O  O29  1  0.78862000  0.98631000  0.09725000  1
  O  O30  1  0.79013000  0.87046000  0.10574000  1
  O  O31  1  0.94412000  0.17922000  0.08073000  1
  O  O32  1  0.92589000  0.12385000  0.03679000  1
  O  O33  1  0.90545000  0.76337000  0.07100000  1
  O  O34  1  0.94844000  0.01532000  0.61507000  1
  O  O35  1  0.91130000  0.80325000  0.63994000  1
  O  O36  1  0.96779000  0.95769000  0.58023000  1
  O  O37  1  0.78305000  0.96846000  0.61260000  1
  O  O38  1  0.77987000  0.84402000  0.63068000  1
  O  O39  1  0.93009000  0.16381000  0.58970000  1
  O  O40  1  0.92643000  0.12982000  0.54083000  1
  O  O41  1  0.93841000  0.79254000  0.51753000  1
  O  O42  1  0.87192000  0.73438000  0.56957000  1
  F  F1  1  0.28039000  0.27936000  0.69947000  1
  F  F2  1  0.08861000  0.51651000  0.68377000  1
  F  F3  1  0.12012000  0.36509000  0.07942000  1
  F  F4  1  0.04935000  0.64487000  0.15629000  1
  F  F5  1  0.12869000  0.46831000  0.60764000  1
  F  F6  1  0.27961000  0.87819000  0.66827000  1
  F  F7  1  0.29113000  0.38471000  0.23954000  1
  F  F8  1  0.42759000  0.82607000  0.20191000  1
  F  F9  1  0.40145000  0.03419000  0.60924000  1
  F  F10  1  0.40461000  0.25873000  0.45495000  1
  F  F11  1  0.40250000  0.06898000  0.09213000  1
  F  F12  1  0.71820000  0.75347000  0.70303000  1
  F  F13  1  0.45222000  0.81584000  0.60918000  1
  F  F14  1  0.47661000  0.84001000  0.10759000  1
  F  F15  1  0.69420000  0.72675000  0.16187000  1
  F  F16  1  0.88218000  0.40791000  0.48937000  1
  F  F17  1  0.70301000  0.04133000  0.52546000  1
  F  F18  1  0.85321000  0.45937000  0.56608000  1
  F  F19  1  0.71268000  0.65851000  0.47844000  1
  F  F20  1  0.90606000  0.42486000  0.98337000  1
  F  F21  1  0.71435000  0.05682000  0.01660000  1
  F  F22  1  0.85519000  0.54238000  0.11693000  1
  F  F23  1  0.78069000  0.60010000  0.95157000  1
  F  F24  1  0.44886000  0.31035000  0.94201000  1
