# generated using pymatgen
data_Co6H62C82O21
_symmetry_space_group_name_H-M   'P 1'
_cell_length_a   20.02070000
_cell_length_b   21.58084000
_cell_length_c   44.53898000
_cell_angle_alpha   60.63692000
_cell_angle_beta   119.09728000
_cell_angle_gamma   133.29750000
_symmetry_Int_Tables_number   1
_chemical_formula_structural   Co6H62C82O21
_chemical_formula_sum   'Co12 H124 C164 O42'
_cell_volume   11859.96678277
_cell_formula_units_Z   2
loop_
 _symmetry_equiv_pos_site_id
 _symmetry_equiv_pos_as_xyz
  1  'x, y, z'
loop_
 _atom_site_type_symbol
 _atom_site_label
 _atom_site_symmetry_multiplicity
 _atom_site_fract_x
 _atom_site_fract_y
 _atom_site_fract_z
 _atom_site_occupancy
  Co  Co1  1  0.05991000  0.10985000  0.07425000  1
  Co  Co2  1  0.11646000  0.04084000  0.04403000  1
  Co  Co3  1  0.10537000  0.89029000  0.03679000  1
  Co  Co4  1  0.01889000  0.00441000  0.53157000  1
  Co  Co5  1  0.09180000  0.91180000  0.52936000  1
  Co  Co6  1  0.00390000  0.85314000  0.59224000  1
  Co  Co7  1  0.99750000  0.85861000  0.08430000  1
  Co  Co8  1  0.95848000  0.04461000  0.57344000  1
  Co  Co9  1  0.94886000  0.92891000  0.11815000  1
  Co  Co10  1  0.95464000  0.07987000  0.12223000  1
  Co  Co11  1  0.92979000  0.88780000  0.63115000  1
  Co  Co12  1  0.87688000  0.99289000  0.63647000  1
  H  H1  1  0.18374000  0.49064000  0.15839000  1
  H  H2  1  0.44434000  0.60399000  0.14124000  1
  H  H3  1  0.28943000  0.50300000  0.60936000  1
  H  H4  1  0.08753000  0.52539000  0.60537000  1
  H  H5  1  0.22303000  0.16921000  0.93173000  1
  H  H6  1  0.22051000  0.15674000  0.87887000  1
  H  H7  1  0.03714000  0.86294000  0.82394000  1
  H  H8  1  0.04010000  0.88917000  0.87291000  1
  H  H9  1  0.14854000  0.02458000  0.24719000  1
  H  H10  1  0.12929000  0.01986000  0.29920000  1
  H  H11  1  0.04655000  0.09833000  0.35089000  1
  H  H12  1  0.06059000  0.08877000  0.30127000  1
  H  H13  1  0.12648000  0.36464000  0.66638000  1
  H  H14  1  0.03940000  0.28286000  0.55983000  1
  H  H15  1  0.17759000  0.27174000  0.70304000  1
  H  H16  1  0.17184000  0.21030000  0.68483000  1
  H  H17  1  0.06712000  0.16920000  0.69434000  1
  H  H18  1  0.14137000  0.49300000  0.53767000  1
  H  H19  1  0.03797000  0.46694000  0.54144000  1
  H  H20  1  0.02505000  0.40163000  0.52239000  1
  H  H21  1  0.38600000  0.74914000  0.55635000  1
  H  H22  1  0.34702000  0.65302000  0.54823000  1
  H  H23  1  0.44649000  0.76001000  0.53287000  1
  H  H24  1  0.31652000  0.80130000  0.58264000  1
  H  H25  1  0.10399000  0.71662000  0.64389000  1
  H  H26  1  0.42334000  0.94954000  0.59424000  1
  H  H27  1  0.37930000  0.98324000  0.60524000  1
  H  H28  1  0.33800000  0.97014000  0.56096000  1
  H  H29  1  0.15373000  0.55720000  0.67453000  1
  H  H30  1  0.04415000  0.53566000  0.64214000  1
  H  H31  1  0.08774000  0.58067000  0.67777000  1
  H  H32  1  0.25353000  0.50945000  0.08338000  1
  H  H33  1  0.24640000  0.26227000  0.18346000  1
  H  H34  1  0.28246000  0.47084000  0.04900000  1
  H  H35  1  0.16537000  0.36863000  0.04773000  1
  H  H36  1  0.26815000  0.36901000  0.06491000  1
  H  H37  1  0.24140000  0.38888000  0.20861000  1
  H  H38  1  0.36512000  0.44472000  0.21334000  1
  H  H39  1  0.28698000  0.32665000  0.22535000  1
  H  H40  1  0.36939000  0.67307000  0.05779000  1
  H  H41  1  0.33768000  0.74803000  0.17263000  1
  H  H42  1  0.03772000  0.47362000  0.12672000  1
  H  H43  1  0.10424000  0.55633000  0.09267000  1
  H  H44  1  0.23496000  0.81944000  0.18372000  1
  H  H45  1  0.28672000  0.89034000  0.14578000  1
  H  H46  1  0.34447000  0.84688000  0.18596000  1
  H  H47  1  0.45853000  0.29448000  0.46953000  1
  H  H48  1  0.33746000  0.12586000  0.57849000  1
  H  H49  1  0.32246000  0.29923000  0.43698000  1
  H  H50  1  0.23138000  0.24380000  0.45807000  1
  H  H51  1  0.23525000  0.18180000  0.44332000  1
  H  H52  1  0.31700000  0.15254000  0.99893000  1
  H  H53  1  0.41324000  0.98146000  0.11403000  1
  H  H54  1  0.42231000  0.05719000  0.12555000  1
  H  H55  1  0.50006000  0.24725000  0.95660000  1
  H  H56  1  0.47607000  0.31036000  0.96003000  1
  H  H57  1  0.36148000  0.76864000  0.11165000  1
  H  H58  1  0.38748000  0.72437000  0.63528000  1
  H  H59  1  0.38074000  0.20543000  0.94900000  1
  H  H60  1  0.43408000  0.62586000  0.07881000  1
  H  H61  1  0.45674000  0.71255000  0.03862000  1
  H  H62  1  0.52694000  0.07329000  0.13014000  1
  H  H63  1  0.47805000  0.60583000  0.67797000  1
  H  H64  1  0.47730000  0.13713000  0.61408000  1
  H  H65  1  0.60013000  0.16114000  0.08171000  1
  H  H66  1  0.53869000  0.85920000  0.13197000  1
  H  H67  1  0.54177000  0.17958000  0.50908000  1
  H  H68  1  0.66371000  0.20056000  0.02294000  1
  H  H69  1  0.58794000  0.77320000  0.56655000  1
  H  H70  1  0.53863000  0.93901000  0.55336000  1
  H  H71  1  0.54664000  0.15488000  0.59242000  1
  H  H72  1  0.57634000  0.24675000  0.60047000  1
  H  H73  1  0.59888000  0.08685000  0.55398000  1
  H  H74  1  0.62053000  0.37652000  0.01649000  1
  H  H75  1  0.62939000  0.78622000  0.07445000  1
  H  H76  1  0.61664000  0.60888000  0.70965000  1
  H  H77  1  0.61795000  0.92844000  0.55156000  1
  H  H78  1  0.63848000  0.95200000  0.59024000  1
  H  H79  1  0.12581000  0.15194000  0.81131000  1
  H  H80  1  0.12518000  0.12623000  0.76280000  1
  H  H81  1  0.64691000  0.39033000  0.54488000  1
  H  H82  1  0.67455000  0.01323000  0.11665000  1
  H  H83  1  0.02683000  0.31182000  0.06476000  1
  H  H84  1  0.02592000  0.39313000  0.08474000  1
  H  H85  1  0.00022000  0.46533000  0.04699000  1
  H  H86  1  0.99566000  0.60108000  0.11813000  1
  H  H87  1  0.99836000  0.53604000  0.08846000  1
  H  H88  1  0.91577000  0.37402000  0.07435000  1
  H  H89  1  0.84423000  0.16717000  0.97139000  1
  H  H90  1  0.75079000  0.18043000  0.94880000  1
  H  H91  1  0.74170000  0.09581000  0.98937000  1
  H  H92  1  0.88131000  0.48028000  0.00237000  1
  H  H93  1  0.84123000  0.35733000  0.54987000  1
  H  H94  1  0.93486000  0.92190000  0.87655000  1
  H  H95  1  0.93877000  0.93372000  0.92997000  1
  H  H96  1  0.82668000  0.85662000  0.26100000  1
  H  H97  1  0.84617000  0.85873000  0.20975000  1
  H  H98  1  0.86613000  0.80629000  0.33081000  1
  H  H99  1  0.85002000  0.81634000  0.37957000  1
  H  H100  1  0.70936000  0.72495000  0.69962000  1
  H  H101  1  0.69598000  0.64974000  0.68599000  1
  H  H102  1  0.76365000  0.03974000  0.10321000  1
  H  H103  1  0.75671000  0.98828000  0.14939000  1
  H  H104  1  0.86069000  0.21776000  0.50610000  1
  H  H105  1  0.84231000  0.33560000  0.46524000  1
  H  H106  1  0.87216000  0.38126000  0.49818000  1
  H  H107  1  0.75829000  0.34025000  0.46697000  1
  H  H108  1  0.84481000  0.53560000  0.50105000  1
  H  H109  1  0.89746000  0.57491000  0.61335000  1
  H  H110  1  0.96438000  0.74810000  0.49187000  1
  H  H111  1  0.85006000  0.71587000  0.48823000  1
  H  H112  1  0.85753000  0.66698000  0.46825000  1
  H  H113  1  0.84984000  0.37065000  0.62148000  1
  H  H114  1  0.75411000  0.36617000  0.61947000  1
  H  H115  1  0.87185000  0.43401000  0.64447000  1
  H  H116  1  0.74201000  0.26197000  0.96764000  1
  H  H117  1  0.85271000  0.60938000  0.07769000  1
  H  H118  1  0.78533000  0.58207000  0.95995000  1
  H  H119  1  0.83675000  0.47408000  0.10652000  1
  H  H120  1  0.82843000  0.42133000  0.08269000  1
  H  H121  1  0.72359000  0.40193000  0.08122000  1
  H  H122  1  0.88477000  0.77854000  0.94752000  1
  H  H123  1  0.79645000  0.76306000  0.95798000  1
  H  H124  1  0.76071000  0.69767000  0.93242000  1
  C  C1  1  0.27031000  0.63308000  0.13847000  1
  C  C2  1  0.24695000  0.54768000  0.14884000  1
  C  C3  1  0.30599000  0.53721000  0.14603000  1
  C  C4  1  0.39379000  0.61161000  0.13903000  1
  C  C5  1  0.40944000  0.69344000  0.12297000  1
  C  C6  1  0.34819000  0.70465000  0.12307000  1
  C  C7  1  0.23535000  0.63266000  0.62018000  1
  C  C8  1  0.32911000  0.66302000  0.62741000  1
  C  C9  1  0.34762000  0.61887000  0.62126000  1
  C  C10  1  0.27400000  0.53853000  0.61256000  1
  C  C11  1  0.18096000  0.50134000  0.60948000  1
  C  C12  1  0.16026000  0.55017000  0.61139000  1
  C  C13  1  0.28652000  0.04398000  0.06267000  1
  C  C14  1  0.00967000  0.97548000  0.18767000  1
  C  C15  1  0.15177000  0.23169000  0.11769000  1
  C  C16  1  0.09523000  0.77561000  0.10964000  1
  C  C17  1  0.20251000  0.10379000  0.51833000  1
  C  C18  1  0.05241000  0.16477000  0.62053000  1
  C  C19  1  0.18922000  0.88687000  0.60338000  1
  C  C20  1  0.15941000  0.11597000  0.91948000  1
  C  C21  1  0.15823000  0.10850000  0.88950000  1
  C  C22  1  0.08172000  0.99291000  0.78990000  1
  C  C23  1  0.05837000  0.92666000  0.82131000  1
  C  C24  1  0.05872000  0.94118000  0.84899000  1
  C  C25  1  0.06064000  0.97149000  0.75841000  1
  C  C26  1  0.03266000  0.95175000  0.73112000  1
  C  C27  1  0.07814000  0.98545000  0.25063000  1
  C  C28  1  0.06719000  0.98437000  0.27987000  1
  C  C29  1  0.00581000  0.03465000  0.34624000  1
  C  C30  1  0.01467000  0.02909000  0.31826000  1
  C  C31  1  0.10832000  0.34716000  0.64311000  1
  C  C32  1  0.10986000  0.40674000  0.60999000  1
  C  C33  1  0.07809000  0.38013000  0.57950000  1
  C  C34  1  0.06312000  0.30276000  0.58325000  1
  C  C35  1  0.07861000  0.25121000  0.61710000  1
  C  C36  1  0.10408000  0.27552000  0.64747000  1
  C  C37  1  0.13146000  0.22878000  0.68442000  1
  C  C38  1  0.07011000  0.43874000  0.54314000  1
  C  C39  1  0.40966000  0.71709000  0.55483000  1
  C  C40  1  0.27304000  0.78271000  0.59750000  1
  C  C41  1  0.21841000  0.69479000  0.61616000  1
  C  C42  1  0.16201000  0.67219000  0.63545000  1
  C  C43  1  0.15497000  0.73613000  0.63259000  1
  C  C44  1  0.21282000  0.82457000  0.61476000  1
  C  C45  1  0.27991000  0.84832000  0.60084000  1
  C  C46  1  0.35937000  0.94328000  0.58963000  1
  C  C47  1  0.10902000  0.58126000  0.65872000  1
  C  C48  1  0.25324000  0.45622000  0.10547000  1
  C  C49  1  0.26773000  0.45512000  0.13990000  1
  C  C50  1  0.27073000  0.38703000  0.16860000  1
  C  C51  1  0.25264000  0.31850000  0.16191000  1
  C  C52  1  0.22987000  0.31660000  0.12696000  1
  C  C53  1  0.24533000  0.39279000  0.09976000  1
  C  C54  1  0.23986000  0.40070000  0.06324000  1
  C  C55  1  0.29226000  0.38666000  0.20612000  1
  C  C56  1  0.07100000  0.63454000  0.12916000  1
  C  C57  1  0.12428000  0.71673000  0.13562000  1
  C  C58  1  0.21932000  0.75325000  0.15460000  1
  C  C59  1  0.26363000  0.71796000  0.15920000  1
  C  C60  1  0.21473000  0.64903000  0.14370000  1
  C  C61  1  0.11653000  0.60709000  0.12824000  1
  C  C62  1  0.06153000  0.53933000  0.10808000  1
  C  C63  1  0.27478000  0.83201000  0.16830000  1
  C  C64  1  0.43161000  0.25679000  0.49324000  1
  C  C65  1  0.45573000  0.19674000  0.55724000  1
  C  C66  1  0.36437000  0.16342000  0.55479000  1
  C  C67  1  0.30391000  0.16960000  0.52158000  1
  C  C68  1  0.33989000  0.22249000  0.49089000  1
  C  C69  1  0.27869000  0.23760000  0.45529000  1
  C  C70  1  0.45649000  0.19868000  0.00417000  1
  C  C71  1  0.37793000  0.15280000  0.01687000  1
  C  C72  1  0.37623000  0.10481000  0.05226000  1
  C  C73  1  0.45600000  0.10571000  0.07572000  1
  C  C74  1  0.45447000  0.05133000  0.11349000  1
  C  C75  1  0.45338000  0.24315000  0.96527000  1
  C  C76  1  0.10187000  0.03184000  0.97480000  1
  C  C77  1  0.08271000  0.05009000  0.93576000  1
  C  C78  1  0.07881000  0.03644000  0.87460000  1
  C  C79  1  0.08170000  0.02206000  0.84554000  1
  C  C80  1  0.43913000  0.68744000  0.06415000  1
  C  C81  1  0.44400000  0.65908000  0.62178000  1
  C  C82  1  0.48858000  0.24203000  0.52603000  1
  C  C83  1  0.53709000  0.15674000  0.06344000  1
  C  C84  1  0.53929000  0.20666000  0.02825000  1
  C  C85  1  0.47325000  0.70299000  0.58981000  1
  C  C86  1  0.49133000  0.76745000  0.10678000  1
  C  C87  1  0.51451000  0.75452000  0.08590000  1
  C  C88  1  0.50285000  0.64407000  0.65376000  1
  C  C89  1  0.55769000  0.84455000  0.11852000  1
  C  C90  1  0.51745000  0.18309000  0.59306000  1
  C  C91  1  0.63129000  0.28113000  0.01936000  1
  C  C92  1  0.56350000  0.73593000  0.59082000  1
  C  C93  1  0.58474000  0.27962000  0.52791000  1
  C  C94  1  0.59390000  0.67908000  0.65465000  1
  C  C95  1  0.60969000  0.80324000  0.08649000  1
  C  C96  1  0.60109000  0.23655000  0.51990000  1
  C  C97  1  0.62757000  0.73353000  0.62340000  1
  C  C98  1  0.61390000  0.96475000  0.56092000  1
  C  C99  1  0.10766000  0.08919000  0.81448000  1
  C  C100  1  0.10780000  0.07471000  0.78691000  1
  C  C101  1  0.66439000  0.36616000  0.01478000  1
  C  C102  1  0.65013000  0.90066000  0.11459000  1
  C  C103  1  0.66019000  0.35476000  0.54045000  1
  C  C104  1  0.65762000  0.66495000  0.68946000  1
  C  C105  1  0.65410000  0.11530000  0.54243000  1
  C  C106  1  0.67374000  0.06197000  0.54461000  1
  C  C107  1  0.67922000  0.87212000  0.10356000  1
  C  C108  1  0.99880000  0.94268000  0.22437000  1
  C  C109  1  0.68877000  0.26699000  0.01842000  1
  C  C110  1  0.97661000  0.94037000  0.28335000  1
  C  C111  1  0.96502000  0.94667000  0.31252000  1
  C  C112  1  0.97974000  0.92556000  0.69774000  1
  C  C113  1  0.79116000  0.16386000  0.97540000  1
  C  C114  1  0.77927000  0.33855000  0.01216000  1
  C  C115  1  0.75663000  0.43687000  0.01141000  1
  C  C116  1  0.81228000  0.42435000  0.00767000  1
  C  C117  1  0.69336000  0.26300000  0.52821000  1
  C  C118  1  0.76976000  0.33725000  0.54244000  1
  C  C119  1  0.75266000  0.38447000  0.54749000  1
  C  C120  1  0.89994000  0.76042000  0.02695000  1
  C  C121  1  0.77952000  0.90524000  0.11430000  1
  C  C122  1  0.92527000  0.16233000  0.04542000  1
  C  C123  1  0.94959000  0.72342000  0.56099000  1
  C  C124  1  0.72625000  0.80992000  0.62583000  1
  C  C125  1  0.95934000  0.94114000  0.46695000  1
  C  C126  1  0.81493000  0.06947000  0.56006000  1
  C  C127  1  0.99796000  0.97615000  0.88838000  1
  C  C128  1  0.99965000  0.98364000  0.91850000  1
  C  C129  1  0.89709000  0.89188000  0.25860000  1
  C  C130  1  0.90821000  0.89223000  0.22959000  1
  C  C131  1  0.90457000  0.87028000  0.33462000  1
  C  C132  1  0.89515000  0.87604000  0.36233000  1
  C  C133  1  0.94629000  0.95811000  0.36853000  1
  C  C134  1  0.94782000  0.96202000  0.40084000  1
  C  C135  1  0.95087000  0.95819000  0.42972000  1
  C  C136  1  0.71544000  0.99051000  0.12140000  1
  C  C137  1  0.80080000  0.18833000  0.51511000  1
  C  C138  1  0.75669000  0.10155000  0.53602000  1
  C  C139  1  0.70781000  0.20578000  0.52648000  1
  C  C140  1  0.77403000  0.23998000  0.50904000  1
  C  C141  1  0.81403000  0.32935000  0.48349000  1
  C  C142  1  0.85617000  0.54419000  0.52556000  1
  C  C143  1  0.82999000  0.47190000  0.55477000  1
  C  C144  1  0.85007000  0.48436000  0.58729000  1
  C  C145  1  0.88180000  0.56515000  0.58841000  1
  C  C146  1  0.89614000  0.63417000  0.55770000  1
  C  C147  1  0.88114000  0.62258000  0.52577000  1
  C  C148  1  0.88897000  0.69253000  0.49164000  1
  C  C149  1  0.83033000  0.40954000  0.62006000  1
  C  C150  1  0.80343000  0.27186000  0.98929000  1
  C  C151  1  0.83992000  0.32205000  0.01183000  1
  C  C152  1  0.92338000  0.33876000  0.03875000  1
  C  C153  1  0.96303000  0.29888000  0.04431000  1
  C  C154  1  0.91472000  0.23460000  0.02671000  1
  C  C155  1  0.83917000  0.22648000  0.99699000  1
  C  C156  1  0.96855000  0.39596000  0.06247000  1
  C  C157  1  0.83702000  0.60309000  0.05194000  1
  C  C158  1  0.84536000  0.67241000  0.02192000  1
  C  C159  1  0.82048000  0.66204000  0.98816000  1
  C  C160  1  0.80146000  0.58864000  0.98570000  1
  C  C161  1  0.79741000  0.52119000  0.01591000  1
  C  C162  1  0.81384000  0.52776000  0.04932000  1
  C  C163  1  0.80001000  0.45210000  0.08172000  1
  C  C164  1  0.81552000  0.72939000  0.95470000  1
  O  O1  1  0.03585000  0.05623000  0.17067000  1
  O  O2  1  0.13741000  0.14790000  0.04373000  1
  O  O3  1  0.06620000  0.77565000  0.07636000  1
  O  O4  1  0.08503000  0.81698000  0.11956000  1
  O  O5  1  0.06665000  0.20823000  0.11002000  1
  O  O6  1  0.16622000  0.19169000  0.10897000  1
  O  O7  1  0.06658000  0.93236000  0.05511000  1
  O  O8  1  0.23975000  0.95907000  0.06749000  1
  O  O9  1  0.25354000  0.07517000  0.06676000  1
  O  O10  1  0.01791000  0.93117000  0.67830000  1
  O  O11  1  0.20334000  0.94450000  0.57281000  1
  O  O12  1  0.13523000  0.87116000  0.61909000  1
  O  O13  1  0.01490000  0.09835000  0.64697000  1
  O  O14  1  0.06178000  0.15372000  0.59605000  1
  O  O15  1  0.02763000  0.91934000  0.55187000  1
  O  O16  1  0.15742000  0.04341000  0.50205000  1
  O  O17  1  0.16203000  0.09340000  0.53793000  1
  O  O18  1  0.15049000  0.99985000  0.99509000  1
  O  O19  1  0.07774000  0.05394000  0.98894000  1
  O  O20  1  0.03522000  0.78114000  0.55578000  1
  O  O21  1  0.00804000  0.97962000  0.07237000  1
  O  O22  1  0.99812000  0.08699000  0.52907000  1
  O  O23  1  0.99851000  0.92605000  0.17322000  1
  O  O24  1  0.97208000  0.88032000  0.48939000  1
  O  O25  1  0.96295000  0.99103000  0.47830000  1
  O  O26  1  0.89717000  0.91067000  0.68386000  1
  O  O27  1  0.98855000  0.03602000  0.10271000  1
  O  O28  1  0.93139000  0.82280000  0.11910000  1
  O  O29  1  0.83945000  0.95430000  0.13676000  1
  O  O30  1  0.80789000  0.88202000  0.10299000  1
  O  O31  1  0.87999000  0.09960000  0.07068000  1
  O  O32  1  0.98502000  0.16496000  0.03844000  1
  O  O33  1  0.96665000  0.82775000  0.00948000  1
  O  O34  1  0.89010000  0.76825000  0.05237000  1
  O  O35  1  0.92022000  0.97156000  0.61039000  1
  O  O36  1  0.95771000  0.80859000  0.63532000  1
  O  O37  1  0.94533000  0.92856000  0.57607000  1
  O  O38  1  0.74459000  0.88511000  0.62170000  1
  O  O39  1  0.79373000  0.79763000  0.64012000  1
  O  O40  1  0.85375000  0.07992000  0.59231000  1
  O  O41  1  0.83840000  0.04308000  0.54805000  1
  O  O42  1  0.91923000  0.73923000  0.57531000  1
