# Generated by REPEAT Assigner based on pymatgen
data_DB7-ddmof_18583
_audit_creation_date              2022-05-24
_audit_creation_method            REPEAT_Assigner
_cell_length_a                    30.739620
_cell_length_b                    26.798300
_cell_length_c                    40.449700
_cell_angle_alpha                 103.747660
_cell_angle_beta                  115.830490
_cell_angle_gamma                 112.115520
_cell_volume                      24349.207968
_symmetry_space_group_name_H-M    P1
_symmetry_Int_Tables_number       1
loop_
    _symmetry_equiv_pos_site_id
    _symmetry_equiv_pos_as_xyz
    1  x,y,z
loop_
    _atom_site_type_symbol
    _atom_site_label
    _atom_site_fract_x
    _atom_site_fract_y
    _atom_site_fract_z
    _atom_type_partial_charge
    C   C1    0.556240  0.261450  0.891940  0.045533
    C   C2    0.578630  0.225860  0.902190  -0.047667
    C   C3    0.638640  0.253630  0.928350  0.200487
    C   C4    0.676020  0.315700  0.941550  -0.061004
    C   C5    0.654040  0.348520  0.926220  0.067952
    C   C6    0.594030  0.321280  0.901490  -0.010435
    C   C7    0.501720  0.240190  0.885310  -0.153153
    C   C8    0.665580  0.220400  0.931320  -0.332479
    C   C9    0.686040  0.413520  0.945760  -0.174306
    C   C10   0.481590  0.187710  0.889990  -0.109850
    C   C11   0.723930  0.257350  0.947260  -0.036493
    C   C12   0.650960  0.436890  0.936930  -0.071140
    C   C13   0.729600  0.609560  0.941460  -0.624217
    C   C14   0.738890  0.607090  0.978080  0.090673
    C   C15   0.709470  0.550790  0.976100  -0.207976
    C   C16   0.670370  0.496500  0.937550  0.290071
    C   C17   0.658160  0.499440  0.900590  -0.210842
    C   C18   0.687580  0.555750  0.902520  0.116920
    C   C19   0.364260  0.133800  0.924030  -0.487435
    C   C20   0.406380  0.196320  0.942220  0.024351
    C   C21   0.444220  0.214150  0.930730  -0.210491
    C   C22   0.440060  0.169690  0.900720  0.280187
    C   C23   0.398220  0.107300  0.882700  -0.140476
    C   C24   0.360490  0.089400  0.894250  0.000471
    C   C25   0.828230  0.191190  0.940420  -0.474186
    C   C26   0.770500  0.161180  0.905990  0.062593
    C   C27   0.736230  0.182650  0.908060  -0.212220
    C   C28   0.759390  0.234210  0.944610  0.286249
    C   C29   0.817220  0.264720  0.978660  -0.198556
    C   C30   0.851440  0.243350  0.976660  0.014806
    C   C31   0.554990  0.254860  0.391060  0.051456
    C   C32   0.577880  0.220110  0.402400  -0.055161
    C   C33   0.637940  0.248680  0.429270  0.208669
    C   C34   0.674940  0.310660  0.442050  -0.063466
    C   C35   0.652610  0.342540  0.425640  0.069586
    C   C36   0.592510  0.314540  0.400240  -0.013807
    C   C37   0.500010  0.233170  0.383700  -0.157253
    C   C38   0.665610  0.216200  0.433520  -0.342433
    C   C39   0.683960  0.407460  0.444440  -0.172689
    C   C40   0.479990  0.181100  0.388810  -0.104485
    C   C41   0.724150  0.253620  0.450040  -0.029847
    C   C42   0.648280  0.430030  0.434350  -0.072092
    C   C43   0.726560  0.601300  0.437150  -0.627435
    C   C44   0.735060  0.599810  0.473860  0.088180
    C   C45   0.705640  0.543930  0.472350  -0.206764
    C   C46   0.667340  0.489080  0.434180  0.292341
    C   C47   0.655800  0.491040  0.397050  -0.207963
    C   C48   0.685220  0.546940  0.398510  0.110691
    C   C49   0.361450  0.127100  0.421770  -0.492183
    C   C50   0.403930  0.189590  0.440320  0.026492
    C   C51   0.442050  0.207490  0.429070  -0.199515
    C   C52   0.437880  0.163100  0.399000  0.272399
    C   C53   0.395650  0.100730  0.380600  -0.143798
    C   C54   0.357580  0.082780  0.391870  -0.000301
    C   C55   0.829870  0.188390  0.445310  -0.478737
    C   C56   0.772860  0.159160  0.410060  0.068497
    C   C57   0.738140  0.180320  0.411460  -0.218337
    C   C58   0.760120  0.230850  0.448120  0.292702
    C   C59   0.817270  0.260680  0.482980  -0.211514
    C   C60   0.851930  0.239550  0.481680  0.031023
    C   C61   0.473300  0.761450  0.995810  0.025411
    C   C62   0.474310  0.814960  0.011900  -0.043097
    C   C63   0.445710  0.816880  0.030920  0.212889
    C   C64   0.413000  0.763730  0.031220  -0.054049
    C   C65   0.404810  0.707970  0.009660  0.108867
    C   C66   0.435220  0.707080  0.992100  -0.027948
    C   C67   0.523120  0.773310  0.996860  -0.192360
    C   C68   0.428920  0.859220  0.035890  -0.343012
    C   C69   0.385930  0.657530  0.017050  -0.231030
    C   C70   0.563310  0.836140  0.014810  -0.006002
    C   C71   0.383530  0.839040  0.040410  -0.043906
    C   C72   0.403100  0.618430  0.006330  -0.051797
    C   C73   0.306330  0.433230  0.979880  -0.598808
    C   C74   0.279260  0.455270  0.955050  0.101854
    C   C75   0.311510  0.514880  0.962240  -0.208046
    C   C76   0.371060  0.552990  0.994310  0.299746
    C   C77   0.398670  0.529960  0.017600  -0.219791
    C   C78   0.366480  0.470350  0.010480  0.079028
    C   C79   0.702250  0.910780  0.002590  -0.519027
    C   C80   0.699580  0.873860  0.022090  0.038671
    C   C81   0.653920  0.849160  0.025720  -0.181579
    C   C82   0.610700  0.861410  0.010160  0.196235
    C   C83   0.613200  0.898150  0.990540  -0.086590
    C   C84   0.658760  0.922710  0.986770  -0.004380
    C   C85   0.254330  0.880880  0.002040  -0.555593
    C   C86   0.269740  0.864150  0.975280  -0.001698
    C   C87   0.313520  0.852690  0.988370  -0.163654
    C   C88   0.342390  0.858000  0.028370  0.267724
    C   C89   0.327760  0.875770  0.055380  -0.185711
    C   C90   0.284080  0.887410  0.042370  0.084444
    C   C91   0.473760  0.756130  0.497020  0.004939
    C   C92   0.473290  0.809250  0.511080  -0.025491
    C   C93   0.445020  0.812510  0.530180  0.198338
    C   C94   0.414070  0.760970  0.532610  -0.029957
    C   C95   0.407310  0.705200  0.513130  0.057108
    C   C96   0.437380  0.702980  0.495390  0.011057
    C   C97   0.523630  0.768120  0.498100  -0.200712
    C   C98   0.426800  0.853800  0.533300  -0.340433
    C   C99   0.391020  0.657430  0.523290  -0.224206
    C   C100  0.562360  0.830710  0.514070  0.004838
    C   C101  0.382030  0.834380  0.538470  -0.045452
    C   C102  0.409920  0.619320  0.514590  -0.024978
    C   C103  0.318240  0.437120  0.494950  -0.585492
    C   C104  0.355170  0.487790  0.535430  0.143103
    C   C105  0.387390  0.546940  0.542050  -0.234554
    C   C106  0.383100  0.556300  0.508400  0.238720
    C   C107  0.347640  0.505620  0.468140  -0.144032
    C   C108  0.315480  0.446270  0.461450  0.052967
    C   C109  0.701570  0.904040  0.501960  -0.504917
    C   C110  0.698690  0.867430  0.521680  0.027922
    C   C111  0.652960  0.843150  0.525280  -0.168996
    C   C112  0.609790  0.855420  0.509400  0.181270
    C   C113  0.612510  0.891860  0.489570  -0.078604
    C   C114  0.658200  0.916080  0.485900  -0.007958
    C   C115  0.251340  0.874090  0.498020  -0.560235
    C   C116  0.268160  0.858550  0.472030  0.010050
    C   C117  0.312130  0.847400  0.485700  -0.174646
    C   C118  0.339880  0.851950  0.525550  0.276176
    C   C119  0.323590  0.868180  0.551700  -0.195836
    C   C120  0.279650  0.879370  0.538080  0.093807
    C   C121  0.201040  0.076090  0.961220  0.490699
    C   C122  0.168840  0.207150  0.965870  0.409681
    C   C123  0.875700  0.824740  0.949510  0.554904
    C   C124  0.876290  0.976660  0.976270  0.536926
    C   C125  0.036360  0.017840  0.087640  0.814502
    C   C126  0.964580  0.095500  0.969100  0.471726
    C   C127  0.034860  0.005290  0.831600  0.606587
    C   C128  0.078340  0.927300  0.943840  0.695588
    C   C129  0.197660  0.070030  0.458360  0.543244
    C   C130  0.172400  0.205630  0.470780  0.388738
    C   C131  0.873860  0.815610  0.445130  0.552053
    C   C132  0.874820  0.967550  0.474880  0.538733
    C   C133  0.035390  0.003150  0.585190  0.913675
    C   C134  0.964800  0.090380  0.472040  0.482278
    C   C135  0.031330  0.010120  0.331180  0.687720
    C   C136  0.077620  0.923840  0.439930  0.674958
    C   C137  0.045730  0.001990  0.693280  0.505839
    C   C138  0.071920  0.057300  0.660050  0.480389
    C   C139  0.042970  0.002220  0.623660  -0.508923
    C   C140  0.016510  0.946240  0.623160  0.356667
    C   C141  0.017810  0.946060  0.658000  -0.487546
    C   C142  0.038580  0.004610  0.796270  -0.222444
    C   C143  0.058730  0.971570  0.782280  0.207036
    C   C144  0.061310  0.970610  0.748620  -0.417244
    C   C145  0.043650  0.002690  0.729010  0.444192
    C   C146  0.022090  0.036930  0.776200  0.397419
    C   C147  0.038800  0.013490  0.229190  0.418415
    C   C148  0.058480  0.066370  0.295210  0.530756
    C   C149  0.031300  0.010650  0.294850  -0.290754
    C   C150  0.006820  0.955550  0.260410  0.159670
    C   C151  0.010190  0.956820  0.227350  -0.366946
    C   C152  0.041530  0.019240  0.125890  -0.334523
    C   C153  0.055350  0.981430  0.140780  0.147101
    C   C154  0.055580  0.980030  0.175100  -0.390852
    C   C155  0.041100  0.015890  0.193940  0.477081
    C   C156  0.029280  0.056040  0.146490  0.517286
    C   C157  0.210730  0.265010  0.476440  0.864130
    C   C158  0.281440  0.375090  0.487610  1.044225
    C   C159  0.748840  0.928020  0.496980  1.079929
    C   C160  0.832730  0.960620  0.484510  0.720873
    C   C161  0.119560  0.906730  0.455800  0.637968
    C   C162  0.204200  0.884670  0.483310  1.123153
    C   C163  0.271400  0.373420  0.975910  1.102227
    C   C164  0.204350  0.265880  0.969360  0.834703
    C   C165  0.833740  0.969040  0.985540  0.744896
    C   C166  0.749540  0.935350  0.997690  1.090664
    C   C167  0.120930  0.911100  0.960200  0.607300
    C   C168  0.206610  0.890560  0.987620  1.138608
    C   C169  0.931240  0.116480  0.456800  0.734917
    C   C170  0.865510  0.163880  0.445030  0.992618
    C   C171  0.835560  0.759480  0.442680  0.717539
    C   C172  0.764530  0.658190  0.439750  1.130905
    C   C173  0.241750  0.079120  0.450650  0.739465
    C   C174  0.319930  0.108240  0.432560  1.048001
    C   C175  0.863460  0.166390  0.939580  0.997841
    C   C176  0.929930  0.119840  0.952260  0.728823
    C   C177  0.767190  0.666960  0.944300  1.116689
    C   C178  0.837640  0.768730  0.947310  0.748874
    C   C179  0.323040  0.114990  0.935100  1.036850
    C   C180  0.245210  0.085710  0.953520  0.736361
    H   H1    0.481690  0.266110  0.882590  0.122442
    H   H2    0.642040  0.170830  0.917790  0.175696
    H   H3    0.732850  0.442320  0.965590  0.136760
    H   H4    0.770150  0.648490  0.008210  0.067682
    H   H5    0.718960  0.549000  0.004770  0.111684
    H   H6    0.628210  0.457750  0.870650  0.113047
    H   H7    0.679680  0.557020  0.873980  0.066853
    H   H8    0.409530  0.231130  0.964980  0.102557
    H   H9    0.477140  0.262400  0.945510  0.130992
    H   H10   0.395070  0.072620  0.859830  0.110234
    H   H11   0.328590  0.041000  0.880240  0.071014
    H   H12   0.752220  0.121360  0.877670  0.051867
    H   H13   0.691960  0.159540  0.881200  0.132693
    H   H14   0.835490  0.304620  0.006940  0.114645
    H   H15   0.895670  0.266620  0.003640  0.117950
    H   H16   0.479540  0.258640  0.380230  0.122528
    H   H17   0.642500  0.166680  0.420310  0.176830
    H   H18   0.730750  0.436780  0.464640  0.136307
    H   H19   0.765810  0.641650  0.503740  0.070787
    H   H20   0.714580  0.542920  0.501140  0.108889
    H   H21   0.626440  0.448910  0.367390  0.111980
    H   H22   0.677920  0.547480  0.369900  0.069659
    H   H23   0.407120  0.224330  0.463160  0.095661
    H   H24   0.475230  0.255710  0.444100  0.127425
    H   H25   0.392510  0.066120  0.357700  0.110767
    H   H26   0.325360  0.034400  0.377560  0.075301
    H   H27   0.755490  0.120190  0.381610  0.050159
    H   H28   0.694410  0.157770  0.384020  0.134253
    H   H29   0.834640  0.299850  0.511330  0.117746
    H   H30   0.895570  0.262240  0.509270  0.109747
    H   H31   0.529580  0.737850  0.985310  0.143079
    H   H32   0.442360  0.897140  0.029470  0.173982
    H   H33   0.361380  0.650240  0.030120  0.141756
    H   H34   0.232980  0.427090  0.931210  0.068682
    H   H35   0.289930  0.532100  0.943760  0.113320
    H   H36   0.444730  0.558890  0.042140  0.121646
    H   H37   0.388110  0.453460  0.029260  0.077327
    H   H38   0.732440  0.863660  0.033960  0.099368
    H   H39   0.652330  0.820790  0.040840  0.111416
    H   H40   0.579680  0.907270  0.977900  0.086086
    H   H41   0.660320  0.951140  0.971690  0.076531
    H   H42   0.247620  0.859740  0.944290  0.095261
    H   H43   0.324070  0.838320  0.967090  0.126246
    H   H44   0.349550  0.879540  0.086190  0.116224
    H   H45   0.272530  0.900170  0.063270  0.059587
    H   H46   0.531220  0.732970  0.488080  0.146013
    H   H47   0.438940  0.890200  0.525340  0.174418
    H   H48   0.367860  0.651970  0.537460  0.157721
    H   H49   0.357780  0.481590  0.561590  0.055126
    H   H50   0.414530  0.585790  0.573210  0.117185
    H   H51   0.343560  0.512330  0.441810  0.099647
    H   H52   0.287980  0.407600  0.430200  0.076811
    H   H53   0.731450  0.857130  0.533740  0.100333
    H   H54   0.651270  0.815110  0.540630  0.107411
    H   H55   0.579050  0.901000  0.476680  0.085025
    H   H56   0.659930  0.944320  0.470690  0.076044
    H   H57   0.247150  0.855040  0.441260  0.093574
    H   H58   0.323830  0.834040  0.465020  0.129279
    H   H59   0.344450  0.871290  0.582360  0.119330
    H   H60   0.266930  0.891050  0.558360  0.055451
    H   H61   0.084510  0.038740  0.029560  0.422400
    H   H62   0.961130  0.988130  0.880510  0.320894
    H   H63   0.083080  0.030000  0.527980  0.406547
    H   H64   0.961020  0.987920  0.381030  0.337793
    H   H65   0.093350  0.101160  0.661450  0.045304
    H   H66   0.993410  0.903010  0.595430  0.044964
    H   H67   0.995940  0.902780  0.657200  0.149748
    H   H68   0.072690  0.947020  0.797550  0.088594
    H   H69   0.077220  0.945430  0.737970  0.143183
    H   H70   0.006450  0.062830  0.786400  0.028790
    H   H71   0.078100  0.109560  0.321690  0.029614
    H   H72   0.985020  0.911870  0.259170  0.043375
    H   H73   0.990130  0.914120  0.200280  0.152920
    H   H74   0.065810  0.953250  0.125860  0.084067
    H   H75   0.066870  0.951320  0.186960  0.144796
    H   H76   0.018280  0.085450  0.135430  0.010365
    N   N1    0.072190  0.055990  0.693570  -0.644106
    N   N2    0.025240  0.035550  0.743470  -0.596326
    N   N3    0.061460  0.066610  0.262630  -0.649095
    N   N4    0.029440  0.053690  0.179770  -0.649099
    N   N5    0.263400  0.306410  0.513500  -0.374663
    N   N6    0.298280  0.360560  0.518970  -0.359138
    N   N7    0.228910  0.333380  0.450330  -0.360674
    N   N8    0.194160  0.278980  0.444770  -0.363737
    N   N9    0.802920  0.945950  0.527440  -0.430438
    N   N10   0.844260  0.962040  0.521290  -0.264276
    N   N11   0.779190  0.944700  0.454630  -0.326622
    N   N12   0.737870  0.928730  0.460790  -0.373027
    N   N13   0.115980  0.861230  0.428970  -0.331250
    N   N14   0.157660  0.850280  0.442540  -0.388813
    N   N15   0.207280  0.929490  0.510280  -0.396649
    N   N16   0.165630  0.940460  0.496690  -0.319951
    N   N17   0.285200  0.366650  0.010610  -0.380469
    N   N18   0.252200  0.313650  0.007380  -0.367690
    N   N19   0.190630  0.272460  0.934590  -0.326977
    N   N20   0.223580  0.325560  0.937830  -0.400093
    N   N21   0.779780  0.951530  0.955200  -0.339265
    N   N22   0.738310  0.935050  0.961210  -0.370686
    N   N23   0.803980  0.954800  0.028560  -0.431704
    N   N24   0.845490  0.971460  0.022580  -0.282605
    N   N25   0.168750  0.947550  0.000450  -0.297193
    N   N26   0.210910  0.937310  0.014020  -0.413383
    N   N27   0.158340  0.853470  0.947560  -0.400585
    N   N28   0.116130  0.863630  0.934040  -0.316617
    N   N29   0.956430  0.178110  0.476980  -0.344067
    N   N30   0.924090  0.201520  0.470870  -0.382749
    N   N31   0.840410  0.102440  0.423110  -0.342440
    N   N32   0.872870  0.079120  0.428810  -0.319807
    N   N33   0.778260  0.723460  0.410860  -0.350069
    N   N34   0.743270  0.673340  0.409300  -0.386184
    N   N35   0.821770  0.694450  0.471680  -0.401858
    N   N36   0.856750  0.744390  0.473140  -0.308770
    N   N37   0.225590  0.046420  0.411570  -0.337838
    N   N38   0.264120  0.060680  0.402670  -0.361935
    N   N39   0.336470  0.139900  0.471970  -0.397361
    N   N40   0.297900  0.125580  0.480870  -0.338243
    N   N41   0.838610  0.104690  0.919790  -0.347000
    N   N42   0.871430  0.081770  0.925940  -0.312597
    N   N43   0.954680  0.181520  0.969990  -0.345081
    N   N44   0.921940  0.204470  0.963430  -0.386810
    N   N45   0.824430  0.703530  0.976250  -0.380845
    N   N46   0.859120  0.753730  0.977760  -0.343083
    N   N47   0.780340  0.732450  0.915510  -0.358643
    N   N48   0.745640  0.682130  0.913930  -0.382307
    N   N49   0.339350  0.147900  0.974230  -0.404678
    N   N50   0.300950  0.133530  0.983270  -0.321464
    N   N51   0.229310  0.051770  0.914770  -0.333593
    N   N52   0.267660  0.066140  0.905710  -0.354551
    O   O1    0.041070  0.966630  0.845160  -0.742744
    O   O2    0.030160  0.047580  0.851330  -0.593790
    O   O3    0.035450  0.895300  0.903890  -0.708658
    O   O4    0.000910  0.998460  0.898940  -1.064301
    O   O5    0.215810  0.111640  0.997820  -0.694197
    O   O6    0.146130  0.038950  0.929720  -0.554936
    O   O7    0.080460  0.092100  0.970830  -1.129100
    O   O8    0.089220  0.979920  0.967300  -0.804843
    O   O9    0.125160  0.159360  0.928260  -0.680566
    O   O10   0.183680  0.202060  0.000170  -0.631398
    O   O11   0.958440  0.048400  0.943250  -0.726794
    O   O12   0.931940  0.856870  0.979050  -0.695660
    O   O13   0.853450  0.839660  0.920360  -0.665496
    O   O14   0.858660  0.956280  0.937090  -0.644631
    O   O15   0.925710  0.986080  0.004410  -0.830716
    O   O16   0.964090  0.930680  0.937530  -1.180730
    O   O17   0.022010  0.967170  0.058550  -0.680589
    O   O18   0.046180  0.067230  0.083090  -0.752867
    O   O19   0.992650  0.112850  0.009230  -0.610755
    O   O20   0.043440  0.022890  0.008910  -1.233758
    O   O21   0.037870  0.969860  0.342610  -0.661808
    O   O22   0.029660  0.052850  0.353780  -0.692079
    O   O23   0.036100  0.894320  0.399730  -0.702875
    O   O24   0.000650  0.997690  0.399160  -1.074318
    O   O25   0.213000  0.102500  0.495890  -0.702382
    O   O26   0.142900  0.036890  0.426570  -0.643715
    O   O27   0.080430  0.088160  0.472310  -1.121873
    O   O28   0.087810  0.975030  0.464680  -0.770095
    O   O29   0.126140  0.161290  0.432650  -0.666978
    O   O30   0.186180  0.196980  0.503700  -0.631580
    O   O31   0.958280  0.044300  0.444960  -0.729177
    O   O32   0.930200  0.846570  0.474030  -0.690219
    O   O33   0.851740  0.831650  0.416680  -0.655730
    O   O34   0.857090  0.948480  0.435710  -0.646640
    O   O35   0.923590  0.975100  0.502340  -0.824842
    O   O36   0.962770  0.924860  0.435020  -1.190812
    O   O37   0.021140  0.954010  0.554860  -0.731199
    O   O38   0.043650  0.053250  0.581930  -0.755919
    O   O39   0.992290  0.105090  0.511740  -0.628595
    O   O40   0.042080  0.014610  0.507560  -1.232044
    S   S1    0.531870  0.171030  0.903770  -0.006541
    S   S2    0.739950  0.327830  0.955090  -0.013164
    S   S3    0.581770  0.377230  0.905030  -0.022615
    S   S4    0.530920  0.165390  0.403890  -0.003948
    S   S5    0.739460  0.323560  0.456790  -0.016667
    S   S6    0.579360  0.369750  0.402290  -0.023188
    S   S7    0.536530  0.874930  0.027840  -0.034214
    S   S8    0.364100  0.769490  0.036340  -0.010783
    S   S9    0.439960  0.646140  0.987470  -0.023876
    S   S10   0.534340  0.869080  0.525380  -0.037031
    S   S11   0.364810  0.766630  0.537220  -0.013876
    S   S12   0.444910  0.644150  0.493910  -0.025380
    Zn  Zn1   0.157360  0.122070  0.000420  1.235079
    Zn  Zn2   0.060230  0.078820  0.912700  1.345432
    Zn  Zn3   0.894120  0.918870  0.920410  1.210938
    Zn  Zn4   0.990110  0.941230  0.996270  1.430385
    Zn  Zn5   0.022540  0.011250  0.954170  1.549856
    Zn  Zn6   0.016540  0.064640  0.028810  1.343480
    Zn  Zn7   0.011430  0.937730  0.876130  1.291131
    Zn  Zn8   0.156530  0.114830  0.500590  1.235760
    Zn  Zn9   0.060680  0.079330  0.415040  1.375645
    Zn  Zn10  0.892590  0.912240  0.418140  1.209625
    Zn  Zn11  0.988530  0.931800  0.492980  1.440296
    Zn  Zn12  0.021610  0.006550  0.453560  1.541103
    Zn  Zn13  0.015130  0.054700  0.528860  1.349711
    Zn  Zn14  0.011390  0.938700  0.374400  1.263576
