# generated using pymatgen
data_Co6H34C68S12N4O29
_symmetry_space_group_name_H-M   'P 1'
_cell_length_a   20.55414000
_cell_length_b   21.56489000
_cell_length_c   39.09883000
_cell_angle_alpha   60.72837000
_cell_angle_beta   119.03087000
_cell_angle_gamma   133.24368000
_symmetry_Int_Tables_number   1
_chemical_formula_structural   Co6H34C68S12N4O29
_chemical_formula_sum   'Co12 H68 C136 S24 N8 O58'
_cell_volume   10699.85280413
_cell_formula_units_Z   2
loop_
 _symmetry_equiv_pos_site_id
 _symmetry_equiv_pos_as_xyz
  1  'x, y, z'
loop_
 _atom_site_type_symbol
 _atom_site_label
 _atom_site_symmetry_multiplicity
 _atom_site_fract_x
 _atom_site_fract_y
 _atom_site_fract_z
 _atom_site_occupancy
  Co  Co1  1  0.06858000  0.03211000  0.03908000  1
  Co  Co2  1  0.09098000  0.90051000  0.03423000  1
  Co  Co3  1  0.01462000  0.08455000  0.57536000  1
  Co  Co4  1  0.08501000  0.01919000  0.54770000  1
  Co  Co5  1  0.08777000  0.87031000  0.54670000  1
  Co  Co6  1  0.99213000  0.07897000  0.07443000  1
  Co  Co7  1  0.99214000  0.85572000  0.09470000  1
  Co  Co8  1  0.93953000  0.91180000  0.13759000  1
  Co  Co9  1  0.90268000  0.03526000  0.13950000  1
  Co  Co10  1  0.99019000  0.84378000  0.60172000  1
  Co  Co11  1  0.93855000  0.91517000  0.63635000  1
  Co  Co12  1  0.91007000  0.05328000  0.62930000  1
  H  H1  1  0.14519000  0.53590000  0.14302000  1
  H  H2  1  0.14820000  0.52717000  0.64373000  1
  H  H3  1  0.12824000  0.01160000  0.83830000  1
  H  H4  1  0.16154000  0.02386000  0.33995000  1
  H  H5  1  0.13387000  0.17633000  0.72526000  1
  H  H6  1  0.14901000  0.37503000  0.56181000  1
  H  H7  1  0.22386000  0.37947000  0.20242000  1
  H  H8  1  0.00431000  0.60029000  0.19361000  1
  H  H9  1  0.16951000  0.59983000  0.19971000  1
  H  H10  1  0.13995000  0.55963000  0.69566000  1
  H  H11  1  0.09633000  0.35857000  0.06043000  1
  H  H12  1  0.05292000  0.49134000  0.05448000  1
  H  H13  1  0.14090000  0.17860000  0.22524000  1
  H  H14  1  0.10928000  0.11445000  0.34368000  1
  H  H15  1  0.08735000  0.12361000  0.83381000  1
  H  H16  1  0.21941000  0.37557000  0.70234000  1
  H  H17  1  0.30753000  0.83603000  0.57696000  1
  H  H18  1  0.84533000  0.20435000  0.94752000  1
  H  H19  1  0.28386000  0.87825000  0.64219000  1
  H  H20  1  0.26809000  0.58471000  0.54734000  1
  H  H21  1  0.89611000  0.87146000  0.93175000  1
  H  H22  1  0.92776000  0.85184000  0.44269000  1
  H  H23  1  0.95380000  0.55033000  0.67274000  1
  H  H24  1  0.28843000  0.90081000  0.11182000  1
  H  H25  1  0.28202000  0.17953000  0.97836000  1
  H  H26  1  0.84214000  0.43296000  0.00551000  1
  H  H27  1  0.60295000  0.39813000  0.99729000  1
  H  H28  1  0.58158000  0.17796000  0.00700000  1
  H  H29  1  0.83982000  0.43129000  0.50236000  1
  H  H30  1  0.62935000  0.35733000  0.54270000  1
  H  H31  1  0.62389000  0.15723000  0.54003000  1
  H  H32  1  0.42647000  0.75453000  0.17633000  1
  H  H33  1  0.36950000  0.54462000  0.15336000  1
  H  H34  1  0.42297000  0.74526000  0.68442000  1
  H  H35  1  0.38476000  0.55492000  0.65413000  1
  H  H36  1  0.84474000  0.89945000  0.72953000  1
  H  H37  1  0.86469000  0.87604000  0.24263000  1
  H  H38  1  0.38495000  0.72694000  0.56027000  1
  H  H39  1  0.70346000  0.64000000  0.71570000  1
  H  H40  1  0.55922000  0.66428000  0.72046000  1
  H  H41  1  0.61459000  0.84709000  0.58344000  1
  H  H42  1  0.38229000  0.68881000  0.06443000  1
  H  H43  1  0.69236000  0.62027000  0.23010000  1
  H  H44  1  0.54639000  0.65623000  0.22325000  1
  H  H45  1  0.62346000  0.82499000  0.08939000  1
  H  H46  1  0.43850000  0.88204000  0.11197000  1
  H  H47  1  0.68153000  0.08690000  0.43768000  1
  H  H48  1  0.93505000  0.31931000  0.60290000  1
  H  H49  1  0.97614000  0.28088000  0.54236000  1
  H  H50  1  0.65339000  0.17801000  0.47685000  1
  H  H51  1  0.97552000  0.49277000  0.60229000  1
  H  H52  1  0.65971000  0.63840000  0.46906000  1
  H  H53  1  0.72292000  0.52906000  0.46733000  1
  H  H54  1  0.91020000  0.60215000  0.60038000  1
  H  H55  1  0.41468000  0.01173000  0.66465000  1
  H  H56  1  0.48011000  0.28441000  0.44868000  1
  H  H57  1  0.30170000  0.11157000  0.49660000  1
  H  H58  1  0.57367000  0.17365000  0.61247000  1
  H  H59  1  0.72767000  0.21048000  0.10485000  1
  H  H60  1  0.72646000  0.25672000  0.95448000  1
  H  H61  1  0.84017000  0.15150000  0.09965000  1
  H  H62  1  0.79105000  0.60827000  0.90946000  1
  H  H63  1  0.83311000  0.55283000  0.12671000  1
  H  H64  1  0.83257000  0.46887000  0.07142000  1
  H  H65  1  0.79669000  0.70080000  0.96443000  1
  H  H66  1  0.45115000  0.35584000  0.92541000  1
  H  H67  1  0.45906000  0.16303000  0.13738000  1
  H  H68  1  0.55522000  0.18769000  0.07632000  1
  C  C1  1  0.25235000  0.07316000  0.05143000  1
  C  C2  1  0.01087000  0.97790000  0.21143000  1
  C  C3  1  0.06958000  0.20964000  0.11556000  1
  C  C4  1  0.11760000  0.80820000  0.12033000  1
  C  C5  1  0.09063000  0.21695000  0.61494000  1
  C  C6  1  0.09957000  0.77600000  0.63292000  1
  C  C7  1  0.06804000  0.98199000  0.78039000  1
  C  C8  1  0.06687000  0.98899000  0.81409000  1
  C  C9  1  0.01127000  0.94906000  0.25453000  1
  C  C10  1  0.09527000  0.98815000  0.28313000  1
  C  C11  1  0.09705000  0.99408000  0.31800000  1
  C  C12  1  0.18549000  0.30723000  0.66406000  1
  C  C13  1  0.15953000  0.30339000  0.62419000  1
  C  C14  1  0.16622000  0.37587000  0.59262000  1
  C  C15  1  0.18518000  0.44498000  0.59998000  1
  C  C16  1  0.16812000  0.62841000  0.68134000  1
  C  C17  1  0.12832000  0.66348000  0.67959000  1
  C  C18  1  0.16421000  0.75279000  0.66074000  1
  C  C19  1  0.25068000  0.80821000  0.65267000  1
  C  C20  1  0.19455000  0.37438000  0.17141000  1
  C  C21  1  0.17492000  0.30708000  0.16227000  1
  C  C22  1  0.13524000  0.29832000  0.12232000  1
  C  C23  1  0.19145000  0.66348000  0.17857000  1
  C  C24  1  0.16047000  0.70886000  0.17451000  1
  C  C25  1  0.18728000  0.79074000  0.14641000  1
  C  C26  1  0.21842000  0.56843000  0.14994000  1
  C  C27  1  0.22216000  0.56265000  0.65157000  1
  C  C28  1  0.04430000  0.01401000  0.96128000  1
  C  C29  1  0.06380000  0.99560000  0.47197000  1
  C  C30  1  0.20385000  0.44520000  0.63978000  1
  C  C31  1  0.20091000  0.37425000  0.67146000  1
  C  C32  1  0.24249000  0.68181000  0.66349000  1
  C  C33  1  0.18843000  0.44175000  0.14050000  1
  C  C34  1  0.12782000  0.36497000  0.09129000  1
  C  C35  1  0.01605000  0.96287000  0.32421000  1
  C  C36  1  0.15248000  0.43538000  0.10019000  1
  C  C37  1  0.07159000  0.05686000  0.36586000  1
  C  C38  1  0.07703000  0.06700000  0.40035000  1
  C  C39  1  0.25094000  0.52907000  0.14894000  1
  C  C40  1  0.01943000  0.97268000  0.36046000  1
  C  C41  1  0.02778000  0.99230000  0.42927000  1
  C  C42  1  0.04730000  0.06818000  0.85572000  1
  C  C43  1  0.05510000  0.08215000  0.88956000  1
  C  C44  1  0.00468000  0.00994000  0.91864000  1
  C  C45  1  0.25044000  0.70047000  0.15513000  1
  C  C46  1  0.25942000  0.03692000  0.56759000  1
  C  C47  1  0.99709000  0.98222000  0.70706000  1
  C  C48  1  0.98854000  0.95336000  0.74860000  1
  C  C49  1  0.28265000  0.77323000  0.64804000  1
  C  C50  1  0.96794000  0.89833000  0.38879000  1
  C  C51  1  0.93321000  0.91173000  0.87787000  1
  C  C52  1  0.93778000  0.92670000  0.91039000  1
  C  C53  1  0.96721000  0.90933000  0.42112000  1
  C  C54  1  0.26121000  0.83448000  0.13055000  1
  C  C55  1  0.71537000  0.30222000  0.00395000  1
  C  C56  1  0.76864000  0.39182000  0.00244000  1
  C  C57  1  0.72773000  0.42603000  0.00034000  1
  C  C58  1  0.63375000  0.37205000  0.99789000  1
  C  C59  1  0.58191000  0.28242000  0.00184000  1
  C  C60  1  0.62155000  0.24799000  0.00318000  1
  C  C61  1  0.73859000  0.29088000  0.52148000  1
  C  C62  1  0.77929000  0.38044000  0.51458000  1
  C  C63  1  0.74263000  0.40357000  0.52483000  1
  C  C64  1  0.65962000  0.33896000  0.53655000  1
  C  C65  1  0.61560000  0.25091000  0.54073000  1
  C  C66  1  0.65661000  0.22624000  0.53494000  1
  C  C67  1  0.28209000  0.65167000  0.15895000  1
  C  C68  1  0.37683000  0.69200000  0.16831000  1
  C  C69  1  0.40718000  0.65570000  0.16357000  1
  C  C70  1  0.34488000  0.57311000  0.15593000  1
  C  C71  1  0.28087000  0.64278000  0.66308000  1
  C  C72  1  0.37674000  0.68690000  0.67323000  1
  C  C73  1  0.41279000  0.65897000  0.66618000  1
  C  C74  1  0.35554000  0.57804000  0.65753000  1
  C  C75  1  0.26077000  0.52983000  0.64981000  1
  C  C76  1  0.90069000  0.74436000  0.03548000  1
  C  C77  1  0.76667000  0.84122000  0.15134000  1
  C  C78  1  0.82934000  0.08423000  0.05306000  1
  C  C79  1  0.89156000  0.72827000  0.54341000  1
  C  C80  1  0.76254000  0.86029000  0.63954000  1
  C  C81  1  0.85980000  0.10874000  0.54060000  1
  C  C82  1  0.98949000  0.98282000  0.85058000  1
  C  C83  1  0.98739000  0.96864000  0.81616000  1
  C  C84  1  0.90671000  0.93564000  0.78534000  1
  C  C85  1  0.90665000  0.92349000  0.75320000  1
  C  C86  1  0.93185000  0.92052000  0.29639000  1
  C  C87  1  0.92959000  0.90834000  0.26364000  1
  C  C88  1  0.50642000  0.71949000  0.66066000  1
  C  C89  1  0.57228000  0.70603000  0.69082000  1
  C  C90  1  0.65106000  0.74002000  0.68198000  1
  C  C91  1  0.66824000  0.79407000  0.64353000  1
  C  C92  1  0.60154000  0.80553000  0.61312000  1
  C  C93  1  0.52181000  0.77017000  0.62155000  1
  C  C94  1  0.50164000  0.70839000  0.16059000  1
  C  C95  1  0.56417000  0.69504000  0.19423000  1
  C  C96  1  0.64640000  0.72604000  0.18996000  1
  C  C97  1  0.67022000  0.77739000  0.15249000  1
  C  C98  1  0.60594000  0.78681000  0.11848000  1
  C  C99  1  0.52195000  0.75275000  0.12225000  1
  C  C100  1  0.28503000  0.78720000  0.13062000  1
  C  C101  1  0.84124000  0.17556000  0.51885000  1
  C  C102  1  0.90421000  0.25480000  0.53054000  1
  C  C103  1  0.87270000  0.29298000  0.53280000  1
  C  C104  1  0.78012000  0.26376000  0.51418000  1
  C  C105  1  0.72271000  0.19756000  0.49337000  1
  C  C106  1  0.75143000  0.15065000  0.49730000  1
  C  C107  1  0.79410000  0.49374000  0.52711000  1
  C  C108  1  0.76660000  0.54681000  0.49593000  1
  C  C109  1  0.78843000  0.61808000  0.50257000  1
  C  C110  1  0.84220000  0.63955000  0.54019000  1
  C  C111  1  0.86894000  0.58608000  0.57140000  1
  C  C112  1  0.84819000  0.51560000  0.56467000  1
  C  C113  1  0.35188000  0.09849000  0.56088000  1
  C  C114  1  0.36117000  0.12559000  0.52189000  1
  C  C115  1  0.44580000  0.16790000  0.51547000  1
  C  C116  1  0.52315000  0.18580000  0.54823000  1
  C  C117  1  0.51382000  0.15826000  0.58732000  1
  C  C118  1  0.42892000  0.11562000  0.59375000  1
  C  C119  1  0.76082000  0.26120000  0.01530000  1
  C  C120  1  0.75436000  0.23610000  0.98604000  1
  C  C121  1  0.77967000  0.18094000  0.99757000  1
  C  C122  1  0.81142000  0.15021000  0.03888000  1
  C  C123  1  0.81932000  0.17716000  0.06782000  1
  C  C124  1  0.79669000  0.23387000  0.05624000  1
  C  C125  1  0.78437000  0.51294000  0.00792000  1
  C  C126  1  0.82683000  0.52063000  0.04792000  1
  C  C127  1  0.85569000  0.59114000  0.05829000  1
  C  C128  1  0.84599000  0.65759000  0.02804000  1
  C  C129  1  0.80371000  0.64980000  0.98796000  1
  C  C130  1  0.77464000  0.57908000  0.97772000  1
  C  C131  1  0.49455000  0.22354000  0.01371000  1
  C  C132  1  0.49476000  0.18415000  0.05479000  1
  C  C133  1  0.41944000  0.14422000  0.06846000  1
  C  C134  1  0.34122000  0.14047000  0.04071000  1
  C  C135  1  0.34230000  0.18265000  0.99985000  1
  C  C136  1  0.41758000  0.22248000  0.98610000  1
  S  S1  1  0.18814000  0.53232000  0.55916000  1
  S  S2  1  0.03243000  0.59484000  0.70002000  1
  S  S3  1  0.20190000  0.23487000  0.20113000  1
  S  S4  1  0.09385000  0.66583000  0.20651000  1
  S  S5  1  0.13839000  0.51540000  0.06056000  1
  S  S6  1  0.20182000  0.22999000  0.70505000  1
  S  S7  1  0.35780000  0.84064000  0.61591000  1
  S  S8  1  0.72784000  0.71420000  0.71916000  1
  S  S9  1  0.44026000  0.78747000  0.58250000  1
  S  S10  1  0.71718000  0.69680000  0.23113000  1
  S  S11  1  0.44106000  0.76267000  0.07856000  1
  S  S12  1  0.34592000  0.83232000  0.09541000  1
  S  S13  1  0.94522000  0.36593000  0.56419000  1
  S  S14  1  0.67385000  0.05965000  0.47620000  1
  S  S15  1  0.74328000  0.67661000  0.46447000  1
  S  S16  1  0.88910000  0.45411000  0.60379000  1
  S  S17  1  0.45474000  0.20007000  0.46608000  1
  S  S18  1  0.42085000  0.08754000  0.64274000  1
  S  S19  1  0.76558000  0.14683000  0.96029000  1
  S  S20  1  0.80919000  0.26664000  0.09367000  1
  S  S21  1  0.90205000  0.59415000  0.10933000  1
  S  S22  1  0.72492000  0.57323000  0.92695000  1
  S  S23  1  0.42409000  0.09997000  0.12053000  1
  S  S24  1  0.41393000  0.26893000  0.93415000  1
  N  N1  1  0.15071000  0.00609000  0.77817000  1
  N  N2  1  0.17909000  0.02356000  0.27649000  1
  N  N3  1  0.13651000  0.15290000  0.40696000  1
  N  N4  1  0.11747000  0.16932000  0.89526000  1
  N  N5  1  0.87435000  0.82384000  0.87377000  1
  N  N6  1  0.92133000  0.81158000  0.38642000  1
  N  N7  1  0.82619000  0.91914000  0.78525000  1
  N  N8  1  0.84937000  0.89472000  0.29979000  1
  O  O1  1  0.00921000  0.04638000  0.18895000  1
  O  O2  1  0.05982000  0.12534000  0.03383000  1
  O  O3  1  0.01247000  0.93567000  0.19598000  1
  O  O4  1  0.08138000  0.79754000  0.08385000  1
  O  O5  1  0.10322000  0.84781000  0.13016000  1
  O  O6  1  0.09288000  0.17821000  0.10521000  1
  O  O7  1  0.04248000  0.93007000  0.05612000  1
  O  O8  1  0.22096000  0.99041000  0.06191000  1
  O  O9  1  0.21067000  0.09645000  0.05495000  1
  O  O10  1  0.00379000  0.05462000  0.68350000  1
  O  O11  1  0.09139000  0.12304000  0.54113000  1
  O  O12  1  0.00236000  0.93837000  0.69458000  1
  O  O13  1  0.06455000  0.76459000  0.59667000  1
  O  O14  1  0.09226000  0.82409000  0.64052000  1
  O  O15  1  0.00440000  0.18375000  0.60709000  1
  O  O16  1  0.11344000  0.17989000  0.60839000  1
  O  O17  1  0.11872000  0.97211000  0.49545000  1
  O  O18  1  0.04594000  0.91277000  0.56468000  1
  O  O19  1  0.22007000  0.95227000  0.57652000  1
  O  O20  1  0.22301000  0.06632000  0.57042000  1
  O  O21  1  0.10763000  0.00059000  0.98235000  1
  O  O22  1  0.03806000  0.01759000  0.48679000  1
  O  O23  1  0.14822000  0.95329000  0.76954000  1
  O  O24  1  0.18193000  0.97850000  0.26483000  1
  O  O25  1  0.19750000  0.22337000  0.88692000  1
  O  O26  1  0.22061000  0.20647000  0.40308000  1
  O  O27  1  0.01348000  0.02623000  0.97859000  1
  O  O28  1  0.10579000  0.17857000  0.41565000  1
  O  O29  1  0.22941000  0.07732000  0.78797000  1
  O  O30  1  0.09282000  0.19581000  0.90726000  1
  O  O31  1  0.25404000  0.09809000  0.28475000  1
  O  O32  1  0.90891000  0.79017000  0.87464000  1
  O  O33  1  0.96657000  0.79042000  0.38572000  1
  O  O34  1  0.83595000  0.75162000  0.38878000  1
  O  O35  1  0.98380000  0.16778000  0.11404000  1
  O  O36  1  0.78750000  0.77509000  0.87265000  1
  O  O37  1  0.94494000  0.00513000  0.11441000  1
  O  O38  1  0.94347000  0.81690000  0.14110000  1
  O  O39  1  0.97194000  0.95858000  0.07851000  1
  O  O40  1  0.81877000  0.90556000  0.16853000  1
  O  O41  1  0.80058000  0.83303000  0.13396000  1
  O  O42  1  0.80392000  0.02205000  0.08599000  1
  O  O43  1  0.88917000  0.10095000  0.03909000  1
  O  O44  1  0.95460000  0.81415000  0.01106000  1
  O  O45  1  0.89429000  0.75092000  0.06604000  1
  O  O46  1  0.95358000  0.01295000  0.61094000  1
  O  O47  1  0.93779000  0.81376000  0.64459000  1
  O  O48  1  0.98163000  0.95635000  0.58135000  1
  O  O49  1  0.81378000  0.92648000  0.65535000  1
  O  O50  1  0.79857000  0.84534000  0.62698000  1
  O  O51  1  0.82440000  0.04889000  0.57211000  1
  O  O52  1  0.92432000  0.11971000  0.53298000  1
  O  O53  1  0.95045000  0.79481000  0.52055000  1
  O  O54  1  0.88824000  0.73811000  0.57376000  1
  O  O55  1  0.83104000  0.98151000  0.78641000  1
  O  O56  1  0.74640000  0.84537000  0.77922000  1
  O  O57  1  0.84726000  0.95221000  0.30135000  1
  O  O58  1  0.77384000  0.81673000  0.29669000  1
