# generated using pymatgen
data_Co6H52C104(N2O7)3
_symmetry_space_group_name_H-M   'P 1'
_cell_length_a   27.32789000
_cell_length_b   28.23820000
_cell_length_c   29.52628000
_cell_angle_alpha   60.85634000
_cell_angle_beta   118.78945000
_cell_angle_gamma   133.07104000
_symmetry_Int_Tables_number   1
_chemical_formula_structural   Co6H52C104(N2O7)3
_chemical_formula_sum   'Co12 H104 C208 N12 O42'
_cell_volume   14135.45222023
_cell_formula_units_Z   2
loop_
 _symmetry_equiv_pos_site_id
 _symmetry_equiv_pos_as_xyz
  1  'x, y, z'
loop_
 _atom_site_type_symbol
 _atom_site_label
 _atom_site_symmetry_multiplicity
 _atom_site_fract_x
 _atom_site_fract_y
 _atom_site_fract_z
 _atom_site_occupancy
  Co  Co1  1  0.04250000  0.93974000  0.16339000  1
  Co  Co2  1  0.00574000  0.01354000  0.18887000  1
  Co  Co3  1  0.12385000  0.98616000  0.69119000  1
  Co  Co4  1  0.09603000  0.06375000  0.72189000  1
  Co  Co5  1  0.09396000  0.91698000  0.60912000  1
  Co  Co6  1  0.02344000  0.13328000  0.69301000  1
  Co  Co7  1  0.00297000  0.95537000  0.60307000  1
  Co  Co8  1  0.00000000  0.83094000  0.11593000  1
  Co  Co9  1  0.87359000  0.95491000  0.11401000  1
  Co  Co10  1  0.91427000  0.88740000  0.08615000  1
  Co  Co11  1  0.89403000  0.03011000  0.18182000  1
  Co  Co12  1  0.97497000  0.02923000  0.63667000  1
  H  H1  1  0.06906000  0.93291000  0.97895000  1
  H  H2  1  0.08735000  0.97695000  0.88880000  1
  H  H3  1  0.10887000  0.04057000  0.35803000  1
  H  H4  1  0.13748000  0.04108000  0.45089000  1
  H  H5  1  0.19090000  0.19976000  0.83404000  1
  H  H6  1  0.12286000  0.58822000  0.80599000  1
  H  H7  1  0.05741000  0.63099000  0.78157000  1
  H  H8  1  0.05446000  0.72573000  0.75612000  1
  H  H9  1  0.15260000  0.30042000  0.32090000  1
  H  H10  1  0.12993000  0.17567000  0.25350000  1
  H  H11  1  0.05292000  0.26526000  0.09865000  1
  H  H12  1  0.04907000  0.72889000  0.31316000  1
  H  H13  1  0.10642000  0.67475000  0.34746000  1
  H  H14  1  0.07244000  0.36935000  0.08429000  1
  H  H15  1  0.10812000  0.45378000  0.12005000  1
  H  H16  1  0.11192000  0.61744000  0.32384000  1
  H  H17  1  0.17789000  0.26675000  0.28811000  1
  H  H18  1  0.16005000  0.50114000  0.19509000  1
  H  H19  1  0.15062000  0.55817000  0.32900000  1
  H  H20  1  0.14927000  0.06980000  0.00580000  1
  H  H21  1  0.19832000  0.39082000  0.35507000  1
  H  H22  1  0.23462000  0.37224000  0.85160000  1
  H  H23  1  0.23161000  0.60793000  0.82334000  1
  H  H24  1  0.24541000  0.29870000  0.86157000  1
  H  H25  1  0.21137000  0.90678000  0.23452000  1
  H  H26  1  0.21465000  0.15725000  0.93641000  1
  H  H27  1  0.28208000  0.32668000  0.69886000  1
  H  H28  1  0.24206000  0.91404000  0.78893000  1
  H  H29  1  0.27554000  0.47298000  0.86772000  1
  H  H30  1  0.27759000  0.15724000  0.57942000  1
  H  H31  1  0.24706000  0.99223000  0.15427000  1
  H  H32  1  0.35280000  0.44789000  0.68280000  1
  H  H33  1  0.30680000  0.86620000  0.82865000  1
  H  H34  1  0.30717000  0.91039000  0.24202000  1
  H  H35  1  0.31773000  0.22563000  0.90253000  1
  H  H36  1  0.33344000  0.74584000  0.27872000  1
  H  H37  1  0.35077000  0.26139000  0.52022000  1
  H  H38  1  0.35145000  0.85026000  0.25834000  1
  H  H39  1  0.33791000  0.02437000  0.68085000  1
  H  H40  1  0.35707000  0.84842000  0.80688000  1
  H  H41  1  0.36180000  0.63735000  0.20469000  1
  H  H42  1  0.34738000  0.05699000  0.11914000  1
  H  H43  1  0.38878000  0.59665000  0.74563000  1
  H  H44  1  0.38938000  0.54662000  0.69871000  1
  H  H45  1  0.39041000  0.06172000  0.06913000  1
  H  H46  1  0.41946000  0.80783000  0.82132000  1
  H  H47  1  0.41874000  0.68166000  0.13672000  1
  H  H48  1  0.43158000  0.25780000  0.91409000  1
  H  H49  1  0.43607000  0.09600000  0.64077000  1
  H  H50  1  0.93813000  0.61635000  0.69791000  1
  H  H51  1  0.94798000  0.71813000  0.67592000  1
  H  H52  1  0.92013000  0.97492000  0.91625000  1
  H  H53  1  0.93941000  0.02009000  0.82627000  1
  H  H54  1  0.89697000  0.94844000  0.34287000  1
  H  H55  1  0.92494000  0.94774000  0.43593000  1
  H  H56  1  0.52361000  0.83233000  0.77000000  1
  H  H57  1  0.63000000  0.90737000  0.73938000  1
  H  H58  1  0.58529000  0.70315000  0.88596000  1
  H  H59  1  0.70067000  0.73839000  0.89715000  1
  H  H60  1  0.80396000  0.80993000  0.86260000  1
  H  H61  1  0.67340000  0.91816000  0.68614000  1
  H  H62  1  0.77318000  0.98461000  0.64968000  1
  H  H63  1  0.86593000  0.89550000  0.79148000  1
  H  H64  1  0.76657000  0.81361000  0.29039000  1
  H  H65  1  0.65978000  0.73806000  0.32075000  1
  H  H66  1  0.65024000  0.81644000  0.12735000  1
  H  H67  1  0.52449000  0.74652000  0.10818000  1
  H  H68  1  0.58805000  0.73906000  0.33318000  1
  H  H69  1  0.48210000  0.67920000  0.35907000  1
  H  H70  1  0.81562000  0.06717000  0.55881000  1
  H  H71  1  0.75275000  0.11490000  0.52799000  1
  H  H72  1  0.99298000  0.26268000  0.50998000  1
  H  H73  1  0.98667000  0.35862000  0.46613000  1
  H  H74  1  0.93308000  0.40995000  0.45040000  1
  H  H75  1  0.74320000  0.16328000  0.55965000  1
  H  H76  1  0.69826000  0.21780000  0.55262000  1
  H  H77  1  0.84568000  0.40254000  0.46321000  1
  H  H78  1  0.75314000  0.54042000  0.44220000  1
  H  H79  1  0.79121000  0.63175000  0.47033000  1
  H  H80  1  0.83558000  0.46252000  0.60138000  1
  H  H81  1  0.89972000  0.52475000  0.66943000  1
  H  H82  1  0.76743000  0.66126000  0.50950000  1
  H  H83  1  0.81834000  0.76197000  0.53254000  1
  H  H84  1  0.56799000  0.19307000  0.53566000  1
  H  H85  1  0.46603000  0.11974000  0.57142000  1
  H  H86  1  0.54675000  0.35344000  0.47001000  1
  H  H87  1  0.44836000  0.33258000  0.47900000  1
  H  H88  1  0.77807000  0.32423000  0.01293000  1
  H  H89  1  0.83408000  0.27788000  0.02472000  1
  H  H90  1  0.59305000  0.18722000  0.91829000  1
  H  H91  1  0.58505000  0.10175000  0.90780000  1
  H  H92  1  0.63258000  0.04123000  0.93284000  1
  H  H93  1  0.88471000  0.25680000  0.00670000  1
  H  H94  1  0.92577000  0.18696000  0.04525000  1
  H  H95  1  0.72334000  0.02388000  0.98785000  1
  H  H96  1  0.75295000  0.62035000  0.12681000  1
  H  H97  1  0.69814000  0.52226000  0.09795000  1
  H  H98  1  0.81708000  0.74975000  0.97932000  1
  H  H99  1  0.78133000  0.70007000  0.91034000  1
  H  H100  1  0.73710000  0.60382000  0.88482000  1
  H  H101  1  0.72606000  0.46653000  0.09586000  1
  H  H102  1  0.68667000  0.37225000  0.07108000  1
  H  H103  1  0.69131000  0.48591000  0.90787000  1
  H  H104  1  0.49564000  0.13311000  0.03776000  1
  C  C1  1  0.07577000  0.83720000  0.22792000  1
  C  C2  1  0.03216000  0.14677000  0.16145000  1
  C  C3  1  0.12559000  0.97504000  0.09947000  1
  C  C4  1  0.11199000  0.85875000  0.72574000  1
  C  C5  1  0.17351000  0.20346000  0.73396000  1
  C  C6  1  0.04036000  0.95153000  0.94571000  1
  C  C7  1  0.05021000  0.97585000  0.89446000  1
  C  C8  1  0.06844000  0.01932000  0.37517000  1
  C  C9  1  0.08481000  0.02034000  0.42773000  1
  C  C10  1  0.15046000  0.64003000  0.80459000  1
  C  C11  1  0.11322000  0.66422000  0.79105000  1
  C  C12  1  0.14755000  0.73097000  0.78913000  1
  C  C13  1  0.14446000  0.82450000  0.76663000  1
  C  C14  1  0.10993000  0.75675000  0.77091000  1
  C  C15  1  0.14628000  0.26424000  0.24797000  1
  C  C16  1  0.12269000  0.21475000  0.22733000  1
  C  C17  1  0.08421000  0.21201000  0.17461000  1
  C  C18  1  0.07932000  0.26531000  0.14028000  1
  C  C19  1  0.09628000  0.75540000  0.30227000  1
  C  C20  1  0.12325000  0.81943000  0.26742000  1
  C  C21  1  0.04954000  0.99140000  0.50698000  1
  C  C22  1  0.03345000  0.99529000  0.45001000  1
  C  C23  1  0.10136000  0.31437000  0.16075000  1
  C  C24  1  0.12988000  0.31066000  0.21607000  1
  C  C25  1  0.09343000  0.36585000  0.12676000  1
  C  C26  1  0.14311000  0.35503000  0.23747000  1
  C  C27  1  0.11304000  0.41341000  0.14714000  1
  C  C28  1  0.03091000  0.03459000  0.79851000  1
  C  C29  1  0.13786000  0.40853000  0.20217000  1
  C  C30  1  0.12627000  0.72285000  0.31893000  1
  C  C31  1  0.22190000  0.24929000  0.80993000  1
  C  C32  1  0.22919000  0.25655000  0.76260000  1
  C  C33  1  0.15870000  0.34593000  0.29292000  1
  C  C34  1  0.15893000  0.45740000  0.22233000  1
  C  C35  1  0.16213000  0.64645000  0.31697000  1
  C  C36  1  0.01388000  0.00062000  0.85105000  1
  C  C37  1  0.18574000  0.45371000  0.27716000  1
  C  C38  1  0.18087000  0.39562000  0.31244000  1
  C  C39  1  0.18779000  0.85548000  0.25816000  1
  C  C40  1  0.22258000  0.68306000  0.81351000  1
  C  C41  1  0.18314000  0.61236000  0.31816000  1
  C  C42  1  0.18242000  0.75362000  0.29924000  1
  C  C43  1  0.19019000  0.02435000  0.08161000  1
  C  C44  1  0.19229000  0.06649000  0.02997000  1
  C  C45  1  0.23349000  0.03448000  0.64635000  1
  C  C46  1  0.24894000  0.30548000  0.82369000  1
  C  C47  1  0.27339000  0.32088000  0.73398000  1
  C  C48  1  0.22036000  0.77332000  0.80359000  1
  C  C49  1  0.21534000  0.86283000  0.78933000  1
  C  C50  1  0.20385000  0.71727000  0.30343000  1
  C  C51  1  0.21729000  0.82266000  0.27328000  1
  C  C52  1  0.23727000  0.51608000  0.29466000  1
  C  C53  1  0.25904000  0.66001000  0.82106000  1
  C  C54  1  0.24487000  0.64779000  0.30441000  1
  C  C55  1  0.27199000  0.42061000  0.83088000  1
  C  C56  1  0.28145000  0.36966000  0.78882000  1
  C  C57  1  0.26581000  0.61156000  0.30358000  1
  C  C58  1  0.29861000  0.37756000  0.74612000  1
  C  C59  1  0.25835000  0.75075000  0.81200000  1
  C  C60  1  0.25306000  0.83708000  0.80879000  1
  C  C61  1  0.26551000  0.75292000  0.28854000  1
  C  C62  1  0.25455000  0.14925000  0.95925000  1
  C  C63  1  0.24920000  0.10277000  0.00903000  1
  C  C64  1  0.24696000  0.02215000  0.11351000  1
  C  C65  1  0.29265000  0.47805000  0.83828000  1
  C  C66  1  0.29775000  0.42651000  0.79526000  1
  C  C67  1  0.28628000  0.71812000  0.29029000  1
  C  C68  1  0.27894000  0.85705000  0.26011000  1
  C  C69  1  0.30377000  0.82276000  0.26900000  1
  C  C70  1  0.29935000  0.08435000  0.63081000  1
  C  C71  1  0.31174000  0.14360000  0.59187000  1
  C  C72  1  0.33816000  0.44153000  0.71462000  1
  C  C73  1  0.33779000  0.49066000  0.76274000  1
  C  C74  1  0.31275000  0.18764000  0.93974000  1
  C  C75  1  0.30229000  0.09358000  0.03905000  1
  C  C76  1  0.30290000  0.05686000  0.09277000  1
  C  C77  1  0.33655000  0.54170000  0.80880000  1
  C  C78  1  0.35850000  0.49757000  0.72342000  1
  C  C79  1  0.33033000  0.70465000  0.82408000  1
  C  C80  1  0.32951000  0.79530000  0.81376000  1
  C  C81  1  0.35649000  0.54746000  0.76958000  1
  C  C82  1  0.35130000  0.61288000  0.30048000  1
  C  C83  1  0.34520000  0.06825000  0.64874000  1
  C  C84  1  0.36927000  0.68189000  0.82948000  1
  C  C85  1  0.37200000  0.60233000  0.82500000  1
  C  C86  1  0.36497000  0.77226000  0.82047000  1
  C  C87  1  0.35623000  0.12572000  0.01564000  1
  C  C88  1  0.36617000  0.18339000  0.56717000  1
  C  C89  1  0.36389000  0.17647000  0.96774000  1
  C  C90  1  0.38094000  0.24433000  0.52990000  1
  C  C91  1  0.39920000  0.10730000  0.62432000  1
  C  C92  1  0.41504000  0.65273000  0.28407000  1
  C  C93  1  0.41136000  0.65818000  0.23297000  1
  C  C94  1  0.40662000  0.16205000  0.58029000  1
  C  C95  1  0.40111000  0.10690000  0.03782000  1
  C  C96  1  0.42295000  0.21569000  0.94863000  1
  C  C97  1  0.00074000  0.99366000  0.34416000  1
  C  C98  1  0.43594000  0.28447000  0.50614000  1
  C  C99  1  0.99369000  0.95130000  0.95408000  1
  C  C100  1  0.98613000  0.00473000  0.28620000  1
  C  C101  1  0.97776000  0.91840000  0.00703000  1
  C  C102  1  0.64444000  0.28008000  0.96474000  1
  C  C103  1  0.54218000  0.25352000  0.96576000  1
  C  C104  1  0.64561000  0.36079000  0.97148000  1
  C  C105  1  0.73619000  0.34377000  0.49916000  1
  C  C106  1  0.63773000  0.32802000  0.49495000  1
  C  C107  1  0.74682000  0.42926000  0.50792000  1
  C  C108  1  0.47491000  0.70813000  0.83653000  1
  C  C109  1  0.84027000  0.05079000  0.06531000  1
  C  C110  1  0.84829000  0.74797000  0.08206000  1
  C  C111  1  0.77959000  0.88326000  0.18835000  1
  C  C112  1  0.95499000  0.14081000  0.57875000  1
  C  C113  1  0.94373000  0.82165000  0.60060000  1
  C  C114  1  0.89071000  0.99340000  0.69995000  1
  C  C115  1  0.95725000  0.97598000  0.91063000  1
  C  C116  1  0.96748000  0.00073000  0.85943000  1
  C  C117  1  0.94931000  0.96791000  0.36656000  1
  C  C118  1  0.96546000  0.96856000  0.41914000  1
  C  C119  1  0.54527000  0.76050000  0.82788000  1
  C  C120  1  0.55961000  0.81960000  0.78782000  1
  C  C121  1  0.61842000  0.86057000  0.76847000  1
  C  C122  1  0.66279000  0.84176000  0.78813000  1
  C  C123  1  0.65437000  0.78857000  0.83424000  1
  C  C124  1  0.59458000  0.74700000  0.85309000  1
  C  C125  1  0.70551000  0.77746000  0.86068000  1
  C  C126  1  0.76367000  0.81740000  0.84066000  1
  C  C127  1  0.76878000  0.86521000  0.79166000  1
  C  C128  1  0.71671000  0.87590000  0.76386000  1
  C  C129  1  0.71697000  0.91622000  0.71116000  1
  C  C130  1  0.77244000  0.95188000  0.68947000  1
  C  C131  1  0.82724000  0.94620000  0.71897000  1
  C  C132  1  0.82442000  0.90132000  0.76934000  1
  C  C133  1  0.71602000  0.82403000  0.20657000  1
  C  C134  1  0.71791000  0.79936000  0.26126000  1
  C  C135  1  0.65767000  0.75915000  0.27849000  1
  C  C136  1  0.59505000  0.74492000  0.24083000  1
  C  C137  1  0.59152000  0.76021000  0.18645000  1
  C  C138  1  0.65224000  0.80033000  0.16952000  1
  C  C139  1  0.52772000  0.73667000  0.14953000  1
  C  C140  1  0.46779000  0.70028000  0.16566000  1
  C  C141  1  0.47118000  0.69036000  0.21821000  1
  C  C142  1  0.53537000  0.71483000  0.25594000  1
  C  C143  1  0.53903000  0.71334000  0.30606000  1
  C  C144  1  0.47893000  0.68158000  0.32008000  1
  C  C145  1  0.91043000  0.16255000  0.54048000  1
  C  C146  1  0.84116000  0.12060000  0.54233000  1
  C  C147  1  0.80676000  0.14811000  0.52787000  1
  C  C148  1  0.84245000  0.21830000  0.51273000  1
  C  C149  1  0.90698000  0.25894000  0.50065000  1
  C  C150  1  0.94081000  0.23075000  0.51467000  1
  C  C151  1  0.93841000  0.32763000  0.47729000  1
  C  C152  1  0.90825000  0.35687000  0.46877000  1
  C  C153  1  0.84853000  0.31875000  0.48652000  1
  C  C154  1  0.81611000  0.24916000  0.51023000  1
  C  C155  1  0.76326000  0.21399000  0.53559000  1
  C  C156  1  0.73904000  0.24576000  0.53303000  1
  C  C157  1  0.76747000  0.31330000  0.50598000  1
  C  C158  1  0.82273000  0.34998000  0.48323000  1
  C  C159  1  0.78918000  0.49374000  0.52041000  1
  C  C160  1  0.77881000  0.54295000  0.48346000  1
  C  C161  1  0.79736000  0.59301000  0.50004000  1
  C  C162  1  0.82571000  0.59378000  0.55442000  1
  C  C163  1  0.84514000  0.55003000  0.59010000  1
  C  C164  1  0.82563000  0.49940000  0.57309000  1
  C  C165  1  0.88413000  0.55765000  0.64210000  1
  C  C166  1  0.90530000  0.60919000  0.65851000  1
  C  C167  1  0.88416000  0.65122000  0.62433000  1
  C  C168  1  0.83980000  0.64039000  0.57356000  1
  C  C169  1  0.81032000  0.67594000  0.54370000  1
  C  C170  1  0.83628000  0.73079000  0.55857000  1
  C  C171  1  0.89108000  0.75010000  0.60329000  1
  C  C172  1  0.90914000  0.70593000  0.63921000  1
  C  C173  1  0.56757000  0.27997000  0.50389000  1
  C  C174  1  0.54243000  0.21288000  0.53056000  1
  C  C175  1  0.48648000  0.17202000  0.55325000  1
  C  C176  1  0.45623000  0.19853000  0.55089000  1
  C  C177  1  0.47406000  0.26222000  0.51665000  1
  C  C178  1  0.53030000  0.30304000  0.49377000  1
  C  C179  1  0.68153000  0.25876000  0.96499000  1
  C  C180  1  0.75041000  0.28538000  0.99334000  1
  C  C181  1  0.78293000  0.25958000  0.99922000  1
  C  C182  1  0.74717000  0.20689000  0.97595000  1
  C  C183  1  0.67737000  0.17969000  0.94773000  1
  C  C184  1  0.64604000  0.20747000  0.94073000  1
  C  C185  1  0.63806000  0.12208000  0.93009000  1
  C  C186  1  0.66515000  0.08786000  0.94402000  1
  C  C187  1  0.73345000  0.11293000  0.97296000  1
  C  C188  1  0.77676000  0.17565000  0.98488000  1
  C  C189  1  0.84793000  0.20462000  0.00602000  1
  C  C190  1  0.87207000  0.16603000  0.02523000  1
  C  C191  1  0.82596000  0.09888000  0.02284000  1
  C  C192  1  0.75827000  0.07464000  0.99233000  1
  C  C193  1  0.79272000  0.69198000  0.05652000  1
  C  C194  1  0.75584000  0.62728000  0.08849000  1
  C  C195  1  0.72804000  0.57179000  0.07346000  1
  C  C196  1  0.73813000  0.58089000  0.02648000  1
  C  C197  1  0.76369000  0.64438000  0.98983000  1
  C  C198  1  0.79155000  0.69994000  0.00529000  1
  C  C199  1  0.76306000  0.65194000  0.93896000  1
  C  C200  1  0.73867000  0.59740000  0.92469000  1
  C  C201  1  0.71924000  0.53568000  0.96229000  1
  C  C202  1  0.72225000  0.52799000  0.01453000  1
  C  C203  1  0.71475000  0.47018000  0.05427000  1
  C  C204  1  0.69537000  0.41760000  0.04059000  1
  C  C205  1  0.68436000  0.42211000  0.98755000  1
  C  C206  1  0.69829000  0.48187000  0.94871000  1
  C  C207  1  0.47245000  0.20233000  0.97558000  1
  C  C208  1  0.45926000  0.14560000  0.01824000  1
  N  N1  1  0.21766000  0.54797000  0.29689000  1
  N  N2  1  0.30431000  0.54809000  0.29821000  1
  N  N3  1  0.33251000  0.64397000  0.30481000  1
  N  N4  1  0.33549000  0.62035000  0.82301000  1
  N  N5  1  0.44160000  0.64580000  0.83315000  1
  N  N6  1  0.43896000  0.72531000  0.83625000  1
  N  N7  1  0.57593000  0.23535000  0.96370000  1
  N  N8  1  0.57691000  0.31661000  0.96839000  1
  N  N9  1  0.67951000  0.34263000  0.96954000  1
  N  N10  1  0.66682000  0.30604000  0.49158000  1
  N  N11  1  0.67765000  0.39050000  0.50129000  1
  N  N12  1  0.77655000  0.40549000  0.50789000  1
  O  O1  1  0.08257000  0.01207000  0.19588000  1
  O  O2  1  0.05105000  0.11622000  0.15802000  1
  O  O3  1  0.10339000  0.91192000  0.11837000  1
  O  O4  1  0.09869000  0.99559000  0.10609000  1
  O  O5  1  0.00654000  0.98708000  0.26833000  1
  O  O6  1  0.02237000  0.79670000  0.19728000  1
  O  O7  1  0.08289000  0.88871000  0.22776000  1
  O  O8  1  0.12574000  0.21015000  0.69648000  1
  O  O9  1  0.14770000  0.02359000  0.74844000  1
  O  O10  1  0.17910000  0.15806000  0.73858000  1
  O  O11  1  0.07718000  0.96274000  0.63330000  1
  O  O12  1  0.07775000  0.84373000  0.67934000  1
  O  O13  1  0.10685000  0.89394000  0.73872000  1
  O  O14  1  0.10393000  0.99206000  0.54004000  1
  O  O15  1  0.06618000  0.03297000  0.64944000  1
  O  O16  1  0.03928000  0.00781000  0.77876000  1
  O  O17  1  0.04606000  0.09530000  0.77543000  1
  O  O18  1  0.04023000  0.08219000  0.67572000  1
  O  O19  1  0.19835000  0.97254000  0.64486000  1
  O  O20  1  0.21811000  0.04890000  0.67178000  1
  O  O21  1  0.00816000  0.98606000  0.52392000  1
  O  O22  1  0.00750000  0.17652000  0.61284000  1
  O  O23  1  0.99069000  0.85557000  0.57446000  1
  O  O24  1  0.97780000  0.87957000  0.13041000  1
  O  O25  1  0.96719000  0.12436000  0.14586000  1
  O  O26  1  0.96993000  0.86091000  0.03313000  1
  O  O27  1  0.92440000  0.99079000  0.16478000  1
  O  O28  1  0.84943000  0.91250000  0.06074000  1
  O  O29  1  0.94677000  0.92580000  0.15491000  1
  O  O30  1  0.82179000  0.02429000  0.10994000  1
  O  O31  1  0.87615000  0.03821000  0.06119000  1
  O  O32  1  0.96712000  0.04470000  0.25411000  1
  O  O33  1  0.90067000  0.74699000  0.11661000  1
  O  O34  1  0.83749000  0.78804000  0.08019000  1
  O  O35  1  0.82405000  0.93074000  0.21477000  1
  O  O36  1  0.78349000  0.89365000  0.14058000  1
  O  O37  1  0.96275000  0.94198000  0.02406000  1
  O  O38  1  0.93135000  0.96399000  0.59528000  1
  O  O39  1  0.94676000  0.09113000  0.57437000  1
  O  O40  1  0.94503000  0.85180000  0.62440000  1
  O  O41  1  0.91783000  0.05771000  0.68476000  1
  O  O42  1  0.91241000  0.97061000  0.68961000  1
