# generated using pymatgen
data_Zn7H88C98(N9O10)2
_symmetry_space_group_name_H-M   'P 1'
_cell_length_a   24.35693000
_cell_length_b   22.90654000
_cell_length_c   35.71939000
_cell_angle_alpha   104.03834000
_cell_angle_beta   115.94397000
_cell_angle_gamma   111.51905000
_symmetry_Int_Tables_number   1
_chemical_formula_structural   Zn7H88C98(N9O10)2
_chemical_formula_sum   'Zn14 H176 C196 N36 O40'
_cell_volume   14608.88687691
_cell_formula_units_Z   2
loop_
 _symmetry_equiv_pos_site_id
 _symmetry_equiv_pos_as_xyz
  1  'x, y, z'
loop_
 _atom_site_type_symbol
 _atom_site_label
 _atom_site_symmetry_multiplicity
 _atom_site_fract_x
 _atom_site_fract_y
 _atom_site_fract_z
 _atom_site_occupancy
  Zn  Zn1  1  0.12053000  0.14096000  0.98174000  1
  Zn  Zn2  1  0.00387000  0.06626000  0.87523000  1
  Zn  Zn3  1  0.96516000  0.98949000  0.92564000  1
  Zn  Zn4  1  0.96939000  0.90757000  0.84575000  1
  Zn  Zn5  1  0.18931000  0.15989000  0.50188000  1
  Zn  Zn6  1  0.06661000  0.09080000  0.39944000  1
  Zn  Zn7  1  0.03807000  0.01215000  0.45146000  1
  Zn  Zn8  1  0.04967000  0.94136000  0.37168000  1
  Zn  Zn9  1  0.81318000  0.85332000  0.89087000  1
  Zn  Zn10  1  0.94767000  0.91809000  0.98274000  1
  Zn  Zn11  1  0.93484000  0.03788000  0.00102000  1
  Zn  Zn12  1  0.89033000  0.87269000  0.41618000  1
  Zn  Zn13  1  0.02531000  0.93881000  0.50865000  1
  Zn  Zn14  1  0.00339000  0.05367000  0.52527000  1
  H  H1  1  0.43214000  0.13901000  0.90456000  1
  H  H2  1  0.48329000  0.25763000  0.41675000  1
  H  H3  1  0.34673000  0.54587000  0.03454000  1
  H  H4  1  0.41638000  0.67296000  0.05615000  1
  H  H5  1  0.26509000  0.62331000  0.91330000  1
  H  H6  1  0.19923000  0.49542000  0.89059000  1
  H  H7  1  0.51570000  0.85364000  0.06191000  1
  H  H8  1  0.37580000  0.67483000  0.92035000  1
  H  H9  1  0.28860000  0.84278000  0.05302000  1
  H  H10  1  0.36139000  0.78842000  0.06288000  1
  H  H11  1  0.31159000  0.74643000  0.92398000  1
  H  H12  1  0.23675000  0.79822000  0.91348000  1
  H  H13  1  0.36599000  0.57095000  0.55781000  1
  H  H14  1  0.43642000  0.69969000  0.58296000  1
  H  H15  1  0.39243000  0.64670000  0.44450000  1
  H  H16  1  0.32203000  0.51788000  0.41940000  1
  H  H17  1  0.46233000  0.80934000  0.46959000  1
  H  H18  1  0.58133000  0.75553000  0.57099000  1
  H  H19  1  0.42357000  0.93201000  0.58909000  1
  H  H20  1  0.49573000  0.87701000  0.59732000  1
  H  H21  1  0.33390000  0.71492000  0.45036000  1
  H  H22  1  0.26180000  0.76939000  0.44233000  1
  H  H23  1  0.04362000  0.04312000  0.01377000  1
  H  H24  1  0.11593000  0.06669000  0.53997000  1
  H  H25  1  0.03252000  0.13530000  0.15242000  1
  H  H26  1  0.32553000  0.33052000  0.49277000  1
  H  H27  1  0.19331000  0.44559000  0.43420000  1
  H  H28  1  0.49165000  0.47221000  0.49977000  1
  H  H29  1  0.40798000  0.45076000  0.44988000  1
  H  H30  1  0.41222000  0.38294000  0.46686000  1
  H  H31  1  0.08386000  0.32698000  0.35244000  1
  H  H32  1  0.08697000  0.24776000  0.34870000  1
  H  H33  1  0.43654000  0.45518000  0.54150000  1
  H  H34  1  0.08975000  0.34437000  0.42423000  1
  H  H35  1  0.49907000  0.69479000  0.35344000  1
  H  H36  1  0.20898000  0.79963000  0.50372000  1
  H  H37  1  0.28567000  0.02476000  0.49327000  1
  H  H38  1  0.06064000  0.77482000  0.40180000  1
  H  H39  1  0.00184000  0.73959000  0.41873000  1
  H  H40  1  0.07474000  0.72481000  0.43360000  1
  H  H41  1  0.36705000  0.92159000  0.45869000  1
  H  H42  1  0.44229000  0.01208000  0.48803000  1
  H  H43  1  0.35094000  0.99167000  0.45399000  1
  H  H44  1  0.10947000  0.81822000  0.50264000  1
  H  H45  1  0.41073000  0.04868000  0.54022000  1
  H  H46  1  0.31933000  0.42605000  0.96996000  1
  H  H47  1  0.05919000  0.30234000  0.90927000  1
  H  H48  1  0.35560000  0.38646000  0.03487000  1
  H  H49  1  0.34082000  0.30028000  0.02751000  1
  H  H50  1  0.27981000  0.32305000  0.03173000  1
  H  H51  1  0.08182000  0.42122000  0.96791000  1
  H  H52  1  0.08724000  0.49604000  0.95799000  1
  H  H53  1  0.16962000  0.50244000  0.99706000  1
  H  H54  1  0.29986000  0.30400000  0.95360000  1
  H  H55  1  0.06252000  0.40292000  0.89199000  1
  H  H56  1  0.12375000  0.75452000  0.96016000  1
  H  H57  1  0.20026000  0.99574000  0.97309000  1
  H  H58  1  0.05962000  0.76828000  0.00069000  1
  H  H59  1  0.96850000  0.74842000  0.97150000  1
  H  H60  1  0.04352000  0.84045000  0.00677000  1
  H  H61  1  0.27337000  0.92025000  0.92334000  1
  H  H62  1  0.35981000  0.00350000  0.96480000  1
  H  H63  1  0.27784000  0.00379000  0.94308000  1
  H  H64  1  0.99716000  0.73068000  0.91524000  1
  H  H65  1  0.32853000  0.01797000  0.02176000  1
  H  H66  1  0.39272000  0.27125000  0.52582000  1
  H  H67  1  0.41017000  0.10290000  0.42080000  1
  H  H68  1  0.52610000  0.33745000  0.59934000  1
  H  H69  1  0.58000000  0.30796000  0.58837000  1
  H  H70  1  0.22210000  0.07596000  0.35845000  1
  H  H71  1  0.19248000  0.98291000  0.33170000  1
  H  H72  1  0.27582000  0.04994000  0.34496000  1
  H  H73  1  0.50085000  0.36595000  0.53497000  1
  H  H74  1  0.24540000  0.02235000  0.41381000  1
  H  H75  1  0.34153000  0.15742000  0.02756000  1
  H  H76  1  0.33363000  0.17488000  0.88971000  1
  H  H77  1  0.44141000  0.12042000  0.04632000  1
  H  H78  1  0.53715000  0.18063000  0.07559000  1
  H  H79  1  0.47790000  0.13105000  0.01180000  1
  H  H80  1  0.25790000  0.22907000  0.87557000  1
  H  H81  1  0.16257000  0.16926000  0.82921000  1
  H  H82  1  0.22376000  0.14561000  0.82689000  1
  H  H83  1  0.47543000  0.24373000  0.07370000  1
  H  H84  1  0.17358000  0.14406000  0.88789000  1
  H  H85  1  0.47166000  0.72331000  0.90851000  1
  H  H86  1  0.10578000  0.14949000  0.67991000  1
  H  H87  1  0.54203000  0.19539000  0.90728000  1
  H  H88  1  0.52035000  0.33425000  0.02446000  1
  H  H89  1  0.59520000  0.31228000  0.42125000  1
  H  H90  1  0.58967000  0.22031000  0.53265000  1
  H  H91  1  0.60456000  0.69672000  0.40996000  1
  H  H92  1  0.55978000  0.85260000  0.45867000  1
  H  H93  1  0.60844000  0.40044000  0.60908000  1
  H  H94  1  0.01046000  0.24997000  0.34226000  1
  H  H95  1  0.97225000  0.86859000  0.72724000  1
  H  H96  1  0.53564000  0.97700000  0.93967000  1
  H  H97  1  0.53607000  0.88316000  0.89107000  1
  H  H98  1  0.55026000  0.79071000  0.38759000  1
  H  H99  1  0.57979000  0.74767000  0.35787000  1
  H  H100  1  0.62598000  0.00552000  0.95592000  1
  H  H101  1  0.94010000  0.36894000  0.98462000  1
  H  H102  1  0.94068000  0.29622000  0.99501000  1
  H  H103  1  0.84155000  0.54822000  0.01613000  1
  H  H104  1  0.80071000  0.44292000  0.02779000  1
  H  H105  1  0.57981000  0.35561000  0.91301000  1
  H  H106  1  0.61969000  0.46500000  0.90533000  1
  H  H107  1  0.63460000  0.38819000  0.03119000  1
  H  H108  1  0.75999000  0.18669000  0.97840000  1
  H  H109  1  0.72496000  0.26082000  0.01275000  1
  H  H110  1  0.63571000  0.28426000  0.88734000  1
  H  H111  1  0.67449000  0.21351000  0.85428000  1
  H  H112  1  0.85348000  0.58669000  0.55699000  1
  H  H113  1  0.80733000  0.47425000  0.56083000  1
  H  H114  1  0.68729000  0.35344000  0.40878000  1
  H  H115  1  0.73134000  0.46541000  0.40488000  1
  H  H116  1  0.70328000  0.27827000  0.53884000  1
  H  H117  1  0.89462000  0.28360000  0.50430000  1
  H  H118  1  0.85482000  0.35440000  0.53582000  1
  H  H119  1  0.64826000  0.23406000  0.39911000  1
  H  H120  1  0.69066000  0.16817000  0.36612000  1
  H  H121  1  0.61131000  0.90270000  0.04958000  1
  H  H122  1  0.67609000  0.79373000  0.55687000  1
  H  H123  1  0.88839000  0.94875000  0.83908000  1
  H  H124  1  0.95919000  0.96792000  0.36457000  1
  H  H125  1  0.03554000  0.90111000  0.24850000  1
  H  H126  1  0.76122000  0.94140000  0.56665000  1
  H  H127  1  0.71040000  0.79178000  0.41483000  1
  H  H128  1  0.86391000  0.06151000  0.53445000  1
  H  H129  1  0.93593000  0.10535000  0.59648000  1
  H  H130  1  0.84316000  0.06442000  0.57772000  1
  H  H131  1  0.89302000  0.99164000  0.59554000  1
  H  H132  1  0.66488000  0.92676000  0.91848000  1
  H  H133  1  0.66123000  0.80090000  0.01363000  1
  H  H134  1  0.59822000  0.97865000  0.99179000  1
  H  H135  1  0.85010000  0.93936000  0.06639000  1
  H  H136  1  0.86961000  0.87219000  0.07192000  1
  H  H137  1  0.79934000  0.87264000  0.07690000  1
  H  H138  1  0.74811000  0.78118000  0.99972000  1
  H  H139  1  0.71567000  0.07589000  0.38461000  1
  H  H140  1  0.97410000  0.18463000  0.44325000  1
  H  H141  1  0.78201000  0.99274000  0.44945000  1
  H  H142  1  0.70250000  0.90817000  0.39846000  1
  H  H143  1  0.69803000  0.98617000  0.41194000  1
  H  H144  1  0.94751000  0.24521000  0.38402000  1
  H  H145  1  0.95654000  0.33073000  0.40232000  1
  H  H146  1  0.86736000  0.25000000  0.36406000  1
  H  H147  1  0.77987000  0.95451000  0.37620000  1
  H  H148  1  0.98243000  0.30049000  0.46527000  1
  H  H149  1  0.93952000  0.68213000  0.44912000  1
  H  H150  1  0.77835000  0.64303000  0.50270000  1
  H  H151  1  0.01010000  0.63534000  0.50407000  1
  H  H152  1  0.97911000  0.54272000  0.48777000  1
  H  H153  1  0.96532000  0.59044000  0.52724000  1
  H  H154  1  0.87240000  0.78316000  0.57275000  1
  H  H155  1  0.86927000  0.85671000  0.56464000  1
  H  H156  1  0.93668000  0.84120000  0.56518000  1
  H  H157  1  0.89655000  0.55342000  0.42479000  1
  H  H158  1  0.77542000  0.74528000  0.49185000  1
  H  H159  1  0.91132000  0.18162000  0.92801000  1
  H  H160  1  0.64807000  0.05446000  0.85895000  1
  H  H161  1  0.87024000  0.31277000  0.98818000  1
  H  H162  1  0.65982000  0.95685000  0.78214000  1
  H  H163  1  0.64915000  0.87766000  0.78699000  1
  H  H164  1  0.73849000  0.95068000  0.81166000  1
  H  H165  1  0.82647000  0.28258000  0.90626000  1
  H  H166  1  0.71624000  0.94635000  0.87196000  1
  H  H167  1  0.71833000  0.51813000  0.88232000  1
  H  H168  1  0.84717000  0.76062000  0.01553000  1
  H  H169  1  0.86637000  0.65813000  0.88519000  1
  H  H170  1  0.80109000  0.60862000  0.82178000  1
  H  H171  1  0.80446000  0.56164000  0.85577000  1
  H  H172  1  0.90499000  0.67399000  0.06939000  1
  H  H173  1  0.87526000  0.68855000  0.10680000  1
  H  H174  1  0.90140000  0.75294000  0.08756000  1
  H  H175  1  0.70439000  0.57979000  0.83202000  1
  H  H176  1  0.77271000  0.68093000  0.04052000  1
  C  C1  1  0.46921000  0.23229000  0.96483000  1
  C  C2  1  0.47596000  0.19363000  0.93192000  1
  C  C3  1  0.52941000  0.23651000  0.47496000  1
  C  C4  1  0.53113000  0.26169000  0.44321000  1
  C  C5  1  0.26789000  0.51176000  0.96110000  1
  C  C6  1  0.32959000  0.56234000  0.00774000  1
  C  C7  1  0.36905000  0.63436000  0.02003000  1
  C  C8  1  0.34660000  0.65708000  0.98626000  1
  C  C9  1  0.28413000  0.60656000  0.93959000  1
  C  C10  1  0.24608000  0.53407000  0.92686000  1
  C  C11  1  0.50592000  0.82506000  0.02842000  1
  C  C12  1  0.43956000  0.76008000  0.99259000  1
  C  C13  1  0.42716000  0.72387000  0.94894000  1
  C  C14  1  0.25878000  0.82532000  0.98292000  1
  C  C15  1  0.29387000  0.82212000  0.02493000  1
  C  C16  1  0.33475000  0.79106000  0.03043000  1
  C  C17  1  0.34139000  0.76341000  0.99419000  1
  C  C18  1  0.30698000  0.76753000  0.95228000  1
  C  C19  1  0.26520000  0.79762000  0.94653000  1
  C  C20  1  0.33906000  0.53566000  0.48687000  1
  C  C21  1  0.37153000  0.58732000  0.53299000  1
  C  C22  1  0.41148000  0.66021000  0.54727000  1
  C  C23  1  0.41931000  0.68231000  0.51565000  1
  C  C24  1  0.38673000  0.63045000  0.46930000  1
  C  C25  1  0.34669000  0.55743000  0.45502000  1
  C  C26  1  0.50914000  0.80680000  0.48944000  1
  C  C27  1  0.51507000  0.77985000  0.52169000  1
  C  C28  1  0.57593000  0.77581000  0.54600000  1
  C  C29  1  0.33751000  0.85421000  0.51522000  1
  C  C30  1  0.40385000  0.88456000  0.55882000  1
  C  C31  1  0.44481000  0.85352000  0.56347000  1
  C  C32  1  0.41962000  0.79158000  0.52478000  1
  C  C33  1  0.35322000  0.76145000  0.48094000  1
  C  C34  1  0.31254000  0.79270000  0.47628000  1
  C  C35  1  0.20877000  0.11625000  0.95728000  1
  C  C36  1  0.11767000  0.22636000  0.93252000  1
  C  C37  1  0.99768000  0.98268000  0.79412000  1
  C  C38  1  0.05580000  0.91049000  0.92918000  1
  C  C39  1  0.26915000  0.14180000  0.46714000  1
  C  C40  1  0.18340000  0.24979000  0.45493000  1
  C  C41  1  0.05071000  0.01033000  0.31253000  1
  C  C42  1  0.14263000  0.94745000  0.45543000  1
  C  C43  1  0.03225000  0.97741000  0.68794000  1
  C  C44  1  0.00815000  0.98061000  0.75650000  1
  C  C45  1  0.04149000  0.04983000  0.21618000  1
  C  C46  1  0.04578000  0.00373000  0.26907000  1
  C  C47  1  0.03232000  0.09384000  0.16193000  1
  C  C48  1  0.29809000  0.45869000  0.47235000  1
  C  C49  1  0.33525000  0.42530000  0.48768000  1
  C  C50  1  0.29651000  0.35533000  0.47970000  1
  C  C51  1  0.22095000  0.31814000  0.45609000  1
  C  C52  1  0.18317000  0.34976000  0.43800000  1
  C  C53  1  0.22210000  0.42024000  0.44654000  1
  C  C54  1  0.43168000  0.44069000  0.48029000  1
  C  C55  1  0.07027000  0.28279000  0.36132000  1
  C  C56  1  0.19810000  0.93380000  0.48227000  1
  C  C57  1  0.17718000  0.87118000  0.48661000  1
  C  C58  1  0.22567000  0.84855000  0.50123000  1
  C  C59  1  0.29389000  0.88671000  0.51004000  1
  C  C60  1  0.31680000  0.95210000  0.50900000  1
  C  C61  1  0.26890000  0.97570000  0.49558000  1
  C  C62  1  0.05875000  0.76388000  0.43003000  1
  C  C63  1  0.38656000  0.97879000  0.47792000  1
  C  C64  1  0.15342000  0.29517000  0.93389000  1
  C  C65  1  0.22752000  0.33080000  0.95193000  1
  C  C66  1  0.26275000  0.39945000  0.95709000  1
  C  C67  1  0.22649000  0.43532000  0.94825000  1
  C  C68  1  0.15252000  0.40000000  0.93083000  1
  C  C69  1  0.11593000  0.32930000  0.92249000  1
  C  C70  1  0.31321000  0.32888000  0.01779000  1
  C  C71  1  0.11355000  0.46538000  0.96384000  1
  C  C72  1  0.11180000  0.89609000  0.95369000  1
  C  C73  1  0.09135000  0.82921000  0.95237000  1
  C  C74  1  0.14036000  0.80700000  0.96269000  1
  C  C75  1  0.20998000  0.85164000  0.97531000  1
  C  C76  1  0.23221000  0.92052000  0.97983000  1
  C  C77  1  0.18345000  0.94313000  0.97021000  1
  C  C78  1  0.02363000  0.78552000  0.98209000  1
  C  C79  1  0.30327000  0.97389000  0.95407000  1
  C  C80  1  0.46487000  0.21065000  0.47534000  1
  C  C81  1  0.46021000  0.25816000  0.50532000  1
  C  C82  1  0.39632000  0.23426000  0.50292000  1
  C  C83  1  0.33642000  0.16375000  0.47013000  1
  C  C84  1  0.34109000  0.11601000  0.43967000  1
  C  C85  1  0.40617000  0.13953000  0.44362000  1
  C  C86  1  0.56033000  0.34461000  0.58596000  1
  C  C87  1  0.24070000  0.03834000  0.35758000  1
  C  C88  1  0.40182000  0.19905000  0.96195000  1
  C  C89  1  0.40409000  0.19308000  0.00082000  1
  C  C90  1  0.33993000  0.16363000  0.99803000  1
  C  C91  1  0.27409000  0.14322000  0.95772000  1
  C  C92  1  0.27212000  0.15222000  0.91925000  1
  C  C93  1  0.33537000  0.17456000  0.92044000  1
  C  C94  1  0.48212000  0.15900000  0.04404000  1
  C  C95  1  0.21341000  0.17165000  0.85135000  1
  C  C96  1  0.48127000  0.75195000  0.94195000  1
  C  C97  1  0.99773000  0.01731000  0.08243000  1
  C  C98  1  0.06056000  0.03091000  0.60523000  1
  C  C99  1  0.04784000  0.04097000  0.71984000  1
  C  C100  1  0.06626000  0.03648000  0.64881000  1
  C  C101  1  0.01977000  0.03144000  0.13082000  1
  C  C102  1  0.03170000  0.98871000  0.18607000  1
  C  C103  1  0.08527000  0.10089000  0.68232000  1
  C  C104  1  0.52589000  0.30329000  0.99969000  1
  C  C105  1  0.53901000  0.22542000  0.93398000  1
  C  C106  1  0.59101000  0.24068000  0.50848000  1
  C  C107  1  0.59507000  0.29376000  0.44627000  1
  C  C108  1  0.56403000  0.83038000  0.48259000  1
  C  C109  1  0.55478000  0.74369000  0.37751000  1
  C  C110  1  0.62985000  0.79788000  0.53822000  1
  C  C111  1  0.03746000  0.94323000  0.23938000  1
  C  C112  1  0.55989000  0.85299000  0.02135000  1
  C  C113  1  0.99348000  0.91724000  0.72500000  1
  C  C114  1  0.73323000  0.51496000  0.96101000  1
  C  C115  1  0.78411000  0.50780000  0.99502000  1
  C  C116  1  0.76108000  0.44784000  0.00129000  1
  C  C117  1  0.68748000  0.39262000  0.97203000  1
  C  C118  1  0.63655000  0.39876000  0.93688000  1
  C  C119  1  0.65930000  0.46026000  0.93203000  1
  C  C120  1  0.59755000  0.29575000  0.97042000  1
  C  C121  1  0.59022000  0.33420000  0.00311000  1
  C  C122  1  0.72194000  0.19742000  0.91485000  1
  C  C123  1  0.73352000  0.20862000  0.95872000  1
  C  C124  1  0.71363000  0.25038000  0.97812000  1
  C  C125  1  0.68067000  0.28012000  0.95349000  1
  C  C126  1  0.66457000  0.26480000  0.90790000  1
  C  C127  1  0.68564000  0.22392000  0.88887000  1
  C  C128  1  0.79638000  0.53352000  0.48074000  1
  C  C129  1  0.81629000  0.53579000  0.52455000  1
  C  C130  1  0.79017000  0.47223000  0.52675000  1
  C  C131  1  0.74466000  0.40600000  0.48533000  1
  C  C132  1  0.72277000  0.40398000  0.44117000  1
  C  C133  1  0.74787000  0.46750000  0.43895000  1
  C  C134  1  0.65835000  0.30172000  0.48175000  1
  C  C135  1  0.65523000  0.27332000  0.51192000  1
  C  C136  1  0.79593000  0.22169000  0.43274000  1
  C  C137  1  0.84181000  0.27435000  0.48075000  1
  C  C138  1  0.81880000  0.31350000  0.49889000  1
  C  C139  1  0.74911000  0.29933000  0.46984000  1
  C  C140  1  0.70254000  0.24598000  0.42188000  1
  C  C141  1  0.72657000  0.20860000  0.40320000  1
  C  C142  1  0.54798000  0.81628000  0.97825000  1
  C  C143  1  0.62411000  0.82517000  0.50648000  1
  C  C144  1  0.83509000  0.76452000  0.93816000  1
  C  C145  1  0.77212000  0.90149000  0.94797000  1
  C  C146  1  0.85510000  0.05212000  0.92357000  1
  C  C147  1  0.91431000  0.78702000  0.46564000  1
  C  C148  1  0.84496000  0.91225000  0.47221000  1
  C  C149  1  0.91759000  0.06201000  0.44651000  1
  C  C150  1  0.78955000  0.88948000  0.48205000  1
  C  C151  1  0.80436000  0.93112000  0.52563000  1
  C  C152  1  0.74965000  0.90975000  0.53309000  1
  C  C153  1  0.68063000  0.84736000  0.49771000  1
  C  C154  1  0.66637000  0.80497000  0.45476000  1
  C  C155  1  0.72111000  0.82575000  0.44741000  1
  C  C156  1  0.87938000  0.05923000  0.56803000  1
  C  C157  1  0.60753000  0.84206000  0.97264000  1
  C  C158  1  0.60897000  0.87848000  0.94617000  1
  C  C159  1  0.66444000  0.89965000  0.93944000  1
  C  C160  1  0.71881000  0.88550000  0.95942000  1
  C  C161  1  0.71844000  0.85095000  0.98717000  1
  C  C162  1  0.66248000  0.82908000  0.99333000  1
  C  C163  1  0.58027000  0.96771000  0.95501000  1
  C  C164  1  0.82543000  0.88239000  0.05825000  1
  C  C165  1  0.87781000  0.09120000  0.42245000  1
  C  C166  1  0.80251000  0.05817000  0.40134000  1
  C  C167  1  0.77226000  0.09985000  0.39782000  1
  C  C168  1  0.81659000  0.17363000  0.41564000  1
  C  C169  1  0.88694000  0.20214000  0.42665000  1
  C  C170  1  0.91766000  0.16076000  0.43049000  1
  C  C171  1  0.73392000  0.96692000  0.41236000  1
  C  C172  1  0.92455000  0.27461000  0.39428000  1
  C  C173  1  0.82928000  0.59993000  0.47884000  1
  C  C174  1  0.87619000  0.61167000  0.46461000  1
  C  C175  1  0.90403000  0.67341000  0.46050000  1
  C  C176  1  0.88627000  0.72374000  0.47114000  1
  C  C177  1  0.84242000  0.71386000  0.48767000  1
  C  C178  1  0.81327000  0.65138000  0.49083000  1
  C  C179  1  0.96644000  0.58403000  0.49576000  1
  C  C180  1  0.87966000  0.81447000  0.55400000  1
  C  C181  1  0.74750000  0.15726000  0.89632000  1
  C  C182  1  0.82043000  0.19245000  0.91135000  1
  C  C183  1  0.85379000  0.15380000  0.91279000  1
  C  C184  1  0.81506000  0.08113000  0.89958000  1
  C  C185  1  0.73873000  0.04376000  0.87467000  1
  C  C186  1  0.70548000  0.08233000  0.87385000  1
  C  C187  1  0.90486000  0.31314000  0.97577000  1
  C  C188  1  0.68545000  0.93688000  0.80555000  1
  C  C189  1  0.80688000  0.70007000  0.94293000  1
  C  C190  1  0.76995000  0.63130000  0.90501000  1
  C  C191  1  0.74589000  0.57100000  0.91127000  1
  C  C192  1  0.75768000  0.57882000  0.95481000  1
  C  C193  1  0.79339000  0.64750000  0.99239000  1
  C  C194  1  0.81878000  0.70775000  0.98641000  1
  C  C195  1  0.81026000  0.61211000  0.85576000  1
  C  C196  1  0.87417000  0.69489000  0.07670000  1
  N  N1  1  0.38473000  0.73262000  0.00092000  1
  N  N2  1  0.46070000  0.75798000  0.53117000  1
  N  N3  1  0.04171000  0.97637000  0.65309000  1
  N  N4  1  0.03465000  0.04111000  0.75303000  1
  N  N5  1  0.04789000  0.05594000  0.25685000  1
  N  N6  1  0.04255000  0.10153000  0.20382000  1
  N  N7  1  0.41289000  0.46334000  0.51241000  1
  N  N8  1  0.10538000  0.31120000  0.41248000  1
  N  N9  1  0.10590000  0.82995000  0.47542000  1
  N  N10  1  0.38844000  0.99397000  0.52083000  1
  N  N11  1  0.26748000  0.29771000  0.96603000  1
  N  N12  1  0.11534000  0.43701000  0.92330000  1
  N  N13  1  0.02006000  0.78325000  0.93974000  1
  N  N14  1  0.30445000  0.96751000  0.99419000  1
  N  N15  1  0.51981000  0.33176000  0.53707000  1
  N  N16  1  0.28013000  0.04373000  0.40441000  1
  N  N17  1  0.47220000  0.21806000  0.04355000  1
  N  N18  1  0.20443000  0.13312000  0.87774000  1
  N  N19  1  0.07517000  0.10166000  0.71692000  1
  N  N20  1  0.02108000  0.98070000  0.14405000  1
  N  N21  1  0.59712000  0.73867000  0.41950000  1
  N  N22  1  0.03023000  0.93680000  0.19835000  1
  N  N23  1  0.00536000  0.91680000  0.69111000  1
  N  N24  1  0.66603000  0.32797000  0.97597000  1
  N  N25  1  0.72722000  0.34145000  0.48923000  1
  N  N26  1  0.87627000  0.99269000  0.56339000  1
  N  N27  1  0.55353000  0.89342000  0.92576000  1
  N  N28  1  0.77282000  0.83456000  0.00695000  1
  N  N29  1  0.75601000  0.98215000  0.38204000  1
  N  N30  1  0.92829000  0.27437000  0.43623000  1
  N  N31  1  0.89578000  0.56073000  0.45461000  1
  N  N32  1  0.82912000  0.76842000  0.50244000  1
  N  N33  1  0.86052000  0.26696000  0.92437000  1
  N  N34  1  0.69465000  0.96682000  0.85052000  1
  N  N35  1  0.75728000  0.62279000  0.86015000  1
  N  N36  1  0.79850000  0.65529000  0.03525000  1
  O  O1  1  0.01569000  0.94820000  0.81692000  1
  O  O2  1  0.97947000  0.02617000  0.80870000  1
  O  O3  1  0.00431000  0.86723000  0.88374000  1
  O  O4  1  0.21090000  0.15306000  0.99290000  1
  O  O5  1  0.14693000  0.05857000  0.91977000  1
  O  O6  1  0.02272000  0.08544000  0.93977000  1
  O  O7  1  0.06471000  0.97252000  0.95006000  1
  O  O8  1  0.07408000  0.16604000  0.89155000  1
  O  O9  1  0.13337000  0.22605000  0.97271000  1
  O  O10  1  0.99080000  0.01175000  0.98822000  1
  O  O11  1  0.07884000  0.98024000  0.33525000  1
  O  O12  1  0.03356000  0.05196000  0.33073000  1
  O  O13  1  0.09628000  0.90651000  0.40927000  1
  O  O14  1  0.27280000  0.16187000  0.50628000  1
  O  O15  1  0.20778000  0.11467000  0.42627000  1
  O  O16  1  0.09102000  0.10913000  0.46523000  1
  O  O17  1  0.14347000  0.00387000  0.47690000  1
  O  O18  1  0.12789000  0.19172000  0.41352000  1
  O  O19  1  0.20732000  0.24785000  0.49534000  1
  O  O20  1  0.06343000  0.03311000  0.51410000  1
  O  O21  1  0.98877000  0.95947000  0.05427000  1
  O  O22  1  0.98405000  0.06072000  0.06725000  1
  O  O23  1  0.05718000  0.97604000  0.57863000  1
  O  O24  1  0.05276000  0.07730000  0.59133000  1
  O  O25  1  0.94059000  0.96915000  0.86263000  1
  O  O26  1  0.01218000  0.99271000  0.38847000  1
  O  O27  1  0.86417000  0.00680000  0.90006000  1
  O  O28  1  0.90165000  0.81983000  0.97290000  1
  O  O29  1  0.79325000  0.76621000  0.89988000  1
  O  O30  1  0.74876000  0.86980000  0.90353000  1
  O  O31  1  0.84112000  0.93153000  0.98192000  1
  O  O32  1  0.90798000  0.89358000  0.91308000  1
  O  O33  1  0.87667000  0.06761000  0.96730000  1
  O  O34  1  0.93178000  0.02127000  0.42425000  1
  O  O35  1  0.98299000  0.83974000  0.49766000  1
  O  O36  1  0.87248000  0.78675000  0.42643000  1
  O  O37  1  0.82436000  0.88700000  0.42810000  1
  O  O38  1  0.91402000  0.94447000  0.50674000  1
  O  O39  1  0.98573000  0.91543000  0.43915000  1
  O  O40  1  0.94029000  0.07848000  0.49051000  1
