# generated using pymatgen
data_Co6H26C68Br2(N2O7)3
_symmetry_space_group_name_H-M   'P 1'
_cell_length_a   25.02780000
_cell_length_b   26.25742000
_cell_length_c   30.95554000
_cell_angle_alpha   61.02169000
_cell_angle_beta   118.59897000
_cell_angle_gamma   133.20449000
_symmetry_Int_Tables_number   1
_chemical_formula_structural   Co6H26C68Br2(N2O7)3
_chemical_formula_sum   'Co12 H52 C136 Br4 N12 O42'
_cell_volume   12622.40552714
_cell_formula_units_Z   2
loop_
 _symmetry_equiv_pos_site_id
 _symmetry_equiv_pos_as_xyz
  1  'x, y, z'
loop_
 _atom_site_type_symbol
 _atom_site_label
 _atom_site_symmetry_multiplicity
 _atom_site_fract_x
 _atom_site_fract_y
 _atom_site_fract_z
 _atom_site_occupancy
  Co  Co1  1  0.08457000  0.96476000  0.16189000  1
  Co  Co2  1  0.89384000  0.97423000  0.11334000  1
  Co  Co3  1  0.03275000  0.02682000  0.19504000  1
  Co  Co4  1  0.95282000  0.92638000  0.07398000  1
  Co  Co5  1  0.06238000  0.89150000  0.08818000  1
  Co  Co6  1  0.90695000  0.03728000  0.18909000  1
  Co  Co7  1  0.11659000  0.98416000  0.66619000  1
  Co  Co8  1  0.91596000  0.98229000  0.61445000  1
  Co  Co9  1  0.04801000  0.02711000  0.70188000  1
  Co  Co10  1  0.98112000  0.93067000  0.58380000  1
  Co  Co11  1  0.11196000  0.92187000  0.59576000  1
  Co  Co12  1  0.92041000  0.04204000  0.68732000  1
  H  H1  1  0.95554000  0.02369000  0.89998000  1
  H  H2  1  0.03162000  0.91028000  0.87358000  1
  H  H3  1  0.11454000  0.07626000  0.34958000  1
  H  H4  1  0.90089000  0.86636000  0.43243000  1
  H  H5  1  0.12941000  0.38762000  0.63346000  1
  H  H6  1  0.16331000  0.49766000  0.63935000  1
  H  H7  1  0.25015000  0.44641000  0.80056000  1
  H  H8  1  0.21660000  0.33664000  0.79460000  1
  H  H9  1  0.62645000  0.75802000  0.76099000  1
  H  H10  1  0.74602000  0.81808000  0.74212000  1
  H  H11  1  0.65279000  0.87228000  0.58263000  1
  H  H12  1  0.53331000  0.81222000  0.60152000  1
  H  H13  1  0.08528000  0.66642000  0.72150000  1
  H  H14  1  0.05279000  0.74089000  0.71435000  1
  H  H15  1  0.28559000  0.89726000  0.77387000  1
  H  H16  1  0.31772000  0.82141000  0.78347000  1
  H  H17  1  0.13957000  0.40075000  0.13834000  1
  H  H18  1  0.10153000  0.29757000  0.11915000  1
  H  H19  1  0.12848000  0.19407000  0.27877000  1
  H  H20  1  0.16795000  0.29816000  0.29803000  1
  H  H21  1  0.55159000  0.84850000  0.13039000  1
  H  H22  1  0.66975000  0.90472000  0.11150000  1
  H  H23  1  0.71296000  0.76530000  0.24861000  1
  H  H24  1  0.59545000  0.70978000  0.26776000  1
  H  H25  1  0.29597000  0.81945000  0.27638000  1
  H  H26  1  0.34709000  0.76592000  0.27625000  1
  H  H27  1  0.12093000  0.57762000  0.24148000  1
  H  H28  1  0.07056000  0.63054000  0.24349000  1
  H  H29  1  0.93329000  0.32074000  0.51577000  1
  H  H30  1  0.97812000  0.25207000  0.53239000  1
  H  H31  1  0.75539000  0.05481000  0.54140000  1
  H  H32  1  0.71026000  0.12357000  0.52411000  1
  H  H33  1  0.85099000  0.66186000  0.48906000  1
  H  H34  1  0.88935000  0.76478000  0.50906000  1
  H  H35  1  0.91652000  0.66023000  0.66837000  1
  H  H36  1  0.87938000  0.55798000  0.64846000  1
  H  H37  1  0.47172000  0.12387000  0.65232000  1
  H  H38  1  0.35399000  0.06641000  0.67239000  1
  H  H39  1  0.29674000  0.18924000  0.52875000  1
  H  H40  1  0.41366000  0.24564000  0.50835000  1
  H  H41  1  0.69694000  0.14411000  0.99957000  1
  H  H42  1  0.72408000  0.06253000  0.01291000  1
  H  H43  1  0.95863000  0.21589000  0.07214000  1
  H  H44  1  0.93087000  0.29585000  0.06155000  1
  H  H45  1  0.87099000  0.57370000  0.14981000  1
  H  H46  1  0.89903000  0.68162000  0.15435000  1
  H  H47  1  0.78697000  0.71430000  0.99679000  1
  H  H48  1  0.75826000  0.60612000  0.99240000  1
  H  H49  1  0.39040000  0.21255000  0.02231000  1
  H  H50  1  0.51047000  0.28004000  0.00089000  1
  H  H51  1  0.57475000  0.15688000  0.13986000  1
  H  H52  1  0.45439000  0.08917000  0.16115000  1
  C  C1  1  0.73490000  0.30693000  0.05139000  1
  C  C2  1  0.74011000  0.39384000  0.06167000  1
  C  C3  1  0.62892000  0.27610000  0.06341000  1
  C  C4  1  0.74861000  0.31971000  0.53417000  1
  C  C5  1  0.64866000  0.30072000  0.54484000  1
  C  C6  1  0.76402000  0.41548000  0.54033000  1
  C  C7  1  0.26824000  0.64129000  0.24951000  1
  C  C8  1  0.36708000  0.66307000  0.23448000  1
  C  C9  1  0.25439000  0.54648000  0.24295000  1
  C  C10  1  0.27476000  0.65228000  0.72946000  1
  C  C11  1  0.25593000  0.55627000  0.72049000  1
  C  C12  1  0.37037000  0.67156000  0.71224000  1
  C  C13  1  0.07911000  0.82919000  0.19766000  1
  C  C14  1  0.02014000  0.96934000  0.98893000  1
  C  C15  1  0.06290000  0.16826000  0.18526000  1
  C  C16  1  0.84963000  0.07165000  0.07834000  1
  C  C17  1  0.99129000  0.99184000  0.28702000  1
  C  C18  1  0.21048000  0.01941000  0.12469000  1
  C  C19  1  0.89720000  0.78575000  0.07014000  1
  C  C20  1  0.77986000  0.88901000  0.17790000  1
  C  C21  1  0.15979000  0.88648000  0.70666000  1
  C  C22  1  0.02115000  0.95510000  0.49367000  1
  C  C23  1  0.08433000  0.15696000  0.71140000  1
  C  C24  1  0.90366000  0.10854000  0.57715000  1
  C  C25  1  0.96706000  0.96487000  0.78439000  1
  C  C26  1  0.23790000  0.07212000  0.60518000  1
  C  C27  1  0.95742000  0.79043000  0.60256000  1
  C  C28  1  0.78436000  0.90905000  0.65247000  1
  C  C29  1  0.97161000  0.99833000  0.89452000  1
  C  C30  1  0.00529000  0.96663000  0.93665000  1
  C  C31  1  0.02560000  0.93324000  0.92863000  1
  C  C32  1  0.01546000  0.93557000  0.87901000  1
  C  C33  1  0.98144000  0.96704000  0.83682000  1
  C  C34  1  0.95865000  0.99817000  0.84506000  1
  C  C35  1  0.06845000  0.02956000  0.36800000  1
  C  C36  1  0.00539000  0.97421000  0.34304000  1
  C  C37  1  0.94539000  0.91466000  0.36725000  1
  C  C38  1  0.94696000  0.91298000  0.41402000  1
  C  C39  1  0.00921000  0.96933000  0.43827000  1
  C  C40  1  0.06974000  0.02825000  0.41447000  1
  C  C41  1  0.17416000  0.35652000  0.71323000  1
  C  C42  1  0.15613000  0.40047000  0.66996000  1
  C  C43  1  0.17348000  0.46186000  0.67353000  1
  C  C44  1  0.12567000  0.23145000  0.70948000  1
  C  C45  1  0.22231000  0.43305000  0.76418000  1
  C  C46  1  0.20514000  0.37178000  0.76059000  1
  C  C47  1  0.15096000  0.29017000  0.71029000  1
  C  C48  1  0.20967000  0.48024000  0.72034000  1
  C  C49  1  0.57307000  0.78402000  0.68271000  1
  C  C50  1  0.63196000  0.78277000  0.72201000  1
  C  C51  1  0.69913000  0.81534000  0.71120000  1
  C  C52  1  0.44390000  0.71781000  0.70256000  1
  C  C53  1  0.64669000  0.84582000  0.62150000  1
  C  C54  1  0.57956000  0.81326000  0.63230000  1
  C  C55  1  0.50364000  0.75011000  0.69377000  1
  C  C56  1  0.70818000  0.85020000  0.66109000  1
  C  C57  1  0.20447000  0.74044000  0.75074000  1
  C  C58  1  0.12905000  0.71615000  0.73381000  1
  C  C59  1  0.11056000  0.75849000  0.72981000  1
  C  C60  1  0.24737000  0.68025000  0.73778000  1
  C  C61  1  0.24109000  0.84575000  0.76404000  1
  C  C62  1  0.25965000  0.80319000  0.76871000  1
  C  C63  1  0.22667000  0.70618000  0.74415000  1
  C  C64  1  0.16782000  0.82729000  0.73968000  1
  C  C65  1  0.15317000  0.35515000  0.21933000  1
  C  C66  1  0.13708000  0.35570000  0.16912000  1
  C  C67  1  0.11721000  0.29791000  0.15832000  1
  C  C68  1  0.20892000  0.47451000  0.23742000  1
  C  C69  1  0.13262000  0.23982000  0.24809000  1
  C  C70  1  0.15304000  0.29800000  0.25893000  1
  C  C71  1  0.18024000  0.41810000  0.23034000  1
  C  C72  1  0.11187000  0.23821000  0.19753000  1
  C  C73  1  0.56732000  0.77759000  0.20148000  1
  C  C74  1  0.58680000  0.83038000  0.15633000  1
  C  C75  1  0.65291000  0.86113000  0.14508000  1
  C  C76  1  0.43941000  0.71123000  0.22278000  1
  C  C77  1  0.67745000  0.78296000  0.22235000  1
  C  C78  1  0.61154000  0.75238000  0.23363000  1
  C  C79  1  0.49846000  0.74436000  0.21276000  1
  C  C80  1  0.70021000  0.83969000  0.17918000  1
  C  C81  1  0.17968000  0.72895000  0.25979000  1
  C  C82  1  0.25772000  0.76602000  0.26992000  1
  C  C83  1  0.28669000  0.73595000  0.26903000  1
  C  C84  1  0.11982000  0.79773000  0.22903000  1
  C  C85  1  0.15968000  0.62978000  0.25002000  1
  C  C86  1  0.13098000  0.65970000  0.25150000  1
  C  C87  1  0.14920000  0.76735000  0.24650000  1
  C  C88  1  0.23773000  0.66864000  0.25721000  1
  C  C89  1  0.81948000  0.22655000  0.52102000  1
  C  C90  1  0.89384000  0.26291000  0.52023000  1
  C  C91  1  0.91904000  0.22392000  0.52900000  1
  C  C92  1  0.77760000  0.29151000  0.52833000  1
  C  C93  1  0.79388000  0.11307000  0.53396000  1
  C  C94  1  0.76849000  0.15203000  0.52494000  1
  C  C95  1  0.79785000  0.26355000  0.52424000  1
  C  C96  1  0.87080000  0.14809000  0.54058000  1
  C  C97  1  0.86626000  0.60455000  0.56757000  1
  C  C98  1  0.86585000  0.66158000  0.52827000  1
  C  C99  1  0.88559000  0.71907000  0.53952000  1
  C  C100  1  0.81056000  0.48647000  0.54781000  1
  C  C101  1  0.90116000  0.66040000  0.62912000  1
  C  C102  1  0.88183000  0.60318000  0.61791000  1
  C  C103  1  0.83951000  0.54220000  0.55599000  1
  C  C104  1  0.90675000  0.72039000  0.59019000  1
  C  C105  1  0.44880000  0.18613000  0.57802000  1
  C  C106  1  0.43345000  0.13798000  0.62520000  1
  C  C107  1  0.36763000  0.10669000  0.63704000  1
  C  C108  1  0.57637000  0.25339000  0.55615000  1
  C  C109  1  0.33509000  0.17532000  0.55602000  1
  C  C110  1  0.40071000  0.20642000  0.54415000  1
  C  C111  1  0.51745000  0.22015000  0.56624000  1
  C  C112  1  0.31652000  0.12288000  0.60151000  1
  C  C113  1  0.81140000  0.22423000  0.03167000  1
  C  C114  1  0.75438000  0.16053000  0.01484000  1
  C  C115  1  0.77000000  0.11457000  0.02176000  1
  C  C116  1  0.76925000  0.28552000  0.04363000  1
  C  C117  1  0.90159000  0.20035000  0.05567000  1
  C  C118  1  0.88584000  0.24584000  0.04969000  1
  C  C119  1  0.79129000  0.26058000  0.03769000  1
  C  C120  1  0.84254000  0.13142000  0.04623000  1
  C  C121  1  0.81699000  0.58529000  0.06989000  1
  C  C122  1  0.85293000  0.60449000  0.11625000  1
  C  C123  1  0.86728000  0.66480000  0.11911000  1
  C  C124  1  0.77853000  0.46566000  0.06428000  1
  C  C125  1  0.80389000  0.68288000  0.03067000  1
  C  C126  1  0.78949000  0.62270000  0.02775000  1
  C  C127  1  0.79985000  0.52180000  0.06701000  1
  C  C128  1  0.84804000  0.70766000  0.07525000  1
  C  C129  1  0.41557000  0.14815000  0.09398000  1
  C  C130  1  0.43055000  0.20035000  0.04806000  1
  C  C131  1  0.49794000  0.23767000  0.03553000  1
  C  C132  1  0.28421000  0.07016000  0.11501000  1
  C  C133  1  0.53408000  0.16825000  0.11366000  1
  C  C134  1  0.46659000  0.13091000  0.12619000  1
  C  C135  1  0.34481000  0.10759000  0.10581000  1
  C  C136  1  0.55102000  0.22328000  0.06899000  1
  Br  Br1  1  0.91043000  0.04186000  0.79019000  1
  Br  Br2  1  0.06072000  0.87826000  0.98418000  1
  Br  Br3  1  0.15437000  0.10832000  0.44440000  1
  Br  Br4  1  0.86037000  0.83515000  0.33686000  1
  N  N1  1  0.77432000  0.37579000  0.05408000  1
  N  N2  1  0.66783000  0.34403000  0.06600000  1
  N  N3  1  0.66243000  0.25726000  0.05644000  1
  N  N4  1  0.67679000  0.27481000  0.53990000  1
  N  N5  1  0.69172000  0.37094000  0.54384000  1
  N  N6  1  0.79326000  0.39009000  0.53564000  1
  N  N7  1  0.33895000  0.68771000  0.24110000  1
  N  N8  1  0.32527000  0.59272000  0.23634000  1
  N  N9  1  0.22518000  0.57043000  0.24945000  1
  N  N10  1  0.22996000  0.58141000  0.72928000  1
  N  N11  1  0.32576000  0.60149000  0.71209000  1
  N  N12  1  0.34510000  0.69737000  0.72084000  1
  O  O1  1  0.99145000  0.14208000  0.16318000  1
  O  O2  1  0.94837000  0.01248000  0.16299000  1
  O  O3  1  0.11347000  0.01474000  0.21139000  1
  O  O4  1  0.86943000  0.93324000  0.05975000  1
  O  O5  1  0.00356000  0.99468000  0.12635000  1
  O  O6  1  0.09225000  0.13595000  0.19290000  1
  O  O7  1  0.17381000  0.95183000  0.12672000  1
  O  O8  1  0.18406000  0.03895000  0.13702000  1
  O  O9  1  0.82943000  0.03672000  0.12136000  1
  O  O10  1  0.88063000  0.05661000  0.06617000  1
  O  O11  1  0.97967000  0.04130000  0.26005000  1
  O  O12  1  0.00241000  0.96780000  0.26523000  1
  O  O13  1  0.95370000  0.82620000  0.04922000  1
  O  O14  1  0.88988000  0.81441000  0.09034000  1
  O  O15  1  0.03395000  0.93463000  0.10817000  1
  O  O16  1  0.82880000  0.92802000  0.21167000  1
  O  O17  1  0.80218000  0.88639000  0.14801000  1
  O  O18  1  0.03664000  0.81312000  0.15391000  1
  O  O19  1  0.08628000  0.87475000  0.21177000  1
  O  O20  1  0.07945000  0.97324000  0.02320000  1
  O  O21  1  0.97236000  0.96599000  0.00072000  1
  O  O22  1  0.02400000  0.10969000  0.72934000  1
  O  O23  1  0.96627000  0.01777000  0.66521000  1
  O  O24  1  0.13387000  0.02175000  0.71915000  1
  O  O25  1  0.89328000  0.93303000  0.56726000  1
  O  O26  1  0.02686000  0.00265000  0.63174000  1
  O  O27  1  0.10754000  0.13601000  0.69720000  1
  O  O28  1  0.18789000  0.03141000  0.57232000  1
  O  O29  1  0.22054000  0.06323000  0.64429000  1
  O  O30  1  0.94212000  0.12267000  0.62207000  1
  O  O31  1  0.89311000  0.05924000  0.56482000  1
  O  O32  1  0.90655000  0.95841000  0.75065000  1
  O  O33  1  0.01461000  0.96855000  0.77223000  1
  O  O34  1  0.02907000  0.81655000  0.62245000  1
  O  O35  1  0.92915000  0.81923000  0.60226000  1
  O  O36  1  0.06864000  0.95252000  0.61410000  1
  O  O37  1  0.81195000  0.97476000  0.64846000  1
  O  O38  1  0.82396000  0.89696000  0.64730000  1
  O  O39  1  0.18589000  0.92451000  0.66581000  1
  O  O40  1  0.11722000  0.89441000  0.71272000  1
  O  O41  1  0.04048000  0.91157000  0.52419000  1
  O  O42  1  0.00066000  0.97579000  0.51091000  1
