# generated using pymatgen
data_Co6H48C92N6O21F4
_symmetry_space_group_name_H-M   'P 1'
_cell_length_a   27.94075000
_cell_length_b   28.93177000
_cell_length_c   30.94396000
_cell_angle_alpha   61.21728000
_cell_angle_beta   118.41609000
_cell_angle_gamma   133.22088000
_symmetry_Int_Tables_number   1
_chemical_formula_structural   Co6H48C92N6O21F4
_chemical_formula_sum   'Co12 H96 C184 N12 O42 F8'
_cell_volume   15552.48409184
_cell_formula_units_Z   2
loop_
 _symmetry_equiv_pos_site_id
 _symmetry_equiv_pos_as_xyz
  1  'x, y, z'
loop_
 _atom_site_type_symbol
 _atom_site_label
 _atom_site_symmetry_multiplicity
 _atom_site_fract_x
 _atom_site_fract_y
 _atom_site_fract_z
 _atom_site_occupancy
  Co  Co1  1  0.08127000  0.97659000  0.16361000  1
  Co  Co2  1  0.91124000  0.98402000  0.11586000  1
  Co  Co3  1  0.03597000  0.03343000  0.19627000  1
  Co  Co4  1  0.96447000  0.94187000  0.07613000  1
  Co  Co5  1  0.06001000  0.90563000  0.09295000  1
  Co  Co6  1  0.92415000  0.04368000  0.19033000  1
  Co  Co7  1  0.08228000  0.96262000  0.66842000  1
  Co  Co8  1  0.92893000  0.99468000  0.61890000  1
  Co  Co9  1  0.04594000  0.02243000  0.70677000  1
  Co  Co10  1  0.96942000  0.94100000  0.57869000  1
  Co  Co11  1  0.05181000  0.89186000  0.59249000  1
  Co  Co12  1  0.94549000  0.04991000  0.69876000  1
  H  H1  1  0.12153000  0.33898000  0.63168000  1
  H  H2  1  0.09324000  0.23618000  0.63453000  1
  H  H3  1  0.18771000  0.21295000  0.79366000  1
  H  H4  1  0.22210000  0.31911000  0.78991000  1
  H  H5  1  0.14626000  0.35036000  0.77655000  1
  H  H6  1  0.18532000  0.45399000  0.78299000  1
  H  H7  1  0.25870000  0.55517000  0.64722000  1
  H  H8  1  0.22452000  0.45308000  0.64283000  1
  H  H9  1  0.58664000  0.82092000  0.62429000  1
  H  H10  1  0.69222000  0.88197000  0.59980000  1
  H  H11  1  0.79628000  0.86705000  0.75698000  1
  H  H12  1  0.69211000  0.80951000  0.78149000  1
  H  H13  1  0.57071000  0.69958000  0.77430000  1
  H  H14  1  0.46342000  0.64363000  0.79319000  1
  H  H15  1  0.44884000  0.80063000  0.68537000  1
  H  H16  1  0.55836000  0.85857000  0.66845000  1
  H  H17  1  0.06223000  0.65791000  0.74990000  1
  H  H18  1  0.00301000  0.70264000  0.73147000  1
  H  H19  1  0.19352000  0.88973000  0.74894000  1
  H  H20  1  0.25324000  0.84438000  0.76945000  1
  H  H21  1  0.24721000  0.81154000  0.69913000  1
  H  H22  1  0.29726000  0.77177000  0.69186000  1
  H  H23  1  0.19989000  0.59527000  0.80519000  1
  H  H24  1  0.15186000  0.63614000  0.81403000  1
  H  H25  1  0.09088000  0.39271000  0.17689000  1
  H  H26  1  0.13545000  0.49627000  0.18773000  1
  H  H27  1  0.28159000  0.48183000  0.32128000  1
  H  H28  1  0.24045000  0.38103000  0.30867000  1
  H  H29  1  0.15715000  0.37920000  0.15048000  1
  H  H30  1  0.11807000  0.28559000  0.12759000  1
  H  H31  1  0.10364000  0.17221000  0.28137000  1
  H  H32  1  0.13767000  0.26381000  0.30351000  1
  H  H33  1  0.66267000  0.77072000  0.28546000  1
  H  H34  1  0.77020000  0.82304000  0.26931000  1
  H  H35  1  0.69495000  0.87903000  0.10948000  1
  H  H36  1  0.58461000  0.82127000  0.12505000  1
  H  H37  1  0.54946000  0.84698000  0.17138000  1
  H  H38  1  0.44131000  0.79497000  0.18738000  1
  H  H39  1  0.43773000  0.62533000  0.28581000  1
  H  H40  1  0.54131000  0.67406000  0.26576000  1
  H  H41  1  0.17062000  0.66018000  0.33107000  1
  H  H42  1  0.21338000  0.61301000  0.32410000  1
  H  H43  1  0.29848000  0.77686000  0.20000000  1
  H  H44  1  0.25428000  0.82317000  0.20609000  1
  H  H45  1  0.26612000  0.86574000  0.27442000  1
  H  H46  1  0.20578000  0.91173000  0.25072000  1
  H  H47  1  0.01611000  0.72231000  0.24035000  1
  H  H48  1  0.07587000  0.67629000  0.26344000  1
  H  H49  1  0.95719000  0.30785000  0.52830000  1
  H  H50  1  0.99901000  0.24471000  0.55141000  1
  H  H51  1  0.79738000  0.06670000  0.55275000  1
  H  H52  1  0.75579000  0.12932000  0.53148000  1
  H  H53  1  0.74850000  0.22826000  0.46675000  1
  H  H54  1  0.70134000  0.26797000  0.47824000  1
  H  H55  1  0.86601000  0.33580000  0.60678000  1
  H  H56  1  0.91204000  0.29430000  0.59639000  1
  H  H57  1  0.86704000  0.61389000  0.66981000  1
  H  H58  1  0.89669000  0.71895000  0.66306000  1
  H  H59  1  0.80399000  0.73753000  0.50367000  1
  H  H60  1  0.76795000  0.62924000  0.51124000  1
  H  H61  1  0.76739000  0.49829000  0.65897000  1
  H  H62  1  0.74352000  0.39934000  0.65856000  1
  H  H63  1  0.82182000  0.50342000  0.52475000  1
  H  H64  1  0.85105000  0.60417000  0.52767000  1
  H  H65  1  0.50821000  0.13909000  0.68902000  1
  H  H66  1  0.62056000  0.20769000  0.67242000  1
  H  H67  1  0.53101000  0.21679000  0.51303000  1
  H  H68  1  0.41833000  0.14755000  0.52966000  1
  H  H69  1  0.38221000  0.18576000  0.57465000  1
  H  H70  1  0.26982000  0.12587000  0.58762000  1
  H  H71  1  0.27247000  0.95872000  0.68174000  1
  H  H72  1  0.38394000  0.01805000  0.66793000  1
  H  H73  1  0.74151000  0.23709000  0.94636000  1
  H  H74  1  0.69971000  0.28312000  0.95635000  1
  H  H75  1  0.83983000  0.31318000  0.10114000  1
  H  H76  1  0.88002000  0.26503000  0.09221000  1
  H  H77  1  0.93604000  0.28000000  0.03144000  1
  H  H78  1  0.96139000  0.20310000  0.05479000  1
  H  H79  1  0.74876000  0.04806000  0.02534000  1
  H  H80  1  0.72321000  0.12411000  0.00339000  1
  H  H81  1  0.88830000  0.58905000  0.09138000  1
  H  H82  1  0.85619000  0.48921000  0.08380000  1
  H  H83  1  0.66026000  0.44320000  0.99396000  1
  H  H84  1  0.69026000  0.53987000  0.00468000  1
  H  H85  1  0.77360000  0.66387000  0.97954000  1
  H  H86  1  0.81614000  0.76541000  0.99188000  1
  H  H87  1  0.88847000  0.70530000  0.15138000  1
  H  H88  1  0.84166000  0.60126000  0.13985000  1
  H  H89  1  0.51855000  0.18140000  0.18133000  1
  H  H90  1  0.62700000  0.24226000  0.16153000  1
  H  H91  1  0.52160000  0.19849000  0.01495000  1
  H  H92  1  0.41286000  0.13669000  0.03502000  1
  H  H93  1  0.37546000  0.19439000  0.05570000  1
  H  H94  1  0.26337000  0.13768000  0.06750000  1
  H  H95  1  0.28837000  0.99730000  0.19681000  1
  H  H96  1  0.39958000  0.05313000  0.18458000  1
  C  C1  1  0.73252000  0.31548000  0.04017000  1
  C  C2  1  0.72943000  0.39110000  0.04698000  1
  C  C3  1  0.64462000  0.27848000  0.06901000  1
  C  C4  1  0.74462000  0.31479000  0.55693000  1
  C  C5  1  0.74572000  0.38088000  0.58183000  1
  C  C6  1  0.65019000  0.27238000  0.58053000  1
  C  C7  1  0.27983000  0.66071000  0.25463000  1
  C  C8  1  0.25607000  0.56811000  0.24890000  1
  C  C9  1  0.36155000  0.66958000  0.23982000  1
  C  C10  1  0.28137000  0.65663000  0.74285000  1
  C  C11  1  0.37574000  0.67497000  0.73916000  1
  C  C12  1  0.26881000  0.57522000  0.72881000  1
  C  C13  1  0.07275000  0.85221000  0.20313000  1
  C  C14  1  0.02474000  0.97840000  0.99226000  1
  C  C15  1  0.06411000  0.16192000  0.18617000  1
  C  C16  1  0.87022000  0.07112000  0.07935000  1
  C  C17  1  0.99872000  0.00171000  0.28807000  1
  C  C18  1  0.19588000  0.02040000  0.13190000  1
  C  C19  1  0.91094000  0.81243000  0.07397000  1
  C  C20  1  0.81036000  0.90680000  0.18188000  1
  C  C21  1  0.06065000  0.83264000  0.70160000  1
  C  C22  1  0.02738000  0.97474000  0.49429000  1
  C  C23  1  0.09500000  0.14553000  0.72096000  1
  C  C24  1  0.92888000  0.11329000  0.58940000  1
  C  C25  1  0.98077000  0.97030000  0.79232000  1
  C  C26  1  0.19220000  0.99860000  0.63600000  1
  C  C27  1  0.90317000  0.80883000  0.57323000  1
  C  C28  1  0.81671000  0.93194000  0.66221000  1
  C  C29  1  0.94072000  0.92295000  0.87074000  1
  C  C30  1  0.99485000  0.96526000  0.84684000  1
  C  C31  1  0.05867000  0.01278000  0.87069000  1
  C  C32  1  0.06771000  0.01922000  0.91685000  1
  C  C33  1  0.01295000  0.97826000  0.93983000  1
  C  C34  1  0.94948000  0.93002000  0.91642000  1
  C  C35  1  0.95655000  0.93952000  0.41233000  1
  C  C36  1  0.01955000  0.98205000  0.44057000  1
  C  C37  1  0.07715000  0.02345000  0.42085000  1
  C  C38  1  0.07151000  0.02355000  0.37312000  1
  C  C39  1  0.00815000  0.98311000  0.34388000  1
  C  C40  1  0.95096000  0.93993000  0.36443000  1
  C  C41  1  0.19328000  0.30088000  0.75602000  1
  C  C42  1  0.17177000  0.33525000  0.71106000  1
  C  C43  1  0.13765000  0.31262000  0.66685000  1
  C  C44  1  0.12166000  0.25427000  0.66846000  1
  C  C45  1  0.13651000  0.21631000  0.71465000  1
  C  C46  1  0.17525000  0.24144000  0.75787000  1
  C  C47  1  0.18498000  0.39486000  0.71031000  1
  C  C48  1  0.17107000  0.39501000  0.74838000  1
  C  C49  1  0.19200000  0.45356000  0.75148000  1
  C  C50  1  0.22617000  0.51213000  0.71622000  1
  C  C51  1  0.23346000  0.51043000  0.67520000  1
  C  C52  1  0.21418000  0.45249000  0.67275000  1
  C  C53  1  0.69145000  0.82404000  0.74185000  1
  C  C54  1  0.63252000  0.81282000  0.70452000  1
  C  C55  1  0.63234000  0.83109000  0.65337000  1
  C  C56  1  0.69185000  0.86453000  0.63953000  1
  C  C57  1  0.75174000  0.87933000  0.67671000  1
  C  C58  1  0.75047000  0.85638000  0.72799000  1
  C  C59  1  0.57110000  0.78209000  0.71899000  1
  C  C60  1  0.54504000  0.72247000  0.75550000  1
  C  C61  1  0.48426000  0.69083000  0.76630000  1
  C  C62  1  0.44786000  0.71749000  0.73977000  1
  C  C63  1  0.47615000  0.77928000  0.70583000  1
  C  C64  1  0.53768000  0.81158000  0.69558000  1
  C  C65  1  0.19864000  0.81304000  0.76168000  1
  C  C66  1  0.16187000  0.74876000  0.75872000  1
  C  C67  1  0.09133000  0.70801000  0.75115000  1
  C  C68  1  0.05769000  0.73337000  0.74096000  1
  C  C69  1  0.09395000  0.80021000  0.73648000  1
  C  C70  1  0.16474000  0.83852000  0.75087000  1
  C  C71  1  0.19610000  0.72683000  0.75724000  1
  C  C72  1  0.23763000  0.76485000  0.72300000  1
  C  C73  1  0.26560000  0.74202000  0.71855000  1
  C  C74  1  0.25162000  0.68048000  0.74768000  1
  C  C75  1  0.21043000  0.64251000  0.78209000  1
  C  C76  1  0.18328000  0.66578000  0.78718000  1
  C  C77  1  0.21601000  0.40485000  0.28295000  1
  C  C78  1  0.16466000  0.38123000  0.24065000  1
  C  C79  1  0.13255000  0.41201000  0.20844000  1
  C  C80  1  0.15690000  0.47005000  0.21518000  1
  C  C81  1  0.21305000  0.49734000  0.25433000  1
  C  C82  1  0.23912000  0.46189000  0.29025000  1
  C  C83  1  0.14780000  0.32733000  0.22817000  1
  C  C84  1  0.14504000  0.33398000  0.17910000  1
  C  C85  1  0.12440000  0.28143000  0.16638000  1
  C  C86  1  0.10757000  0.22220000  0.20278000  1
  C  C87  1  0.11618000  0.21761000  0.25288000  1
  C  C88  1  0.13503000  0.26944000  0.26536000  1
  C  C89  1  0.62522000  0.82214000  0.15667000  1
  C  C90  1  0.61651000  0.79370000  0.20654000  1
  C  C91  1  0.66871000  0.79283000  0.24684000  1
  C  C92  1  0.72972000  0.82243000  0.23766000  1
  C  C93  1  0.74071000  0.85614000  0.18844000  1
  C  C94  1  0.68726000  0.85353000  0.14770000  1
  C  C95  1  0.55246000  0.76367000  0.21675000  1
  C  C96  1  0.52457000  0.79816000  0.19567000  1
  C  C97  1  0.46393000  0.76922000  0.20556000  1
  C  C98  1  0.43149000  0.70616000  0.23731000  1
  C  C99  1  0.46163000  0.67356000  0.26054000  1
  C  C100  1  0.52061000  0.70132000  0.24935000  1
  C  C101  1  0.24627000  0.77794000  0.23253000  1
  C  C102  1  0.20897000  0.74482000  0.26887000  1
  C  C103  1  0.19858000  0.68587000  0.30250000  1
  C  C104  1  0.22272000  0.65902000  0.29845000  1
  C  C105  1  0.25830000  0.69123000  0.26116000  1
  C  C106  1  0.27109000  0.75147000  0.22890000  1
  C  C107  1  0.17505000  0.76841000  0.26815000  1
  C  C108  1  0.21159000  0.83404000  0.26762000  1
  C  C109  1  0.17737000  0.86001000  0.25470000  1
  C  C110  1  0.10657000  0.82108000  0.24097000  1
  C  C111  1  0.07077000  0.75348000  0.24909000  1
  C  C112  1  0.10471000  0.72740000  0.26184000  1
  C  C113  1  0.80857000  0.15504000  0.53429000  1
  C  C114  1  0.85409000  0.22273000  0.53051000  1
  C  C115  1  0.92195000  0.25534000  0.53295000  1
  C  C116  1  0.94554000  0.21959000  0.54544000  1
  C  C117  1  0.90145000  0.15102000  0.55540000  1
  C  C118  1  0.83213000  0.11950000  0.54607000  1
  C  C119  1  0.83286000  0.25728000  0.53134000  1
  C  C120  1  0.77455000  0.25205000  0.49714000  1
  C  C121  1  0.74798000  0.27485000  0.50352000  1
  C  C122  1  0.77994000  0.30388000  0.54374000  1
  C  C123  1  0.84083000  0.31337000  0.57568000  1
  C  C124  1  0.86696000  0.28982000  0.56976000  1
  C  C125  1  0.79668000  0.64891000  0.54439000  1
  C  C126  1  0.81841000  0.61576000  0.59035000  1
  C  C127  1  0.85156000  0.63978000  0.63371000  1
  C  C128  1  0.86845000  0.69946000  0.62986000  1
  C  C129  1  0.85623000  0.73742000  0.58225000  1
  C  C130  1  0.81569000  0.70960000  0.54037000  1
  C  C131  1  0.80905000  0.55772000  0.59250000  1
  C  C132  1  0.78074000  0.50014000  0.63026000  1
  C  C133  1  0.76703000  0.44394000  0.62991000  1
  C  C134  1  0.77908000  0.44385000  0.59071000  1
  C  C135  1  0.81154000  0.50252000  0.55488000  1
  C  C136  1  0.82696000  0.55938000  0.55599000  1
  C  C137  1  0.46232000  0.16018000  0.56092000  1
  C  C138  1  0.45588000  0.14013000  0.61032000  1
  C  C139  1  0.51285000  0.15518000  0.65067000  1
  C  C140  1  0.57639000  0.19360000  0.64130000  1
  C  C141  1  0.58352000  0.21756000  0.59152000  1
  C  C142  1  0.52600000  0.19868000  0.55159000  1
  C  C143  1  0.39008000  0.10544000  0.61959000  1
  C  C144  1  0.35828000  0.13619000  0.59797000  1
  C  C145  1  0.29502000  0.10258000  0.60583000  1
  C  C146  1  0.26314000  0.03801000  0.63522000  1
  C  C147  1  0.29635000  0.00837000  0.65854000  1
  C  C148  1  0.35940000  0.04186000  0.65062000  1
  C  C149  1  0.84194000  0.27041000  0.06183000  1
  C  C150  1  0.81290000  0.24667000  0.01897000  1
  C  C151  1  0.76355000  0.25412000  0.97999000  1
  C  C152  1  0.74009000  0.28057000  0.98552000  1
  C  C153  1  0.76654000  0.30085000  0.02962000  1
  C  C154  1  0.81903000  0.29760000  0.06698000  1
  C  C155  1  0.82785000  0.20676000  0.01807000  1
  C  C156  1  0.89497000  0.22966000  0.02930000  1
  C  C157  1  0.90935000  0.18621000  0.04183000  1
  C  C158  1  0.85682000  0.11958000  0.04362000  1
  C  C159  1  0.78981000  0.09906000  0.02530000  1
  C  C160  1  0.77529000  0.14219000  0.01313000  1
  C  C161  1  0.72722000  0.52993000  0.02112000  1
  C  C162  1  0.79070000  0.57032000  0.04999000  1
  C  C163  1  0.83828000  0.55703000  0.07047000  1
  C  C164  1  0.82061000  0.50116000  0.06526000  1
  C  C165  1  0.75559000  0.45864000  0.03906000  1
  C  C166  1  0.71030000  0.47518000  0.01492000  1
  C  C167  1  0.80746000  0.62675000  0.05847000  1
  C  C168  1  0.79705000  0.67177000  0.01735000  1
  C  C169  1  0.82078000  0.72923000  0.02443000  1
  C  C170  1  0.85797000  0.74374000  0.07206000  1
  C  C171  1  0.86118000  0.69533000  0.11415000  1
  C  C172  1  0.83611000  0.63702000  0.10741000  1
  C  C173  1  0.45950000  0.15933000  0.06282000  1
  C  C174  1  0.45846000  0.15672000  0.10889000  1
  C  C175  1  0.51892000  0.18421000  0.14527000  1
  C  C176  1  0.58030000  0.21815000  0.13423000  1
  C  C177  1  0.58182000  0.22545000  0.08656000  1
  C  C178  1  0.52102000  0.19346000  0.05177000  1
  C  C179  1  0.39440000  0.12657000  0.11857000  1
  C  C180  1  0.35666000  0.15154000  0.08666000  1
  C  C181  1  0.29359000  0.11998000  0.09377000  1
  C  C182  1  0.26787000  0.06324000  0.13270000  1
  C  C183  1  0.30760000  0.04087000  0.16647000  1
  C  C184  1  0.37043000  0.07223000  0.15933000  1
  N  N1  1  0.76032000  0.37849000  0.03544000  1
  N  N2  1  0.67231000  0.34100000  0.06426000  1
  N  N3  1  0.67426000  0.26556000  0.05652000  1
  N  N4  1  0.77721000  0.37313000  0.56590000  1
  N  N5  1  0.68253000  0.33034000  0.58921000  1
  N  N6  1  0.68090000  0.26463000  0.56401000  1
  N  N7  1  0.23682000  0.59560000  0.25622000  1
  N  N8  1  0.31760000  0.60544000  0.23980000  1
  N  N9  1  0.34259000  0.69761000  0.24684000  1
  N  N10  1  0.34851000  0.69643000  0.74433000  1
  N  N11  1  0.33580000  0.61459000  0.73151000  1
  N  N12  1  0.24139000  0.59583000  0.73501000  1
  O  O1  1  0.00023000  0.13871000  0.16401000  1
  O  O2  1  0.96068000  0.02048000  0.16438000  1
  O  O3  1  0.10860000  0.02350000  0.21233000  1
  O  O4  1  0.88951000  0.94742000  0.06196000  1
  O  O5  1  0.01029000  0.00528000  0.12727000  1
  O  O6  1  0.08977000  0.13234000  0.19353000  1
  O  O7  1  0.16044000  0.95920000  0.13147000  1
  O  O8  1  0.17099000  0.04031000  0.14024000  1
  O  O9  1  0.85395000  0.04203000  0.12296000  1
  O  O10  1  0.89803000  0.05697000  0.06792000  1
  O  O11  1  0.98922000  0.04716000  0.26134000  1
  O  O12  1  0.00859000  0.97985000  0.26622000  1
  O  O13  1  0.96221000  0.84612000  0.05446000  1
  O  O14  1  0.90678000  0.84068000  0.09372000  1
  O  O15  1  0.03627000  0.94842000  0.11066000  1
  O  O16  1  0.85446000  0.94461000  0.21405000  1
  O  O17  1  0.83011000  0.90453000  0.15161000  1
  O  O18  1  0.03739000  0.83581000  0.15960000  1
  O  O19  1  0.07379000  0.89197000  0.21435000  1
  O  O20  1  0.07621000  0.97877000  0.02701000  1
  O  O21  1  0.98239000  0.97637000  0.00365000  1
  O  O22  1  0.04213000  0.10729000  0.74002000  1
  O  O23  1  0.97732000  0.02267000  0.67184000  1
  O  O24  1  0.11216000  0.00493000  0.72161000  1
  O  O25  1  0.90278000  0.95787000  0.56345000  1
  O  O26  1  0.02144000  0.00261000  0.63347000  1
  O  O27  1  0.10945000  0.12099000  0.70633000  1
  O  O28  1  0.15197000  0.93764000  0.63287000  1
  O  O29  1  0.17281000  0.02114000  0.64768000  1
  O  O30  1  0.96593000  0.12462000  0.63446000  1
  O  O31  1  0.91742000  0.07020000  0.57373000  1
  O  O32  1  0.92964000  0.97211000  0.76079000  1
  O  O33  1  0.01583000  0.96773000  0.77663000  1
  O  O34  1  0.95255000  0.83997000  0.55242000  1
  O  O35  1  0.90390000  0.83982000  0.59397000  1
  O  O36  1  0.03679000  0.93963000  0.61321000  1
  O  O37  1  0.84564000  0.99215000  0.66091000  1
  O  O38  1  0.84615000  0.91908000  0.65121000  1
  O  O39  1  0.02453000  0.81933000  0.65713000  1
  O  O40  1  0.06573000  0.87312000  0.71535000  1
  O  O41  1  0.07500000  0.96882000  0.52931000  1
  O  O42  1  0.98703000  0.97493000  0.50611000  1
  F  F1  1  0.89644000  0.88884000  0.93847000  1
  F  F2  1  0.87918000  0.87542000  0.84929000  1
  F  F3  1  0.12957000  0.06590000  0.93886000  1
  F  F4  1  0.11140000  0.05464000  0.84817000  1
  F  F5  1  0.88928000  0.90054000  0.33688000  1
  F  F6  1  0.90081000  0.89699000  0.43150000  1
  F  F7  1  0.12723000  0.06607000  0.35392000  1
  F  F8  1  0.13863000  0.06437000  0.44763000  1
