# generated using pymatgen
data_Zn7H54C92N2(Cl3O5)4
_symmetry_space_group_name_H-M   'P 1'
_cell_length_a   24.74230000
_cell_length_b   22.22172000
_cell_length_c   31.32568000
_cell_angle_alpha   104.02602000
_cell_angle_beta   115.93642000
_cell_angle_gamma   111.52136000
_symmetry_Int_Tables_number   1
_chemical_formula_structural   Zn7H54C92N2(Cl3O5)4
_chemical_formula_sum   'Zn14 H108 C184 N4 Cl24 O40'
_cell_volume   12628.54398376
_cell_formula_units_Z   2
loop_
 _symmetry_equiv_pos_site_id
 _symmetry_equiv_pos_as_xyz
  1  'x, y, z'
loop_
 _atom_site_type_symbol
 _atom_site_label
 _atom_site_symmetry_multiplicity
 _atom_site_fract_x
 _atom_site_fract_y
 _atom_site_fract_z
 _atom_site_occupancy
  Zn  Zn1  1  0.21187000  0.19505000  0.02039000  1
  Zn  Zn2  1  0.09764000  0.11233000  0.90002000  1
  Zn  Zn3  1  0.92197000  0.88797000  0.91539000  1
  Zn  Zn4  1  0.05104000  0.95936000  0.02516000  1
  Zn  Zn5  1  0.06628000  0.03494000  0.96040000  1
  Zn  Zn6  1  0.02811000  0.07938000  0.04141000  1
  Zn  Zn7  1  0.08118000  0.95889000  0.87341000  1
  Zn  Zn8  1  0.12337000  0.12205000  0.48509000  1
  Zn  Zn9  1  0.00754000  0.07802000  0.37520000  1
  Zn  Zn10  1  0.80294000  0.85613000  0.36635000  1
  Zn  Zn11  1  0.92044000  0.88029000  0.46388000  1
  Zn  Zn12  1  0.96022000  0.98105000  0.41937000  1
  Zn  Zn13  1  0.93962000  0.01714000  0.51208000  1
  Zn  Zn14  1  0.94968000  0.90690000  0.31752000  1
  H  H1  1  0.89014000  0.59622000  0.08135000  1
  H  H2  1  0.83644000  0.48140000  0.08522000  1
  H  H3  1  0.69960000  0.35921000  0.91080000  1
  H  H4  1  0.74709000  0.47481000  0.90699000  1
  H  H5  1  0.61082000  0.24889000  0.06409000  1
  H  H6  1  0.71984000  0.29633000  0.06639000  1
  H  H7  1  0.61178000  0.31773000  0.92500000  1
  H  H8  1  0.50386000  0.27186000  0.92349000  1
  H  H9  1  0.88879000  0.26465000  0.00795000  1
  H  H10  1  0.86088000  0.34738000  0.04902000  1
  H  H11  1  0.65205000  0.23148000  0.89876000  1
  H  H12  1  0.68076000  0.14991000  0.85717000  1
  H  H13  1  0.66120000  0.52112000  0.45126000  1
  H  H14  1  0.62974000  0.41838000  0.47181000  1
  H  H15  1  0.54925000  0.26685000  0.31201000  1
  H  H16  1  0.58279000  0.37005000  0.29206000  1
  H  H17  1  0.34693000  0.12985000  0.31917000  1
  H  H18  1  0.45411000  0.19869000  0.32268000  1
  H  H19  1  0.58802000  0.26353000  0.49176000  1
  H  H20  1  0.48081000  0.19908000  0.48929000  1
  H  H21  1  0.59460000  0.08674000  0.32227000  1
  H  H22  1  0.53112000  0.14661000  0.33147000  1
  H  H23  1  0.73258000  0.34695000  0.46424000  1
  H  H24  1  0.79609000  0.28774000  0.45351000  1
  H  H25  1  0.41251000  0.60573000  0.07967000  1
  H  H26  1  0.48724000  0.73724000  0.10780000  1
  H  H27  1  0.42050000  0.67919000  0.94388000  1
  H  H28  1  0.34300000  0.54805000  0.91520000  1
  H  H29  1  0.57164000  0.85739000  0.93983000  1
  H  H30  1  0.48110000  0.81613000  0.95822000  1
  H  H31  1  0.63070000  0.82443000  0.10233000  1
  H  H32  1  0.72049000  0.86342000  0.08276000  1
  H  H33  1  0.46347000  0.97093000  0.11924000  1
  H  H34  1  0.53492000  0.91572000  0.12348000  1
  H  H35  1  0.37298000  0.75492000  0.95470000  1
  H  H36  1  0.30284000  0.81107000  0.95023000  1
  H  H37  1  0.31509000  0.58440000  0.56711000  1
  H  H38  1  0.37802000  0.71068000  0.58091000  1
  H  H39  1  0.34300000  0.62110000  0.42616000  1
  H  H40  1  0.28118000  0.49549000  0.41292000  1
  H  H41  1  0.46292000  0.77014000  0.39642000  1
  H  H42  1  0.37171000  0.73250000  0.41449000  1
  H  H43  1  0.53605000  0.81627000  0.58199000  1
  H  H44  1  0.62786000  0.85806000  0.56459000  1
  H  H45  1  0.33312000  0.91959000  0.53507000  1
  H  H46  1  0.41915000  0.88091000  0.56187000  1
  H  H47  1  0.26034000  0.66960000  0.41721000  1
  H  H48  1  0.17367000  0.70690000  0.39216000  1
  H  H49  1  0.13996000  0.09209000  0.06171000  1
  H  H50  1  0.99090000  0.98686000  0.86085000  1
  H  H51  1  0.03450000  0.00379000  0.51482000  1
  H  H52  1  0.88629000  0.96443000  0.32757000  1
  H  H53  1  0.96590000  0.89885000  0.71403000  1
  H  H54  1  0.11521000  0.05907000  0.67327000  1
  H  H55  1  0.85158000  0.88882000  0.65315000  1
  H  H56  1  0.78506000  0.82940000  0.58208000  1
  H  H57  1  0.24194000  0.07722000  0.77431000  1
  H  H58  1  0.22480000  0.06670000  0.82321000  1
  H  H59  1  0.87779000  0.84174000  0.56605000  1
  H  H60  1  0.17296000  0.14643000  0.81328000  1
  H  H61  1  0.84085000  0.93654000  0.56635000  1
  H  H62  1  0.80359000  0.95094000  0.60306000  1
  H  H63  1  0.89907000  0.99537000  0.63899000  1
  H  H64  1  0.88210000  0.80704000  0.61170000  1
  H  H65  1  0.32222000  0.21508000  0.83578000  1
  H  H66  1  0.35142000  0.16480000  0.86719000  1
  H  H67  1  0.30634000  0.20236000  0.88510000  1
  H  H68  1  0.19036000  0.15591000  0.76521000  1
  H  H69  1  0.11278000  0.03290000  0.28608000  1
  H  H70  1  0.94597000  0.02004000  0.11594000  1
  H  H71  1  0.16207000  0.97000000  0.25659000  1
  H  H72  1  0.23172000  0.00400000  0.24756000  1
  H  H73  1  0.89492000  0.09326000  0.16623000  1
  H  H74  1  0.93648000  0.10563000  0.23390000  1
  H  H75  1  0.18472000  0.07123000  0.20489000  1
  H  H76  1  0.86758000  0.95890000  0.18607000  1
  H  H77  1  0.14344000  0.93569000  0.14755000  1
  H  H78  1  0.13343000  0.87469000  0.17614000  1
  H  H79  1  0.07041000  0.90216000  0.15441000  1
  H  H80  1  0.21032000  0.10097000  0.27201000  1
  H  H81  1  0.77370000  0.00981000  0.14508000  1
  H  H82  1  0.82278000  0.10238000  0.19912000  1
  H  H83  1  0.81839000  0.02850000  0.21477000  1
  H  H84  1  0.84999000  0.96316000  0.12598000  1
  H  H85  1  0.08104000  0.31317000  0.41473000  1
  H  H86  1  0.34660000  0.45502000  0.52582000  1
  H  H87  1  0.67946000  0.94504000  0.42345000  1
  H  H88  1  0.63271000  0.76095000  0.48751000  1
  H  H89  1  0.10506000  0.88220000  0.35571000  1
  H  H90  1  0.18154000  0.82925000  0.50989000  1
  H  H91  1  0.30532000  0.32259000  0.94198000  1
  H  H92  1  0.25206000  0.51281000  0.99127000  1
  H  H93  1  0.84699000  0.02897000  0.02104000  1
  H  H94  1  0.66627000  0.76812000  0.95176000  1
  H  H95  1  0.25605000  0.83171000  0.02696000  1
  H  H96  1  0.31383000  0.06398000  0.01622000  1
  H  H97  1  0.78665000  0.06265000  0.47224000  1
  H  H98  1  0.77004000  0.16463000  0.34562000  1
  H  H99  1  0.57224000  0.52620000  0.33001000  1
  H  H100  1  0.82978000  0.63935000  0.40561000  1
  H  H101  1  0.31362000  0.20262000  0.37815000  1
  H  H102  1  0.26188000  0.02347000  0.44574000  1
  H  H103  1  0.80464000  0.00098000  0.91338000  1
  H  H104  1  0.87357000  0.22890000  0.89667000  1
  H  H105  1  0.83282000  0.67026000  0.03801000  1
  H  H106  1  0.94207000  0.68034000  0.93719000  1
  H  H107  1  0.32788000  0.08633000  0.94498000  1
  H  H108  1  0.52581000  0.34936000  0.04459000  1
  C  C1  1  0.82332000  0.54313000  0.99387000  1
  C  C2  1  0.84725000  0.54482000  0.04409000  1
  C  C3  1  0.81687000  0.47989000  0.04631000  1
  C  C4  1  0.76362000  0.41247000  0.99850000  1
  C  C5  1  0.73912000  0.41096000  0.94811000  1
  C  C6  1  0.76719000  0.47636000  0.94595000  1
  C  C7  1  0.55037000  0.25793000  0.99397000  1
  C  C8  1  0.61105000  0.26387000  0.03370000  1
  C  C9  1  0.67271000  0.29073000  0.03503000  1
  C  C10  1  0.67444000  0.31236000  0.99694000  1
  C  C11  1  0.61253000  0.30396000  0.95591000  1
  C  C12  1  0.55091000  0.27702000  0.95463000  1
  C  C13  1  0.78678000  0.20188000  0.92975000  1
  C  C14  1  0.83732000  0.25773000  0.98388000  1
  C  C15  1  0.82140000  0.30418000  0.00725000  1
  C  C16  1  0.75473000  0.29514000  0.97705000  1
  C  C17  1  0.70371000  0.23893000  0.92268000  1
  C  C18  1  0.72008000  0.19293000  0.89902000  1
  C  C19  1  0.62656000  0.45280000  0.37106000  1
  C  C20  1  0.63577000  0.46548000  0.42051000  1
  C  C21  1  0.61779000  0.40738000  0.43210000  1
  C  C22  1  0.59047000  0.33636000  0.39439000  1
  C  C23  1  0.57287000  0.32209000  0.34226000  1
  C  C24  1  0.59164000  0.38045000  0.33088000  1
  C  C25  1  0.40637000  0.15922000  0.40392000  1
  C  C26  1  0.39945000  0.15839000  0.35678000  1
  C  C27  1  0.46019000  0.19781000  0.35884000  1
  C  C28  1  0.52863000  0.23640000  0.40778000  1
  C  C29  1  0.53547000  0.23388000  0.45398000  1
  C  C30  1  0.47478000  0.19667000  0.45240000  1
  C  C31  1  0.69952000  0.18256000  0.38837000  1
  C  C32  1  0.62485000  0.14398000  0.35257000  1
  C  C33  1  0.58876000  0.17732000  0.35876000  1
  C  C34  1  0.62748000  0.24969000  0.40099000  1
  C  C35  1  0.70235000  0.29037000  0.43293000  1
  C  C36  1  0.73826000  0.25716000  0.42637000  1
  C  C37  1  0.37231000  0.56784000  0.99547000  1
  C  C38  1  0.41399000  0.62157000  0.04991000  1
  C  C39  1  0.45646000  0.69604000  0.06590000  1
  C  C40  1  0.45814000  0.71771000  0.02782000  1
  C  C41  1  0.41858000  0.66355000  0.97355000  1
  C  C42  1  0.37501000  0.58907000  0.95735000  1
  C  C43  1  0.65262000  0.86425000  0.01046000  1
  C  C44  1  0.58486000  0.85087000  0.97556000  1
  C  C45  1  0.53349000  0.82767000  0.98613000  1
  C  C46  1  0.54972000  0.81793000  0.03207000  1
  C  C47  1  0.61764000  0.83161000  0.06688000  1
  C  C48  1  0.66869000  0.85429000  0.05603000  1
  C  C49  1  0.37830000  0.89484000  0.03442000  1
  C  C50  1  0.44405000  0.92430000  0.08317000  1
  C  C51  1  0.48453000  0.89307000  0.08557000  1
  C  C52  1  0.45907000  0.83123000  0.03967000  1
  C  C53  1  0.39318000  0.80197000  0.99070000  1
  C  C54  1  0.35343000  0.83403000  0.98811000  1
  C  C55  1  0.29315000  0.53144000  0.48880000  1
  C  C56  1  0.32169000  0.59244000  0.53655000  1
  C  C57  1  0.35752000  0.66392000  0.54445000  1
  C  C58  1  0.36487000  0.67514000  0.50465000  1
  C  C59  1  0.33826000  0.61379000  0.45748000  1
  C  C60  1  0.30263000  0.54238000  0.44974000  1
  C  C61  1  0.55182000  0.81783000  0.47945000  1
  C  C62  1  0.47919000  0.78155000  0.43716000  1
  C  C63  1  0.42740000  0.75964000  0.44733000  1
  C  C64  1  0.44756000  0.77099000  0.49958000  1
  C  C65  1  0.52003000  0.80667000  0.54159000  1
  C  C66  1  0.57198000  0.83049000  0.53174000  1
  C  C67  1  0.24739000  0.81560000  0.46210000  1
  C  C68  1  0.31704000  0.86479000  0.50959000  1
  C  C69  1  0.36584000  0.84305000  0.52463000  1
  C  C70  1  0.34557000  0.77203000  0.49240000  1
  C  C71  1  0.27622000  0.72351000  0.44374000  1
  C  C72  1  0.22726000  0.74502000  0.42913000  1
  C  C73  1  0.29882000  0.17847000  0.98948000  1
  C  C74  1  0.20394000  0.27796000  0.95984000  1
  C  C75  1  0.94324000  0.80298000  0.97580000  1
  C  C76  1  0.86703000  0.93292000  0.96900000  1
  C  C77  1  0.06667000  0.04448000  0.12775000  1
  C  C78  1  0.94266000  0.08105000  0.94875000  1
  C  C79  1  0.08198000  0.02349000  0.80272000  1
  C  C80  1  0.17398000  0.97358000  0.97228000  1
  C  C81  1  0.17915000  0.07923000  0.43034000  1
  C  C82  1  0.13414000  0.23632000  0.45175000  1
  C  C83  1  0.78478000  0.72968000  0.38729000  1
  C  C84  1  0.76660000  0.89465000  0.43785000  1
  C  C85  1  0.98159000  0.95856000  0.58509000  1
  C  C86  1  0.87186000  0.06094000  0.44185000  1
  C  C87  1  0.99025000  0.00428000  0.27244000  1
  C  C88  1  0.03494000  0.88960000  0.40036000  1
  C  C89  1  0.01259000  0.96403000  0.63930000  1
  C  C90  1  0.96970000  0.91852000  0.65099000  1
  C  C91  1  0.99776000  0.93461000  0.70500000  1
  C  C92  1  0.06283000  0.00035000  0.74750000  1
  C  C93  1  0.10579000  0.04598000  0.73621000  1
  C  C94  1  0.08188000  0.02490000  0.68212000  1
  C  C95  1  0.89179000  0.85752000  0.60746000  1
  C  C96  1  0.17674000  0.11764000  0.78133000  1
  C  C97  1  0.84090000  0.87757000  0.61281000  1
  C  C98  1  0.23705000  0.10402000  0.80619000  1
  C  C99  1  0.84670000  0.94425000  0.60477000  1
  C  C100  1  0.30858000  0.17620000  0.85137000  1
  C  C101  1  0.04884000  0.03554000  0.16580000  1
  C  C102  1  0.09648000  0.03901000  0.21419000  1
  C  C103  1  0.07671000  0.03063000  0.24912000  1
  C  C104  1  0.01045000  0.01814000  0.23644000  1
  C  C105  1  0.96202000  0.01237000  0.18733000  1
  C  C106  1  0.98247000  0.02297000  0.15314000  1
  C  C107  1  0.16945000  0.05368000  0.23025000  1
  C  C108  1  0.88843000  0.99512000  0.17089000  1
  C  C109  1  0.17535000  0.98710000  0.23018000  1
  C  C110  1  0.88978000  0.06626000  0.19104000  1
  C  C111  1  0.12749000  0.92104000  0.17343000  1
  C  C112  1  0.82182000  0.05050000  0.18713000  1
  C  C113  1  0.25224000  0.45596000  0.47928000  1
  C  C114  1  0.17701000  0.41557000  0.44772000  1
  C  C115  1  0.13895000  0.34389000  0.43891000  1
  C  C116  1  0.17533000  0.31204000  0.46165000  1
  C  C117  1  0.25083000  0.35252000  0.49307000  1
  C  C118  1  0.28870000  0.42418000  0.50181000  1
  C  C119  1  0.60634000  0.83752000  0.46826000  1
  C  C120  1  0.62039000  0.89040000  0.45066000  1
  C  C121  1  0.67128000  0.90697000  0.43931000  1
  C  C122  1  0.71112000  0.87412000  0.44798000  1
  C  C123  1  0.69585000  0.82003000  0.46447000  1
  C  C124  1  0.64414000  0.80254000  0.47486000  1
  C  C125  1  0.19497000  0.83737000  0.44746000  1
  C  C126  1  0.17333000  0.85267000  0.40392000  1
  C  C127  1  0.12117000  0.86992000  0.38901000  1
  C  C128  1  0.09020000  0.87214000  0.41720000  1
  C  C129  1  0.11271000  0.85821000  0.46137000  1
  C  C130  1  0.16495000  0.84092000  0.47631000  1
  C  C131  1  0.32267000  0.48999000  0.97805000  1
  C  C132  1  0.33672000  0.43540000  0.96301000  1
  C  C133  1  0.29346000  0.36397000  0.95250000  1
  C  C134  1  0.23793000  0.34714000  0.95889000  1
  C  C135  1  0.22194000  0.40064000  0.97156000  1
  C  C136  1  0.26390000  0.47147000  0.98064000  1
  C  C137  1  0.70451000  0.88220000  0.99671000  1
  C  C138  1  0.75471000  0.95600000  0.01514000  1
  C  C139  1  0.80747000  0.97202000  0.00572000  1
  C  C140  1  0.80888000  0.91480000  0.97608000  1
  C  C141  1  0.75644000  0.84073000  0.95549000  1
  C  C142  1  0.70529000  0.82500000  0.96649000  1
  C  C143  1  0.23316000  0.96606000  0.00462000  1
  C  C144  1  0.21856000  0.90245000  0.01069000  1
  C  C145  1  0.26877000  0.88239000  0.02456000  1
  C  C146  1  0.33357000  0.92522000  0.03218000  1
  C  C147  1  0.35106000  0.99271000  0.03142000  1
  C  C148  1  0.30125000  0.01341000  0.01864000  1
  C  C149  1  0.73479000  0.14150000  0.39503000  1
  C  C150  1  0.73836000  0.11095000  0.42983000  1
  C  C151  1  0.78162000  0.08287000  0.44338000  1
  C  C152  1  0.82107000  0.08377000  0.42200000  1
  C  C153  1  0.81584000  0.11223000  0.38567000  1
  C  C154  1  0.77243000  0.14070000  0.37221000  1
  C  C155  1  0.74049000  0.65277000  0.37384000  1
  C  C156  1  0.66637000  0.61879000  0.35005000  1
  C  C157  1  0.62822000  0.55058000  0.34593000  1
  C  C158  1  0.66284000  0.51560000  0.36487000  1
  C  C159  1  0.73513000  0.54655000  0.38456000  1
  C  C160  1  0.77358000  0.61483000  0.38900000  1
  C  C161  1  0.23398000  0.09580000  0.42015000  1
  C  C162  1  0.24694000  0.14426000  0.39897000  1
  C  C163  1  0.30186000  0.16276000  0.39220000  1
  C  C164  1  0.34276000  0.13141000  0.40458000  1
  C  C165  1  0.32644000  0.07884000  0.42215000  1
  C  C166  1  0.27307000  0.06238000  0.43084000  1
  C  C167  1  0.80316000  0.15090000  0.90666000  1
  C  C168  1  0.77979000  0.08263000  0.90641000  1
  C  C169  1  0.81954000  0.05051000  0.90945000  1
  C  C170  1  0.88393000  0.08783000  0.91522000  1
  C  C171  1  0.89889000  0.14753000  0.90451000  1
  C  C172  1  0.85796000  0.17865000  0.89978000  1
  C  C173  1  0.91550000  0.73819000  0.98250000  1
  C  C174  1  0.88744000  0.73652000  0.01304000  1
  C  C175  1  0.85680000  0.67238000  0.01613000  1
  C  C176  1  0.85755000  0.61115000  0.99145000  1
  C  C177  1  0.89096000  0.61530000  0.96457000  1
  C  C178  1  0.91798000  0.67796000  0.95900000  1
  C  C179  1  0.48808000  0.23679000  0.99581000  1
  C  C180  1  0.43239000  0.16230000  0.96819000  1
  C  C181  1  0.37147000  0.14366000  0.96750000  1
  C  C182  1  0.36588000  0.19882000  0.99473000  1
  C  C183  1  0.42221000  0.27348000  0.02292000  1
  C  C184  1  0.48301000  0.29190000  0.02351000  1
  N  N1  1  0.74048000  0.34515000  0.00180000  1
  N  N2  1  0.59166000  0.28278000  0.41228000  1
  N  N3  1  0.49822000  0.79539000  0.04458000  1
  N  N4  1  0.39507000  0.74884000  0.51108000  1
  Cl  Cl1  1  0.12981000  0.45448000  0.41943000  1
  Cl  Cl2  1  0.29875000  0.31332000  0.51981000  1
  Cl  Cl3  1  0.57605000  0.93769000  0.44401000  1
  Cl  Cl4  1  0.73749000  0.77030000  0.46909000  1
  Cl  Cl5  1  0.21165000  0.85111000  0.36801000  1
  Cl  Cl6  1  0.07419000  0.85976000  0.49716000  1
  Cl  Cl7  1  0.41074000  0.45676000  0.96032000  1
  Cl  Cl8  1  0.14980000  0.37978000  0.97661000  1
  Cl  Cl9  1  0.75079000  0.02866000  0.04858000  1
  Cl  Cl10  1  0.75464000  0.76689000  0.91668000  1
  Cl  Cl11  1  0.13639000  0.84605000  0.99914000  1
  Cl  Cl12  1  0.43320000  0.04960000  0.04310000  1
  Cl  Cl13  1  0.69219000  0.11181000  0.45952000  1
  Cl  Cl14  1  0.86712000  0.11766000  0.35988000  1
  Cl  Cl15  1  0.62116000  0.66243000  0.32805000  1
  Cl  Cl16  1  0.77888000  0.50148000  0.40581000  1
  Cl  Cl17  1  0.19458000  0.18204000  0.38041000  1
  Cl  Cl18  1  0.37106000  0.03191000  0.43201000  1
  Cl  Cl19  1  0.70637000  0.04170000  0.90924000  1
  Cl  Cl20  1  0.97354000  0.18878000  0.90313000  1
  Cl  Cl21  1  0.89262000  0.81530000  0.04917000  1
  Cl  Cl22  1  0.90311000  0.54444000  0.94054000  1
  Cl  Cl23  1  0.43722000  0.09199000  0.93270000  1
  Cl  Cl24  1  0.41581000  0.34495000  0.05500000  1
  O  O1  1  0.11103000  0.99544000  0.83102000  1
  O  O2  1  0.06593000  0.06859000  0.82198000  1
  O  O3  1  0.12781000  0.92725000  0.92023000  1
  O  O4  1  0.04286000  0.01273000  0.88892000  1
  O  O5  1  0.29999000  0.20608000  0.03220000  1
  O  O6  1  0.23739000  0.13437000  0.94153000  1
  O  O7  1  0.11547000  0.13466000  0.97407000  1
  O  O8  1  0.17314000  0.03199000  0.99357000  1
  O  O9  1  0.16068000  0.21436000  0.91427000  1
  O  O10  1  0.22212000  0.28050000  0.00685000  1
  O  O11  1  0.95791000  0.03818000  0.92564000  1
  O  O12  1  0.01055000  0.85757000  0.01263000  1
  O  O13  1  0.90305000  0.80145000  0.93012000  1
  O  O14  1  0.85128000  0.90192000  0.92039000  1
  O  O15  1  0.93303000  0.96499000  0.01157000  1
  O  O16  1  0.01746000  0.93544000  0.94710000  1
  O  O17  1  0.07459000  0.99501000  0.10226000  1
  O  O18  1  0.06613000  0.09659000  0.11506000  1
  O  O19  1  0.97174000  0.10856000  0.00074000  1
  O  O20  1  0.08860000  0.05705000  0.03159000  1
  O  O21  1  0.99006000  0.94994000  0.28238000  1
  O  O22  1  0.98046000  0.05077000  0.29849000  1
  O  O23  1  0.98021000  0.85280000  0.34939000  1
  O  O24  1  0.93578000  0.97682000  0.35073000  1
  O  O25  1  0.19719000  0.11683000  0.47882000  1
  O  O26  1  0.11145000  0.03669000  0.38937000  1
  O  O27  1  0.02761000  0.08281000  0.44717000  1
  O  O28  1  0.04826000  0.95132000  0.43309000  1
  O  O29  1  0.07818000  0.18390000  0.40182000  1
  O  O30  1  0.15318000  0.22259000  0.49284000  1
  O  O31  1  0.87269000  0.01463000  0.40696000  1
  O  O32  1  0.84870000  0.77451000  0.43449000  1
  O  O33  1  0.76063000  0.75176000  0.35169000  1
  O  O34  1  0.74705000  0.87872000  0.38827000  1
  O  O35  1  0.83057000  0.91092000  0.47441000  1
  O  O36  1  0.89275000  0.88016000  0.39167000  1
  O  O37  1  0.96278000  0.90082000  0.54373000  1
  O  O38  1  0.97811000  0.01436000  0.57995000  1
  O  O39  1  0.90411000  0.07409000  0.49217000  1
  O  O40  1  0.98347000  0.98299000  0.48703000  1
