# Generated by REPEAT Assigner based on pymatgen
data_DB7-ddmof_21818
_audit_creation_date              2022-05-24
_audit_creation_method            REPEAT_Assigner
_cell_length_a                    14.723450
_cell_length_b                    7.315980
_cell_length_c                    32.321350
_cell_angle_alpha                 90.000230
_cell_angle_beta                  89.999830
_cell_angle_gamma                 90.064320
_cell_volume                      3481.539396
_symmetry_space_group_name_H-M    P1
_symmetry_Int_Tables_number       1
loop_
    _symmetry_equiv_pos_site_id
    _symmetry_equiv_pos_as_xyz
    1  x,y,z
loop_
    _atom_site_type_symbol
    _atom_site_label
    _atom_site_fract_x
    _atom_site_fract_y
    _atom_site_fract_z
    _atom_type_partial_charge
    C   C1    0.724010  0.741380  0.041870  0.958300
    O   O1    0.166430  0.993680  0.018470  -0.936563
    O   O2    0.999210  0.994520  0.034440  -0.805040
    C   C2    0.258470  0.669340  0.051900  0.757427
    C   C3    0.742570  0.269880  0.076670  0.657806
    O   O3    0.325810  0.742890  0.031320  -0.602415
    O   O4    0.182690  0.624850  0.032590  -0.518272
    O   O5    0.674640  0.213580  0.053420  -0.641035
    O   O6    0.811150  0.356560  0.059830  -0.520386
    O   O7    0.836900  0.043670  0.013850  -0.876422
    C   C4    0.267330  0.171240  0.083840  0.865221
    O   O8    0.334360  0.109390  0.060850  -0.705377
    O   O9    0.207410  0.282670  0.067840  -0.520510
    O   O10   0.660730  0.848060  0.026650  -0.666594
    O   O11   0.787560  0.681300  0.017010  -0.520545
    Co  Co1   0.627690  0.594810  0.476720  1.355388
    Co  Co2   0.444970  0.154100  0.500370  1.252552
    Co  Co3   0.415940  0.527640  0.478170  1.290171
    Co  Co4   0.659730  0.220420  0.497420  1.188393
    C   C5    0.725620  0.757310  0.548170  0.676851
    Co  Co5   0.837300  0.494660  0.497000  1.314359
    Co  Co6   0.234620  0.297590  0.504810  1.284559
    C   C6    0.828080  0.146910  0.450350  0.812324
    O   O12   0.193190  0.423280  0.450290  -0.646107
    O   O13   0.373680  0.318300  0.485990  -0.944598
    C   C7    0.253160  0.493150  0.424600  0.764346
    O   O14   0.509620  0.714800  0.463230  -0.688685
    O   O15   0.564870  0.025410  0.505230  -0.506696
    C   C8    0.292630  0.982740  0.455580  0.840942
    O   O16   0.537850  0.347290  0.465210  -0.810418
    C   C9    0.313910  0.602430  0.556150  0.710403
    C   C10   0.776820  0.663970  0.417070  0.872916
    C   C11   0.753890  0.344600  0.575570  0.915135
    O   O17   0.315110  0.606470  0.438310  -0.524546
    O   O18   0.849300  0.613480  0.438130  -0.677011
    O   O19   0.707930  0.739630  0.436170  -0.610850
    O   O20   0.221150  0.053390  0.473550  -0.618893
    O   O21   0.365110  0.946620  0.477790  -0.463694
    O   O22   0.240880  0.548870  0.535720  -0.639265
    O   O23   0.393400  0.610650  0.537720  -0.615761
    O   O24   0.829910  0.359300  0.554020  -0.756898
    O   O25   0.679990  0.273030  0.559200  -0.703493
    O   O26   0.700510  0.423790  0.482170  -0.956749
    C   C12   0.342530  0.181170  0.580360  0.674381
    O   O27   0.267950  0.152220  0.558610  -0.692116
    O   O28   0.421810  0.202700  0.562090  -0.666741
    O   O29   0.799280  0.742080  0.524930  -0.652003
    O   O30   0.647830  0.686980  0.535850  -0.578576
    O   O31   0.884630  0.255520  0.469940  -0.629006
    O   O32   0.761420  0.068670  0.470770  -0.439626
    C   C13   0.406840  0.989430  0.216000  -0.222020
    C   C14   0.328960  0.029930  0.192940  0.072770
    C   C15   0.243490  0.043150  0.212940  0.054187
    C   C16   0.237580  0.008450  0.256110  -0.018559
    C   C17   0.401830  0.970710  0.258830  -0.123032
    C   C18   0.318450  0.994380  0.279540  0.091247
    C   C19   0.335990  0.063420  0.150260  -0.028774
    C   C20   0.259620  0.120020  0.127800  -0.248687
    C   C21   0.167740  0.103570  0.190080  -0.086826
    C   C22   0.153430  0.975670  0.275770  -0.076804
    C   C23   0.227940  0.963890  0.342570  0.319333
    C   C24   0.313140  0.991950  0.323330  -0.055254
    C   C25   0.389370  0.031760  0.348130  -0.095297
    C   C26   0.382850  0.024460  0.391120  -0.151439
    C   C27   0.299430  0.985780  0.410160  -0.178264
    C   C28   0.221930  0.956920  0.385840  -0.142068
    C   C29   0.175410  0.136290  0.147810  -0.056279
    H   H1    0.116040  0.180890  0.130780  0.068248
    H   H2    0.104420  0.136570  0.205170  0.051894
    H   H3    0.401370  0.052430  0.134980  0.096251
    H   H4    0.471890  0.975230  0.200760  0.133388
    H   H5    0.461790  0.927820  0.275500  0.097560
    H   H6    0.091960  0.958310  0.257950  0.119036
    H   H7    0.451550  0.081460  0.334440  0.097709
    H   H8    0.442090  0.056050  0.409690  0.168620
    H   H9    0.157000  0.930530  0.400570  0.128268
    C   C30   0.149400  0.949130  0.318440  -0.299016
    H   H10   0.084660  0.919130  0.332860  0.108238
    C   C31   0.338610  0.182530  0.626020  0.084569
    C   C32   0.388300  0.486370  0.286460  -0.333470
    C   C33   0.310830  0.481160  0.311300  0.283981
    C   C34   0.223670  0.482700  0.293110  0.046723
    C   C35   0.215380  0.515300  0.249780  -0.044759
    C   C36   0.380930  0.502610  0.243760  -0.134100
    C   C37   0.294940  0.516450  0.224620  0.131096
    C   C38   0.319680  0.477490  0.354390  -0.125537
    C   C39   0.242540  0.470640  0.379690  -0.136907
    C   C40   0.147110  0.452850  0.318740  -0.186387
    C   C41   0.131490  0.566350  0.232100  0.007761
    C   C42   0.201760  0.602800  0.164860  0.486763
    C   C43   0.286670  0.548480  0.181230  -0.036000
    C   C44   0.360590  0.524240  0.153760  -0.119220
    C   C45   0.352430  0.573250  0.112190  -0.163496
    C   C46   0.268730  0.631390  0.096390  -0.061983
    C   C47   0.193700  0.646550  0.122770  -0.294859
    C   C48   0.156510  0.451470  0.361770  -0.099562
    H   H11   0.096770  0.437190  0.381060  0.132161
    H   H12   0.081320  0.424660  0.305750  0.094889
    H   H13   0.386700  0.482550  0.368350  0.064034
    H   H14   0.455070  0.481170  0.300420  0.159871
    H   H15   0.442660  0.517160  0.226220  0.121312
    H   H16   0.072030  0.586170  0.251030  0.096149
    H   H17   0.421530  0.454170  0.163360  0.094103
    H   H18   0.409910  0.554850  0.091680  0.172749
    H   H19   0.128860  0.691560  0.110480  0.139512
    C   C49   0.125430  0.610800  0.190410  -0.500444
    H   H20   0.060830  0.654020  0.177980  0.183442
    C   C50   0.668180  0.092920  0.317140  -0.208286
    C   C51   0.747800  0.129890  0.339190  0.334506
    C   C52   0.828610  0.174090  0.317810  0.104524
    C   C53   0.825000  0.207230  0.274320  -0.001578
    C   C54   0.665830  0.111450  0.274260  -0.259771
    C   C55   0.742020  0.178520  0.252530  0.111336
    C   C56   0.748090  0.118210  0.382550  -0.143939
    C   C57   0.829440  0.139410  0.404710  -0.208683
    C   C58   0.911380  0.175890  0.340080  -0.222606
    C   C59   0.901490  0.271500  0.252410  -0.132379
    C   C60   0.821190  0.242920  0.187510  0.351326
    C   C61   0.739180  0.209170  0.208910  -0.051549
    C   C62   0.656460  0.215660  0.186530  -0.103244
    C   C63   0.657280  0.231240  0.143310  -0.236620
    C   C64   0.739920  0.248620  0.122060  0.087926
    C   C65   0.821530  0.253370  0.144330  -0.288961
    C   C66   0.911190  0.163140  0.383200  -0.029159
    H   H21   0.975010  0.168980  0.399840  0.095215
    H   H22   0.975890  0.176010  0.324320  0.131138
    H   H23   0.684860  0.095680  0.399030  0.093832
    H   H24   0.608650  0.042760  0.333170  0.111597
    H   H25   0.606060  0.065440  0.258050  0.146398
    H   H26   0.960060  0.324130  0.268330  0.091653
    H   H27   0.591930  0.222290  0.202340  0.081992
    H   H28   0.593530  0.236170  0.126620  0.165363
    H   H29   0.885480  0.269530  0.128040  0.084522
    C   C67   0.901040  0.277500  0.209480  -0.330561
    H   H30   0.962050  0.319480  0.193280  0.206240
    C   C68   0.730250  0.846730  0.589300  -0.108339
    H   H31   0.588960  0.927710  0.589600  0.129062
    C   C69   0.752530  0.390460  0.620060  -0.027938
    H   H32   0.611240  0.470630  0.619360  0.098030
    C   C70   0.307800  0.652250  0.600360  0.070843
    C   C71   0.615730  0.702430  0.185880  -0.316146
    C   C72   0.687550  0.724510  0.158020  0.331738
    C   C73   0.778140  0.732270  0.172820  -0.027715
    C   C74   0.794720  0.723950  0.216320  0.013669
    C   C75   0.632450  0.681680  0.228050  -0.063693
    C   C76   0.722210  0.678960  0.243350  0.020517
    C   C77   0.669900  0.734310  0.115250  -0.133871
    C   C78   0.741850  0.743380  0.086950  -0.216654
    C   C79   0.849820  0.736340  0.143860  -0.062504
    C   C80   0.879720  0.773190  0.233450  -0.083106
    C   C81   0.826330  0.697670  0.302480  0.115676
    C   C82   0.740370  0.649890  0.286110  0.099421
    C   C83   0.675320  0.570710  0.312600  -0.094815
    C   C84   0.689610  0.568000  0.355220  -0.266571
    C   C85   0.771020  0.633870  0.372060  -0.092253
    C   C86   0.841210  0.690230  0.345570  -0.169597
    C   C87   0.831620  0.746270  0.101560  -0.139225
    H   H33   0.887830  0.750300  0.079980  0.145677
    H   H34   0.919350  0.721050  0.153540  0.085731
    H   H35   0.600490  0.729210  0.104040  0.073910
    H   H36   0.546320  0.700480  0.174790  0.118157
    H   H37   0.575230  0.680070  0.248940  0.097324
    H   H38   0.931730  0.835970  0.214620  0.066940
    H   H39   0.615770  0.503820  0.300300  0.086320
    H   H40   0.637170  0.513820  0.375320  0.144717
    H   H41   0.905380  0.735860  0.358450  0.112710
    C   C88   0.895170  0.758300  0.275960  -0.194154
    H   H42   0.960340  0.798760  0.288420  0.120696
    Co  Co7   0.698640  0.087150  0.996590  1.280182
    Co  Co8   0.888170  0.854510  0.997370  1.203847
    Co  Co9   0.901640  0.228120  0.021370  1.252065
    H   H43   0.481260  0.246470  0.633140  0.208350
    H   H44   0.193930  0.133760  0.629420  0.151566
    H   H45   0.894920  0.336300  0.630430  0.183840
    H   H46   0.449010  0.733140  0.605140  0.091438
    H   H47   0.164340  0.594690  0.605690  0.088777
    C   C89   0.255790  0.157240  0.646840  -0.271273
    C   C90   0.417750  0.218870  0.648810  -0.240926
    H   H48   0.873820  0.799720  0.598130  0.078176
    C   C91   0.830710  0.373050  0.644590  -0.353532
    C   C92   0.670430  0.444760  0.638390  -0.092020
    C   C93   0.226100  0.630260  0.622120  -0.227294
    C   C94   0.386550  0.706400  0.621750  -0.045237
    C   C95   0.650140  0.911510  0.607820  0.043163
    C   C96   0.810890  0.842940  0.612550  -0.081846
    H   H49   0.953250  0.848390  0.663800  0.146998
    Co  Co10  0.307960  0.993200  0.003080  1.278473
    H   H50   0.106440  0.139310  0.693610  0.096794
    C   C97   0.808840  0.882560  0.655220  0.227903
    H   H51   0.969280  0.366330  0.697870  0.110376
    C   C98   0.252350  0.168770  0.690180  0.170445
    C   C99   0.825430  0.400780  0.687630  0.269117
    C   C100  0.664430  0.469510  0.681030  -0.185586
    C   C101  0.224440  0.650720  0.665290  0.282488
    C   C102  0.168560  0.163930  0.710730  -0.175304
    C   C103  0.333440  0.192470  0.713070  0.155061
    C   C104  0.329330  0.197870  0.756800  0.016194
    C   C105  0.164070  0.195460  0.753270  -0.127932
    C   C106  0.244350  0.223310  0.776360  -0.034013
    C   C107  0.415270  0.225320  0.691790  -0.142519
    H   H52   0.475950  0.265840  0.708160  0.075153
    H   H53   0.098720  0.186790  0.768410  0.115290
    C   C108  0.888840  0.877400  0.678610  -0.304584
    C   C109  0.725130  0.921270  0.674800  0.139148
    C   C110  0.720970  0.928710  0.718760  -0.093656
    C   C111  0.886380  0.906390  0.721300  -0.126418
    C   C112  0.802940  0.937890  0.741750  0.019328
    C   C113  0.647880  0.951690  0.650040  -0.260591
    H   H54   0.586840  0.009840  0.663060  0.109651
    H   H55   0.948730  0.891310  0.738610  0.110318
    C   C114  0.904100  0.395480  0.711930  -0.244512
    C   C115  0.740330  0.435470  0.706420  0.030382
    C   C116  0.734080  0.442190  0.750240  0.202020
    C   C117  0.899480  0.427470  0.754450  -0.066115
    C   C118  0.814810  0.455870  0.774040  -0.104779
    H   H56   0.602290  0.524500  0.693790  0.097293
    H   H57   0.961120  0.415710  0.772410  0.105558
    C   C119  0.142190  0.637420  0.686800  -0.282085
    C   C120  0.306100  0.684980  0.687110  -0.022832
    C   C121  0.304520  0.691240  0.730920  -0.003832
    C   C122  0.139540  0.665690  0.729420  -0.160729
    C   C123  0.220000  0.704810  0.751460  0.076566
    C   C124  0.385680  0.724100  0.664650  -0.181133
    C   C125  0.384290  0.668160  0.754580  -0.087324
    H   H58   0.445780  0.775370  0.679990  0.094966
    H   H59   0.079900  0.605710  0.670440  0.162733
    H   H60   0.447430  0.628140  0.740070  0.114771
    H   H61   0.589260  0.385130  0.753450  0.170362
    H   H62   0.075860  0.646030  0.745440  0.112712
    C   C126  0.406870  0.164700  0.781260  -0.165148
    H   H63   0.469290  0.117290  0.767390  0.092859
    H   H64   0.107130  0.380660  0.820510  0.107778
    C   C127  0.638000  0.904150  0.740100  -0.075246
    H   H65   0.575950  0.875120  0.723520  0.105305
    H   H66   0.935440  0.064390  0.793560  0.110663
    C   C128  0.650240  0.415290  0.770670  -0.296814
    C   C129  0.798700  0.958280  0.785490  0.172071
    C   C130  0.808160  0.473200  0.817740  0.096623
    H   H67   0.080030  0.844770  0.796270  0.092408
    C   C131  0.874650  0.015240  0.808670  -0.227789
    C   C132  0.218610  0.743330  0.794390  0.104242
    C   C133  0.381240  0.682150  0.797610  -0.241606
    C   C134  0.241960  0.259990  0.819450  0.158358
    C   C135  0.164240  0.333560  0.838640  -0.263628
    H   H68   0.942990  0.585450  0.828340  0.100713
    C   C136  0.645920  0.411160  0.813720  -0.213651
    H   H69   0.442680  0.660210  0.815380  0.110583
    C   C137  0.139780  0.809370  0.813970  -0.154263
    C   C138  0.882980  0.525900  0.842220  -0.209823
    C   C139  0.724370  0.436220  0.837440  0.225617
    C   C140  0.299740  0.726370  0.817620  0.203408
    C   C141  0.402260  0.179040  0.824180  -0.181297
    C   C142  0.635910  0.899950  0.783270  -0.188969
    H   H70   0.581270  0.386110  0.828670  0.131170
    C   C143  0.715250  0.928380  0.806200  0.164274
    C   C144  0.321260  0.231870  0.843420  0.102433
    C   C145  0.870400  0.020600  0.851750  -0.125373
    H   H71   0.929290  0.066390  0.868970  0.120639
    H   H72   0.461940  0.148460  0.842530  0.137841
    C   C146  0.161980  0.356370  0.881440  0.029707
    H   H73   0.101060  0.409890  0.895750  0.073115
    H   H74   0.572070  0.874760  0.798920  0.108019
    C   C147  0.879130  0.507110  0.885200  -0.067211
    C   C148  0.139510  0.841820  0.856350  -0.244603
    C   C149  0.720930  0.417370  0.880680  -0.139297
    C   C150  0.298530  0.756290  0.860550  -0.286609
    H   H75   0.078060  0.892450  0.870700  0.199168
    C   C151  0.712270  0.927740  0.849780  -0.321664
    H   H76   0.938380  0.540640  0.903560  0.155026
    C   C152  0.318190  0.254040  0.886520  -0.060894
    C   C153  0.790730  0.968720  0.872660  0.043788
    C   C154  0.800120  0.439700  0.904320  -0.026124
    H   H77   0.658310  0.374660  0.895500  0.076333
    C   C155  0.218230  0.813250  0.880070  0.174487
    H   H78   0.359920  0.736800  0.878540  0.161573
    C   C156  0.237220  0.307740  0.905840  -0.142987
    H   H79   0.377670  0.223110  0.905030  0.053598
    H   H80   0.649590  0.893810  0.865660  0.177508
    C   C157  0.792600  0.949120  0.918290  0.839384
    C   C158  0.226120  0.286870  0.951020  0.800603
    C   C159  0.805030  0.365530  0.946840  0.643303
    C   C160  0.215330  0.843600  0.925230  0.613082
    O   O33   0.715990  0.947220  0.939950  -0.760642
    O   O34   0.871850  0.925170  0.936390  -0.704918
    O   O35   0.136340  0.876530  0.942500  -0.674575
    O   O36   0.296580  0.247330  0.974550  -0.639223
    O   O37   0.143810  0.287840  0.966690  -0.587090
    O   O38   0.884870  0.320940  0.962170  -0.545988
    O   O39   0.291860  0.855200  0.946560  -0.671468
    O   O40   0.729850  0.338510  0.968450  -0.624977
    Co  Co11  0.114960  0.194640  0.024930  1.259603
    Co  Co12  0.104340  0.817380  0.002590  1.271474
    O   O41   0.990230  0.675170  0.991030  -0.553927
    O   O42   0.013430  0.366390  0.037970  -0.634568
