# Generated by REPEAT Assigner based on pymatgen
data_DB7-ddmof_3480
_audit_creation_date              2022-05-24
_audit_creation_method            REPEAT_Assigner
_cell_length_a                    22.120320
_cell_length_b                    23.550650
_cell_length_c                    33.432840
_cell_angle_alpha                 60.949860
_cell_angle_beta                  118.791850
_cell_angle_gamma                 133.271480
_cell_volume                      10778.877817
_symmetry_space_group_name_H-M    P1
_symmetry_Int_Tables_number       1
loop_
    _symmetry_equiv_pos_site_id
    _symmetry_equiv_pos_as_xyz
    1  x,y,z
loop_
    _atom_site_type_symbol
    _atom_site_label
    _atom_site_fract_x
    _atom_site_fract_y
    _atom_site_fract_z
    _atom_type_partial_charge
    C   C1    0.729210  0.276590  0.063890  0.252089
    C   C2    0.643310  0.232090  0.063760  -0.265024
    C   C3    0.618960  0.260570  0.077210  0.253104
    C   C4    0.679830  0.331930  0.091620  -0.250923
    C   C5    0.763520  0.380360  0.087820  0.224629
    C   C6    0.789490  0.352490  0.074690  -0.265086
    H   H1    0.595910  0.175360  0.053590  0.169341
    H   H2    0.660320  0.353280  0.102180  0.174773
    H   H3    0.855240  0.388960  0.073010  0.179029
    C   C7    0.729210  0.276580  0.563900  0.253567
    C   C8    0.789490  0.352490  0.574680  -0.265693
    C   C9    0.763510  0.380380  0.587800  0.225112
    C   C10   0.679820  0.331930  0.591610  -0.251587
    C   C11   0.618970  0.260560  0.577220  0.253505
    C   C12   0.643320  0.232080  0.563770  -0.265135
    H   H4    0.855240  0.388960  0.573000  0.179268
    H   H5    0.660320  0.353290  0.602170  0.174804
    H   H6    0.595910  0.175340  0.553610  0.169580
    C   C13   0.268340  0.663690  0.169900  0.239185
    C   C14   0.210520  0.588560  0.157990  -0.277588
    C   C15   0.242160  0.559140  0.150900  0.264811
    C   C16   0.329120  0.604570  0.154890  -0.276304
    C   C17   0.386190  0.676630  0.168190  0.273039
    C   C18   0.356410  0.706650  0.175700  -0.270756
    H   H7    0.142620  0.554110  0.154110  0.182682
    H   H8    0.353050  0.582140  0.149040  0.181466
    H   H9    0.401300  0.763660  0.185350  0.170781
    C   C19   0.268330  0.663690  0.669890  0.240079
    C   C20   0.356410  0.706660  0.675690  -0.270149
    C   C21   0.386180  0.676640  0.668170  0.273294
    C   C22   0.329110  0.604590  0.654850  -0.276433
    C   C23   0.242150  0.559160  0.650870  0.264125
    C   C24   0.210510  0.588560  0.657970  -0.277830
    H   H10   0.401300  0.763660  0.685340  0.170828
    H   H11   0.353040  0.582170  0.648990  0.181491
    H   H12   0.142620  0.554110  0.654110  0.182801
    Co  Co1   0.042220  0.017970  0.048160  1.289038
    Co  Co2   0.956850  0.928190  0.176930  1.244787
    Co  Co3   0.974670  0.062750  0.091570  1.265872
    Co  Co4   0.022460  0.882280  0.132610  1.242511
    C   C25   0.209510  0.095660  0.036440  0.945591
    Co  Co5   0.100890  0.920130  0.053180  1.222374
    Co  Co6   0.904640  0.032220  0.171920  1.227502
    C   C26   0.966830  0.752360  0.097860  0.993617
    O   O1    0.802140  0.998350  0.115310  -0.631377
    O   O2    0.948620  0.005600  0.144880  -0.734707
    C   C27   0.814560  0.048180  0.073890  0.915810
    O   O3    0.018370  0.094800  0.037120  -0.556846
    O   O4    0.982650  0.852550  0.188230  -0.540409
    C   C28   0.797290  0.855330  0.198200  0.874805
    O   O5    0.975200  0.958190  0.106000  -0.878839
    C   C29   0.039010  0.195420  0.126660  1.079215
    C   C30   0.989200  0.949570  0.966620  0.931954
    C   C31   0.185160  0.900860  0.152080  0.995150
    O   O6    0.864550  0.061380  0.054250  -0.601530
    O   O7    0.994380  0.891420  0.998740  -0.683100
    O   O8    0.994030  0.999770  0.978670  -0.619023
    O   O9    0.845860  0.917870  0.215040  -0.684943
    O   O10   0.829080  0.845830  0.179160  -0.543053
    O   O11   0.961400  0.149520  0.131790  -0.725375
    O   O12   0.063810  0.169100  0.114580  -0.681577
    O   O13   0.200640  0.950860  0.111240  -0.667299
    O   O14   0.137810  0.893070  0.170720  -0.662975
    O   O15   0.046030  0.937900  0.078620  -0.739202
    C   C32   0.023120  0.008050  0.255740  0.978216
    O   O16   0.014840  0.064590  0.223870  -0.712723
    O   O17   0.022640  0.961120  0.243330  -0.668090
    O   O18   0.163640  0.038590  0.015220  -0.707745
    O   O19   0.173240  0.096920  0.057400  -0.649976
    O   O20   0.043790  0.800960  0.090810  -0.684855
    O   O21   0.941820  0.773870  0.113680  -0.591361
    Co  Co7   0.042220  0.017970  0.548160  1.293653
    Co  Co8   0.956840  0.928190  0.676920  1.250986
    Co  Co9   0.974670  0.062750  0.591570  1.269004
    Co  Co10  0.022460  0.882280  0.632610  1.246863
    C   C33   0.209520  0.095670  0.536440  0.953157
    Co  Co11  0.100900  0.920130  0.553180  1.238147
    Co  Co12  0.904640  0.032220  0.671910  1.240417
    C   C34   0.966830  0.752360  0.597860  0.989837
    O   O22   0.802140  0.998350  0.615310  -0.638742
    O   O23   0.948620  0.005600  0.644880  -0.728556
    C   C35   0.814560  0.048180  0.573890  0.918377
    O   O24   0.018370  0.094800  0.537120  -0.550059
    O   O25   0.982650  0.852550  0.688230  -0.535162
    C   C36   0.797280  0.855330  0.698190  0.879994
    O   O26   0.975200  0.958190  0.606000  -0.900295
    C   C37   0.039010  0.195420  0.626660  1.076199
    C   C38   0.989210  0.949580  0.466620  0.933459
    C   C39   0.185160  0.900860  0.652080  0.993701
    O   O27   0.864550  0.061380  0.554250  -0.604019
    O   O28   0.994390  0.891430  0.498740  -0.690108
    O   O29   0.994030  0.999780  0.478670  -0.622469
    O   O30   0.845850  0.917860  0.715040  -0.691671
    O   O31   0.829080  0.845830  0.679150  -0.547626
    O   O32   0.961400  0.149520  0.631790  -0.727699
    O   O33   0.063810  0.169100  0.614590  -0.680151
    O   O34   0.200640  0.950860  0.611240  -0.671919
    O   O35   0.137810  0.893070  0.670730  -0.665435
    O   O36   0.046030  0.937900  0.578620  -0.732222
    C   C40   0.023120  0.008050  0.755740  0.978996
    O   O37   0.014830  0.064580  0.723870  -0.717043
    O   O38   0.022630  0.961120  0.743330  -0.670046
    O   O39   0.163650  0.038600  0.515220  -0.716803
    O   O40   0.173240  0.096920  0.557400  -0.654322
    O   O41   0.043800  0.800970  0.590810  -0.687587
    O   O42   0.941820  0.773870  0.613680  -0.593854
    C   C41   0.994910  0.967230  0.919460  -0.249274
    C   C42   0.002420  0.975130  0.882690  0.097146
    C   C43   0.012090  0.981800  0.840450  0.048179
    C   C44   0.019020  0.989900  0.803440  -0.214588
    C   C45   0.019030  0.989910  0.303430  -0.216145
    C   C46   0.012100  0.981810  0.340460  0.048841
    C   C47   0.002430  0.975140  0.382690  0.095788
    C   C48   0.994920  0.967230  0.419460  -0.247262
    C   C49   0.188340  0.480490  0.642270  -0.112922
    C   C50   0.155610  0.417110  0.636110  -0.040480
    C   C51   0.122910  0.343620  0.630490  0.136889
    C   C52   0.090890  0.278290  0.627470  -0.320837
    C   C53   0.475670  0.717990  0.675030  -0.098370
    C   C54   0.548700  0.746920  0.679920  -0.060192
    C   C55   0.633350  0.778930  0.685390  0.146201
    C   C56   0.707130  0.809810  0.690630  -0.282350
    C   C57   0.238310  0.700500  0.672850  -0.081005
    C   C58   0.220590  0.738340  0.674250  -0.083971
    C   C59   0.205400  0.789430  0.673010  0.188926
    C   C60   0.195250  0.837810  0.667380  -0.347725
    C   C61   0.188340  0.480480  0.142290  -0.114624
    C   C62   0.155620  0.417110  0.136120  -0.040308
    C   C63   0.122910  0.343620  0.130500  0.136107
    C   C64   0.090890  0.278290  0.127470  -0.322747
    C   C65   0.707130  0.809810  0.190640  -0.281347
    C   C66   0.633360  0.778930  0.185410  0.145848
    C   C67   0.548710  0.746920  0.179940  -0.060273
    C   C68   0.475680  0.717980  0.175050  -0.098059
    C   C69   0.238310  0.700500  0.172860  -0.079544
    C   C70   0.220590  0.738340  0.174250  -0.085801
    C   C71   0.205400  0.789430  0.173010  0.192458
    C   C72   0.195250  0.837800  0.167380  -0.351203
    C   C73   0.755660  0.240240  0.557420  -0.094237
    C   C74   0.772300  0.203350  0.554150  -0.081080
    C   C75   0.787890  0.153860  0.554180  0.191461
    C   C76   0.799910  0.107400  0.559300  -0.340212
    C   C77   0.817550  0.461770  0.591750  -0.071426
    C   C78   0.852070  0.527650  0.594820  -0.088707
    C   C79   0.886690  0.603450  0.597550  0.195026
    C   C80   0.918660  0.669740  0.598640  -0.358735
    C   C81   0.530720  0.222810  0.570810  -0.091246
    C   C82   0.458340  0.196400  0.565020  -0.054618
    C   C83   0.373840  0.166970  0.557080  0.119827
    C   C84   0.299840  0.138250  0.548680  -0.249122
    C   C85   0.799910  0.107390  0.059300  -0.341484
    C   C86   0.787890  0.153860  0.054180  0.194137
    C   C87   0.772290  0.203350  0.054150  -0.082935
    C   C88   0.755650  0.240240  0.057420  -0.092071
    C   C89   0.918660  0.669730  0.098640  -0.364536
    C   C90   0.886690  0.603440  0.097560  0.198240
    C   C91   0.852080  0.527640  0.094830  -0.090821
    C   C92   0.817560  0.461760  0.091770  -0.070981
    C   C93   0.530720  0.222820  0.070790  -0.091062
    C   C94   0.458340  0.196420  0.065000  -0.054516
    C   C95   0.373840  0.166980  0.057070  0.118627
    C   C96   0.299830  0.138250  0.048670  -0.246203
