# Generated by REPEAT Assigner based on pymatgen
data_DB7-ddmof_6321
_audit_creation_date              2022-05-24
_audit_creation_method            REPEAT_Assigner
_cell_length_a                    17.460060
_cell_length_b                    18.453720
_cell_length_c                    31.951990
_cell_angle_alpha                 60.841870
_cell_angle_beta                  118.901120
_cell_angle_gamma                 133.245920
_cell_volume                      6365.401601
_symmetry_space_group_name_H-M    P1
_symmetry_Int_Tables_number       1
loop_
    _symmetry_equiv_pos_site_id
    _symmetry_equiv_pos_as_xyz
    1  x,y,z
loop_
    _atom_site_type_symbol
    _atom_site_label
    _atom_site_fract_x
    _atom_site_fract_y
    _atom_site_fract_z
    _atom_type_partial_charge
    C   C1    0.707080  0.254160  0.041780  0.853549
    N   N1    0.600240  0.211550  0.030410  -0.814390
    C   C2    0.567870  0.253420  0.037140  1.051069
    N   N2    0.641260  0.337380  0.055100  -0.801742
    C   C3    0.747750  0.382620  0.065320  0.956444
    N   N3    0.781860  0.341050  0.059030  -0.743508
    C   C4    0.719250  0.319670  0.501860  0.960294
    N   N4    0.783620  0.415460  0.509250  -0.768389
    C   C5    0.737440  0.455210  0.506410  0.917260
    N   N5    0.629300  0.401740  0.494100  -0.760507
    C   C6    0.567050  0.301760  0.495680  0.951670
    N   N6    0.611000  0.260610  0.497950  -0.794454
    C   C7    0.291200  0.660900  0.163700  0.893888
    N   N7    0.218480  0.574050  0.146310  -0.753355
    C   C8    0.255330  0.531560  0.142800  0.974955
    N   N8    0.362170  0.575870  0.155860  -0.790484
    C   C9    0.433430  0.660400  0.173290  1.023823
    N   N9    0.398440  0.703050  0.177320  -0.828001
    C   C10   0.274540  0.653910  0.681950  0.902988
    N   N10   0.211900  0.561730  0.670540  -0.741209
    C   C11   0.261820  0.527100  0.671450  0.950978
    N   N11   0.370420  0.583780  0.682950  -0.770984
    C   C12   0.430860  0.678890  0.688280  0.936554
    N   N12   0.383720  0.711880  0.690340  -0.798576
    Co  Co1   0.041940  0.006970  0.031710  1.326950
    Co  Co2   0.955540  0.907420  0.172130  1.253201
    Co  Co3   0.972010  0.075450  0.080790  1.296740
    Co  Co4   0.026590  0.839680  0.123020  1.281496
    C   C13   0.248190  0.103120  0.014140  1.118806
    Co  Co5   0.112720  0.878390  0.036770  1.220465
    Co  Co6   0.888910  0.040880  0.166350  1.245531
    C   C14   0.946560  0.668640  0.087050  0.898254
    O   O1    0.758180  0.997450  0.107620  -0.635422
    O   O2    0.943370  0.005540  0.137870  -0.743885
    C   C15   0.773310  0.061760  0.064430  0.911286
    O   O3    0.018010  0.109230  0.021740  -0.572819
    O   O4    0.986740  0.809620  0.183360  -0.557866
    C   C16   0.754070  0.814760  0.194590  0.760830
    O   O5    0.972430  0.941010  0.096800  -0.938794
    C   C17   0.057360  0.247700  0.117130  0.982199
    C   C18   0.969280  0.914260  0.946500  0.834167
    C   C19   0.227070  0.857590  0.138810  0.937630
    O   O6    0.834380  0.077640  0.042900  -0.608558
    O   O7    0.976140  0.840200  0.980630  -0.638145
    O   O8    0.973730  0.977830  0.958990  -0.627348
    O   O9    0.814580  0.895000  0.211640  -0.609401
    O   O10   0.794420  0.802630  0.174760  -0.495945
    O   O11   0.960310  0.190270  0.123670  -0.710953
    O   O12   0.086530  0.212820  0.103760  -0.662017
    O   O13   0.242960  0.921090  0.095700  -0.653313
    O   O14   0.170270  0.847420  0.160420  -0.657782
    O   O15   0.049230  0.905840  0.064690  -0.741657
    C   C20   0.035600  0.008500  0.255380  0.717923
    O   O16   0.028510  0.081990  0.220900  -0.636261
    O   O17   0.032670  0.945550  0.243230  -0.613138
    O   O18   0.188820  0.026800  0.994280  -0.812005
    O   O19   0.206390  0.107330  0.037150  -0.730706
    O   O20   0.042340  0.728040  0.078500  -0.660313
    O   O21   0.919510  0.698700  0.104840  -0.582629
    Co  Co7   0.067150  0.037460  0.532710  1.310461
    Co  Co8   0.920000  0.917090  0.656510  1.293335
    Co  Co9   0.008410  0.118180  0.581840  1.274548
    Co  Co10  0.998400  0.846190  0.614570  1.272201
    C   C21   0.273210  0.108470  0.524570  1.020919
    Co  Co11  0.113900  0.885840  0.542090  1.249395
    Co  Co12  0.903820  0.079590  0.659220  1.255402
    C   C22   0.920010  0.685950  0.572560  0.914932
    O   O22   0.923860  0.202000  0.599800  -0.702069
    O   O23   0.946750  0.034490  0.630170  -0.722185
    C   C23   0.876090  0.191040  0.555220  0.928941
    O   O24   0.066940  0.153990  0.526500  -0.552685
    O   O25   0.925270  0.803190  0.664990  -0.545769
    C   C24   0.708570  0.878460  0.644070  0.982981
    O   O26   0.975510  0.970380  0.588960  -0.900447
    C   C25   0.125680  0.251790  0.655010  0.905648
    C   C26   0.001050  0.951350  0.445940  0.766744
    C   C27   0.192980  0.840230  0.647830  0.954304
    O   O27   0.892150  0.150170  0.538410  -0.601690
    O   O28   0.993040  0.868710  0.478670  -0.638912
    O   O29   0.009770  0.017430  0.458860  -0.624425
    O   O30   0.748520  0.976580  0.627590  -0.677020
    O   O31   0.754340  0.842370  0.644540  -0.631713
    O   O32   0.066290  0.173370  0.686630  -0.650928
    O   O33   0.133830  0.238300  0.619740  -0.651982
    O   O34   0.226170  0.909860  0.607870  -0.699384
    O   O35   0.124590  0.828670  0.662550  -0.664287
    O   O36   0.052400  0.924840  0.563770  -0.741086
    C   C28   0.950760  0.947360  0.751160  0.959648
    O   O37   0.878670  0.964780  0.723350  -0.792241
    O   O38   0.991520  0.934850  0.730870  -0.719254
    O   O39   0.210750  0.032450  0.504530  -0.716916
    O   O40   0.233870  0.120710  0.545160  -0.672785
    O   O41   0.022140  0.734490  0.578220  -0.689317
    O   O42   0.886510  0.719820  0.583430  -0.578628
    C   C29   0.960140  0.927130  0.893560  -0.080678
    C   C30   0.896280  0.837720  0.877080  -0.223665
    C   C31   0.906360  0.840840  0.834620  0.150918
    C   C32   0.978270  0.934850  0.805980  0.051753
    C   C33   0.044410  0.024070  0.823070  -0.334213
    C   C34   0.034590  0.021270  0.865690  0.280415
    S   S1    0.824110  0.726300  0.816480  -0.222618
    S   S2    0.111360  0.137330  0.881280  -0.200640
    H   H1    0.215940  0.168400  0.903530  0.133661
    H   H2    0.730430  0.713750  0.784070  0.141565
    H   H3    0.840400  0.764430  0.898190  0.136597
    H   H4    0.098260  0.097470  0.801190  0.142781
    C   C35   0.021490  0.982880  0.305610  0.029266
    C   C36   0.943920  0.986020  0.307180  -0.138400
    C   C37   0.940620  0.982680  0.351680  0.151904
    C   C38   0.016220  0.977310  0.396020  -0.035359
    C   C39   0.094050  0.974430  0.394550  -0.150605
    C   C40   0.097450  0.977850  0.349960  0.109845
    S   S3    0.840410  0.984310  0.350940  -0.168245
    S   S4    0.198220  0.977140  0.350610  -0.147723
    H   H5    0.287480  0.076100  0.340750  0.137782
    H   H6    0.750840  0.885590  0.360840  0.143846
    H   H7    0.887590  0.994070  0.273390  0.034551
    H   H8    0.150930  0.967350  0.428340  0.070799
    C   C41   0.202300  0.431400  0.659940  -0.229134
    C   C42   0.167390  0.352040  0.654470  -0.087135
    C   C43   0.532070  0.751570  0.675570  -0.124522
    C   C44   0.613350  0.809310  0.661590  -0.189810
    C   C45   0.227670  0.702090  0.674560  -0.157106
    C   C46   0.205630  0.758890  0.665720  -0.133637
    C   C47   0.128780  0.351320  0.122310  -0.118643
    C   C48   0.182460  0.434460  0.130020  -0.223888
    C   C49   0.545880  0.710940  0.181810  -0.210458
    C   C50   0.640430  0.754610  0.187750  -0.112286
    C   C51   0.241220  0.778110  0.153660  -0.175798
    C   C52   0.258330  0.719200  0.159640  -0.117763
    C   C53   0.813880  0.232730  0.524920  -0.135367
    C   C54   0.768400  0.272170  0.510770  -0.183007
    C   C55   0.846860  0.602980  0.549340  -0.162426
    C   C56   0.798250  0.536390  0.529380  -0.146198
    C   C57   0.380270  0.183430  0.517810  -0.149713
    C   C58   0.465890  0.237040  0.508000  -0.185250
    C   C59   0.738110  0.195890  0.044620  -0.073495
    C   C60   0.755930  0.138160  0.050160  -0.210502
    C   C61   0.877190  0.564910  0.083130  -0.139842
    C   C62   0.822380  0.480880  0.076520  -0.188079
    C   C63   0.361890  0.162410  0.022400  -0.130495
    C   C64   0.456220  0.204940  0.028820  -0.249108
