# Generated by REPEAT Assigner based on pymatgen
data_DB7-ddmof_3243
_audit_creation_date              2022-05-24
_audit_creation_method            REPEAT_Assigner
_cell_length_a                    20.638490
_cell_length_b                    21.376340
_cell_length_c                    39.497760
_cell_angle_alpha                 60.704520
_cell_angle_beta                  119.011420
_cell_angle_gamma                 133.276900
_cell_volume                      10752.797549
_symmetry_space_group_name_H-M    P1
_symmetry_Int_Tables_number       1
loop_
    _symmetry_equiv_pos_site_id
    _symmetry_equiv_pos_as_xyz
    1  x,y,z
loop_
    _atom_site_type_symbol
    _atom_site_label
    _atom_site_fract_x
    _atom_site_fract_y
    _atom_site_fract_z
    _atom_type_partial_charge
    C   C1    0.069800  0.200030  0.118910  1.061359
    C   C2    0.196260  0.852650  0.131280  0.965077
    C   C3    0.058760  0.234370  0.604110  1.055330
    C   C4    0.151640  0.850180  0.623910  1.164525
    C   C5    0.088090  0.042510  0.883870  -0.027617
    C   C6    0.173030  0.123930  0.868010  0.748444
    C   C7    0.038820  0.937940  0.818360  0.027194
    C   C8    0.029680  0.942970  0.779110  -0.255482
    C   C9    0.063210  0.878400  0.854200  0.595181
    C   C10   0.074430  0.993410  0.318650  -0.037144
    C   C11   0.074620  0.987180  0.284490  -0.241976
    C   C12   0.156980  0.015780  0.353930  0.707187
    C   C13   0.021820  0.065220  0.353640  -0.113680
    C   C14   0.027870  0.076650  0.387800  -0.118638
    C   C15   0.039350  0.139080  0.315550  0.702393
    C   C16   0.135970  0.456260  0.596440  0.247197
    C   C17   0.105510  0.386460  0.584330  -0.281936
    C   C18   0.123510  0.323710  0.611190  -0.229663
    C   C19   0.110650  0.519350  0.567620  -0.380312
    C   C20   0.157820  0.663460  0.661000  -0.322170
    C   C21   0.184850  0.797080  0.656400  -0.289289
    C   C22   0.125850  0.704750  0.660380  0.395921
    C   C23   0.120620  0.276870  0.166430  -0.151736
    C   C24   0.134250  0.280550  0.133740  -0.387990
    C   C25   0.226640  0.371820  0.081640  -0.499993
    C   C26   0.200270  0.720260  0.177000  0.362949
    C   C27   0.124440  0.678080  0.194810  -0.406833
    C   C28   0.190750  0.363870  0.109990  0.453448
    C   C29   0.156380  0.354520  0.173770  0.197161
    C   C30   0.029740  0.012970  0.460280  0.989106
    C   C31   0.076850  0.037670  0.917930  -0.198826
    C   C32   0.220470  0.440880  0.115480  -0.369277
    C   C33   0.209490  0.437560  0.148910  -0.045869
    C   C34   0.141240  0.348640  0.209250  -0.427832
    C   C35   0.026480  0.652320  0.658770  -0.505336
    C   C36   0.193400  0.469260  0.634750  -0.026618
    C   C37   0.181270  0.336780  0.649560  0.247949
    C   C38   0.212890  0.407510  0.661480  -0.307185
    C   C39   0.206210  0.273600  0.678750  -0.333687
    C   C40   0.018460  0.984300  0.823220  -0.031276
    C   C41   0.016510  0.974220  0.863170  0.108968
    C   C42   0.001110  0.942230  0.974600  0.956062
    C   C43   0.229020  0.670480  0.183490  -0.396871
    C   C44   0.988650  0.980600  0.354200  0.202732
    C   C45   0.986470  0.002670  0.418620  -0.159680
    C   C46   0.991830  0.966330  0.321490  0.083764
    C   C47   0.805430  0.665910  0.001670  -0.366685
    C   C48   0.990600  0.959540  0.215990  0.955244
    C   C49   0.909390  0.915040  0.296110  -0.073270
    C   C50   0.247250  0.081310  0.033520  0.954521
    C   C51   0.996500  0.005200  0.704170  0.759454
    C   C52   0.989260  0.982940  0.745400  0.022562
    C   C53   0.244960  0.809950  0.154750  -0.287750
    C   C54   0.254520  0.113220  0.539410  1.063082
    C   C55   0.991550  0.938000  0.258340  -0.042022
    C   C56   0.279540  0.837640  0.669160  -0.311774
    C   C57   0.324670  0.850070  0.144530  -0.159230
    C   C58   0.982870  0.279640  0.026190  -0.318392
    C   C59   0.268740  0.221280  0.455680  -0.257670
    C   C60   0.737070  0.265180  0.034030  0.316455
    C   C61   0.650920  0.205730  0.043460  -0.472512
    C   C62   0.617740  0.237140  0.050120  0.331082
    C   C63   0.675900  0.322550  0.055140  -0.397717
    C   C64   0.763310  0.381330  0.048430  0.353928
    C   C65   0.792970  0.354550  0.035930  -0.410473
    C   C66   0.703020  0.298300  0.510360  0.362246
    C   C67   0.772020  0.376810  0.523960  -0.520487
    C   C68   0.750430  0.430650  0.519680  0.466269
    C   C69   0.659910  0.403810  0.503180  -0.454545
    C   C70   0.590120  0.317550  0.498760  0.314598
    C   C71   0.611680  0.270530  0.496430  -0.463271
    C   C72   0.322590  0.651460  0.171010  0.341150
    C   C73   0.414960  0.682600  0.182990  -0.480132
    C   C74   0.437500  0.635510  0.181250  0.326998
    C   C75   0.368690  0.548690  0.177570  -0.437146
    C   C76   0.277190  0.517470  0.164470  0.434912
    C   C77   0.253590  0.569070  0.160750  -0.498152
    C   C78   0.286370  0.675380  0.657760  0.208992
    C   C79   0.370140  0.735220  0.645810  -0.454107
    C   C80   0.399230  0.703900  0.636120  0.403446
    C   C81   0.339120  0.618380  0.631090  -0.413612
    C   C82   0.255710  0.558730  0.641620  0.299095
    C   C83   0.231520  0.585000  0.657470  -0.330331
    C   C84   0.950350  0.712350  0.076060  1.152509
    C   C85   0.765840  0.828610  0.141750  1.226493
    C   C86   0.841890  0.070640  0.050190  1.054359
    C   C87   0.929650  0.757010  0.548870  0.939235
    C   C88   0.761870  0.863770  0.640210  1.089431
    C   C89   0.817840  0.094160  0.543030  0.911026
    C   C90   0.933750  0.906460  0.875460  -0.253670
    C   C91   0.995860  0.966770  0.931440  -0.006411
    C   C92   0.920620  0.905560  0.907630  -0.021013
    C   C93   0.823340  0.850730  0.910970  0.683654
    C   C94   0.954940  0.015080  0.751780  0.020179
    C   C95   0.985610  0.029730  0.789310  -0.108459
    C   C96   0.868580  0.008940  0.724070  0.646695
    C   C97   0.908850  0.890950  0.268570  -0.275461
    C   C98   0.822360  0.809100  0.254330  0.890757
    C   C99   0.930300  0.917270  0.412340  -0.035661
    C   C100  0.940700  0.906670  0.383210  -0.242968
    C   C101  0.849970  0.840150  0.431470  0.661763
    C   C102  0.549340  0.729920  0.672040  -0.336146
    C   C103  0.496290  0.754180  0.637430  -0.038915
    C   C104  0.526560  0.804070  0.601620  0.241700
    C   C105  0.608990  0.828300  0.601070  -0.314424
    C   C106  0.662680  0.805510  0.636030  -0.286203
    C   C107  0.628360  0.749510  0.670700  0.341328
    C   C108  0.678340  0.713940  0.707020  -0.299785
    C   C109  0.470550  0.830430  0.563920  -0.382524
    C   C110  0.252570  0.708330  0.667430  -0.020526
    C   C111  0.313240  0.790200  0.678420  0.207811
    C   C112  0.407220  0.819590  0.705350  -0.308047
    C   C113  0.532900  0.739150  0.131780  -0.231440
    C   C114  0.523180  0.683560  0.170370  -0.032043
    C   C115  0.582600  0.657420  0.193580  0.206505
    C   C116  0.650770  0.688440  0.177790  -0.235008
    C   C117  0.669600  0.755610  0.142440  -0.218712
    C   C118  0.603300  0.772000  0.117060  0.122030
    C   C119  0.609360  0.827810  0.074900  -0.206976
    C   C120  0.573990  0.597140  0.235020  -0.367811
    C   C121  0.298500  0.707700  0.166490  0.031667
    C   C122  0.343430  0.797870  0.144890  0.119249
    C   C123  0.404520  0.837000  0.119200  -0.305643
    C   C124  0.799080  0.283020  0.497550  -0.424505
    C   C125  0.725740  0.242950  0.512770  0.031135
    C   C126  0.673850  0.150120  0.529480  0.092066
    C   C127  0.689940  0.099490  0.526360  -0.208082
    C   C128  0.773110  0.140350  0.519120  -0.265257
    C   C129  0.824270  0.232600  0.501210  0.422096
    C   C130  0.903720  0.277150  0.485210  -0.419760
    C   C131  0.609600  0.106050  0.554610  -0.224300
    C   C132  0.791870  0.507280  0.565360  -0.370869
    C   C133  0.817310  0.506410  0.538450  -0.051474
    C   C134  0.892390  0.585710  0.522140  0.106417
    C   C135  0.934180  0.665120  0.529910  0.050149
    C   C136  0.895770  0.668440  0.549800  -0.370045
    C   C137  0.824080  0.587860  0.568300  0.368620
    C   C138  0.779570  0.586560  0.589930  -0.474622
    C   C139  0.926610  0.586740  0.495550  -0.386436
    C   C140  0.429100  0.265170  0.479280  -0.291763
    C   C141  0.504370  0.269320  0.509510  0.028134
    C   C142  0.501570  0.238600  0.550160  0.143919
    C   C143  0.422090  0.201040  0.559410  -0.272995
    C   C144  0.343500  0.187520  0.529260  -0.167204
    C   C145  0.349140  0.226080  0.488870  0.161296
    C   C146  0.577860  0.235540  0.583980  -0.246838
    C   C147  0.731580  0.109610  0.010150  -0.185917
    C   C148  0.822820  0.138080  0.026990  -0.320940
    C   C149  0.889660  0.224410  0.033130  0.399672
    C   C150  0.862550  0.265750  0.036580  -0.372913
    C   C151  0.769670  0.232780  0.023640  -0.022420
    C   C152  0.707050  0.162160  0.004380  0.156462
    C   C153  0.620600  0.149410  0.974230  -0.261420
    C   C154  0.899260  0.557540  0.101860  -0.260412
    C   C155  0.883720  0.620330  0.071970  -0.260767
    C   C156  0.829700  0.603960  0.033740  0.230124
    C   C157  0.803080  0.532280  0.024560  -0.321460
    C   C158  0.822050  0.471530  0.054030  -0.016448
    C   C159  0.873290  0.486140  0.092700  0.222772
    C   C160  0.896860  0.423430  0.124810  -0.374442
    C   C161  0.489910  0.156130  0.079810  -0.423515
    C   C162  0.519310  0.186560  0.046010  0.045644
    C   C163  0.461350  0.191590  0.007600  0.191291
    C   C164  0.375420  0.165980  0.003770  -0.310478
    C   C165  0.345850  0.134950  0.037520  -0.282721
    C   C166  0.405840  0.135100  0.075700  0.443462
    C   C167  0.383810  0.119670  0.111510  -0.434125
    C   C168  0.489270  0.220940  0.970680  -0.329637
    Co  Co1   0.077310  0.016580  0.046090  1.314220
    Co  Co2   0.110080  0.887370  0.045750  1.296559
    Co  Co3   0.065950  0.050560  0.534550  1.271383
    Co  Co4   0.106640  0.926790  0.535400  1.336877
    Co  Co5   0.032840  0.854310  0.112400  1.296787
    Co  Co6   0.008800  0.069810  0.081020  1.346965
    Co  Co7   0.012840  0.883290  0.598030  1.288958
    Co  Co8   0.987410  0.097520  0.568040  1.338707
    Co  Co9   0.954030  0.903050  0.145510  1.368073
    Co  Co10  0.898530  0.022250  0.137580  1.288807
    Co  Co11  0.940920  0.933760  0.634680  1.348563
    Co  Co12  0.894750  0.058250  0.629200  1.373246
    F   F1    0.207410  0.099850  0.857820  -0.249605
    F   F2    0.131590  0.922860  0.883820  -0.201518
    F   F3    0.193180  0.092580  0.361180  -0.227794
    F   F4    0.225130  0.027710  0.347220  -0.232270
    F   F5    0.150960  0.177420  0.834590  -0.250381
    F   F6    0.093950  0.850380  0.844150  -0.214479
    F   F7    0.130970  0.947130  0.387610  -0.243874
    F   F8    0.114310  0.169270  0.306080  -0.232207
    F   F9    0.055680  0.210130  0.319380  -0.222435
    F   F10   0.963500  0.107890  0.284380  -0.257628
    F   F11   0.241730  0.172870  0.896150  -0.240979
    F   F12   0.986540  0.804490  0.869090  -0.204916
    F   F13   0.759120  0.826760  0.227650  -0.238353
    F   F14   0.775930  0.765410  0.908860  -0.224134
    F   F15   0.780340  0.888280  0.879350  -0.239014
    F   F16   0.818970  0.845930  0.946080  -0.206151
    F   F17   0.798650  0.922800  0.720570  -0.197909
    F   F18   0.882180  0.065910  0.686880  -0.265152
    F   F19   0.839770  0.030620  0.739210  -0.218687
    F   F20   0.786000  0.741180  0.286550  -0.281487
    F   F21   0.838820  0.780600  0.236570  -0.261995
    F   F22   0.769620  0.815800  0.402000  -0.226607
    F   F23   0.847110  0.860900  0.458620  -0.201779
    F   F24   0.854670  0.768770  0.450670  -0.234946
    H   H1    0.182850  0.546440  0.149140  0.178156
    H   H2    0.171430  0.535570  0.669610  0.132327
    H   H3    0.132630  0.087250  0.934930  0.137196
    H   H4    0.053110  0.915380  0.774940  0.220649
    H   H5    0.138860  0.020930  0.278170  0.169554
    H   H6    0.067350  0.142740  0.391050  0.124928
    H   H7    0.170470  0.583000  0.555630  0.104724
    H   H8    0.088860  0.532120  0.582900  0.102482
    H   H9    0.108640  0.598450  0.655160  0.162756
    H   H10   0.078640  0.212920  0.185210  0.135274
    H   H11   0.088710  0.279330  0.222550  0.144900
    H   H12   0.117040  0.388990  0.200030  0.109641
    H   H13   0.170190  0.340890  0.056830  0.145029
    H   H14   0.195910  0.602300  0.200980  0.174270
    H   H15   0.103090  0.610830  0.214450  0.106836
    H   H16   0.063690  0.671560  0.170750  0.104272
    H   H17   0.147950  0.719200  0.213190  0.134911
    H   H18   0.033880  0.329420  0.044300  0.051013
    H   H19   0.006540  0.591640  0.683700  0.135951
    H   H20   0.012150  0.690980  0.661490  0.143536
    H   H21   0.206250  0.373350  0.232560  0.108682
    H   H22   0.157020  0.221560  0.698200  0.101521
    H   H23   0.061890  0.377150  0.554800  0.165301
    H   H24   0.052920  0.491680  0.542150  0.102040
    H   H25   0.005170  0.238690  0.033920  0.069745
    H   H26   0.206390  0.242240  0.663250  0.118927
    H   H27   0.222090  0.213630  0.466200  0.086170
    H   H28   0.857130  0.716000  0.983420  0.138147
    H   H29   0.962360  0.281180  0.510250  0.123087
    H   H30   0.802710  0.699800  0.014590  0.139063
    H   H31   0.736960  0.628830  0.981910  0.096691
    H   H32   0.277240  0.442200  0.068340  0.122585
    H   H33   0.230340  0.164720  0.443060  0.094399
    H   H34   0.326920  0.906110  0.670930  0.179952
    H   H35   0.984280  0.632360  0.630170  0.125709
    H   H36   0.364110  0.920540  0.130550  0.148281
    H   H37   0.981280  0.315270  0.994170  0.116940
    H   H38   0.609180  0.136040  0.044840  0.172711
    H   H39   0.651300  0.344940  0.062410  0.150028
    H   H40   0.858030  0.402580  0.027640  0.140250
    H   H41   0.840640  0.394160  0.538720  0.186107
    H   H42   0.642530  0.443970  0.500600  0.164970
    H   H43   0.557320  0.209970  0.486380  0.175127
    H   H44   0.469050  0.745650  0.190930  0.188331
    H   H45   0.386480  0.510300  0.178560  0.162114
    H   H46   0.411500  0.805310  0.643320  0.190947
    H   H47   0.359530  0.596610  0.620800  0.151193
    H   H48   0.876540  0.858390  0.857790  0.162632
    H   H49   0.971810  0.066380  0.793020  0.120264
    H   H50   0.845010  0.887510  0.300090  0.117437
    H   H51   0.905720  0.840530  0.381360  0.171284
    H   H52   0.257600  0.417700  0.690820  0.151201
    H   H53   0.276080  0.309350  0.697960  0.084141
    H   H54   0.525050  0.689660  0.699310  0.148920
    H   H55   0.634110  0.869520  0.574030  0.207891
    H   H56   0.631140  0.652030  0.726050  0.087683
    H   H57   0.734200  0.763820  0.724970  0.068803
    H   H58   0.708100  0.698040  0.698040  0.078339
    H   H59   0.457540  0.866910  0.569370  0.087385
    H   H60   0.404110  0.770380  0.554220  0.102423
    H   H61   0.506090  0.874020  0.539110  0.107117
    H   H62   0.460260  0.880010  0.688590  0.060179
    H   H63   0.417400  0.766920  0.717970  0.091569
    H   H64   0.416640  0.835700  0.730910  0.124905
    H   H65   0.261740  0.504840  0.096500  0.145566
    H   H66   0.261530  0.338820  0.097950  0.144687
    H   H67   0.483400  0.753940  0.112590  0.145624
    H   H68   0.696150  0.668310  0.195370  0.159412
    H   H69   0.541570  0.793960  0.054120  0.059440
    H   H70   0.659610  0.838900  0.065260  0.086872
    H   H71   0.629360  0.892770  0.072530  0.068533
    H   H72   0.517920  0.527240  0.233210  0.098210
    H   H73   0.559730  0.615190  0.251340  0.097243
    H   H74   0.638290  0.602470  0.252740  0.120930
    H   H75   0.380140  0.786960  0.105850  0.108919
    H   H76   0.476020  0.864080  0.137120  0.083707
    H   H77   0.404430  0.892120  0.093910  0.080123
    H   H78   0.837500  0.353490  0.483580  0.170718
    H   H79   0.646070  0.027920  0.536690  0.176422
    H   H80   0.926910  0.345570  0.466780  0.103947
    H   H81   0.883230  0.239260  0.465970  0.125449
    H   H82   0.539630  0.083640  0.535620  0.071346
    H   H83   0.634240  0.151540  0.570830  0.095816
    H   H84   0.605580  0.046960  0.577670  0.070052
    H   H85   0.738380  0.445310  0.580090  0.161557
    H   H86   0.993860  0.725540  0.518520  0.057844
    H   H87   0.718670  0.518690  0.598690  0.114761
    H   H88   0.755580  0.629230  0.570270  0.142703
    H   H89   0.828620  0.609280  0.617670  0.164869
    H   H90   0.870350  0.559530  0.469720  0.106219
    H   H91   0.953920  0.546790  0.512820  0.104922
    H   H92   0.982560  0.655060  0.483460  0.117302
    H   H93   0.432700  0.292410  0.448270  0.149773
    H   H94   0.418350  0.173680  0.590430  0.193406
    H   H95   0.292830  0.283170  0.431450  0.085345
    H   H96   0.644540  0.281790  0.576020  0.073142
    H   H97   0.558270  0.167160  0.594460  0.063078
    H   H98   0.588520  0.253130  0.609340  0.073037
    H   H99   0.679930  0.047130  0.001570  0.143645
    H   H100  0.913920  0.324300  0.048180  0.180465
    H   H101  0.610430  0.134690  0.947990  0.088334
    H   H102  0.624210  0.210340  0.963000  0.079754
    H   H103  0.560700  0.092820  0.987660  0.066183
    H   H104  0.938180  0.568180  0.131590  0.167416
    H   H105  0.762360  0.520540  0.995020  0.159115
    H   H106  0.951930  0.452970  0.150350  0.098353
    H   H107  0.921740  0.407680  0.112770  0.106391
    H   H108  0.835250  0.361180  0.136010  0.096864
    H   H109  0.535740  0.155350  0.109130  0.162436
    H   H110  0.329400  0.166180  0.974480  0.218350
    H   H111  0.438880  0.124080  0.138960  0.104872
    H   H112  0.319520  0.053070  0.117330  0.137637
    H   H113  0.376150  0.170660  0.106070  0.118791
    H   H114  0.487120  0.168450  0.969840  0.107130
    H   H115  0.559130  0.284010  0.970320  0.082756
    H   H116  0.442210  0.232490  0.942990  0.096710
    O   O1    0.068550  0.111420  0.039020  -0.604513
    O   O2    0.141580  0.840620  0.146280  -0.672932
    O   O3    0.098290  0.177560  0.106020  -0.642499
    O   O4    0.071910  0.922530  0.070380  -0.729146
    O   O5    0.191590  0.017290  0.015480  -0.801252
    O   O6    0.215030  0.096430  0.048120  -0.621469
    O   O7    0.050220  0.141340  0.526670  -0.622861
    O   O8    0.119940  0.838380  0.588160  -0.874858
    O   O9    0.130650  0.887070  0.632010  -0.756444
    O   O10   0.084460  0.203180  0.595070  -0.696504
    O   O11   0.054900  0.953790  0.556850  -0.754850
    O   O12   0.208330  0.129580  0.544350  -0.733289
    O   O13   0.045560  0.974900  0.104280  -0.927325
    O   O14   0.034130  0.755150  0.074550  -0.856896
    O   O15   0.100870  0.011340  0.479740  -0.843454
    O   O16   0.001190  0.028980  0.476770  -0.613646
    O   O17   0.213970  0.907730  0.096420  -0.736346
    O   O18   0.001230  0.075420  0.678280  -0.662314
    O   O19   0.001480  0.872700  0.997810  -0.770438
    O   O20   0.002080  0.988010  0.989070  -0.740034
    O   O21   0.993820  0.030230  0.191170  -0.687423
    O   O22   0.235340  0.033340  0.553590  -0.763077
    O   O23   0.982240  0.157020  0.114480  -0.841524
    O   O24   0.996450  0.954130  0.693550  -0.715016
    O   O25   0.972280  0.191160  0.601700  -0.838541
    O   O26   0.995640  0.913260  0.204760  -0.647122
    O   O27   0.960930  0.998260  0.120740  -0.884367
    O   O28   0.976040  0.814810  0.155540  -0.600001
    O   O29   0.808810  0.888360  0.160690  -0.850611
    O   O30   0.812190  0.824510  0.129750  -0.804854
    O   O31   0.809300  0.013450  0.082040  -0.754379
    O   O32   0.895680  0.071420  0.040480  -0.714367
    O   O33   0.930080  0.746430  0.086580  -0.730399
    O   O34   0.942740  0.026510  0.608590  -0.811273
    O   O35   0.962070  0.845870  0.643180  -0.603405
    O   O36   0.978690  0.978740  0.577760  -0.915722
    O   O37   0.812640  0.927000  0.658080  -0.791429
    O   O38   0.800060  0.850550  0.628070  -0.691580
    O   O39   0.795810  0.037190  0.576970  -0.743386
    O   O40   0.879110  0.110460  0.530720  -0.642553
    O   O41   0.971620  0.825170  0.520610  -0.669668
    O   O42   0.922930  0.767830  0.577370  -0.628686
