# generated using pymatgen
data_Zn7H28C86I2N2(O5F6)4
_symmetry_space_group_name_H-M   'P 1'
_cell_length_a   24.83963000
_cell_length_b   22.11618000
_cell_length_c   31.77953000
_cell_angle_alpha   104.01028000
_cell_angle_beta   115.93329000
_cell_angle_gamma   111.53552000
_symmetry_Int_Tables_number   1
_chemical_formula_structural   Zn7H28C86I2N2(O5F6)4
_chemical_formula_sum   'Zn14 H56 C172 I4 N4 O40 F48'
_cell_volume   12801.40127378
_cell_formula_units_Z   2
loop_
 _symmetry_equiv_pos_site_id
 _symmetry_equiv_pos_as_xyz
  1  'x, y, z'
loop_
 _atom_site_type_symbol
 _atom_site_label
 _atom_site_symmetry_multiplicity
 _atom_site_fract_x
 _atom_site_fract_y
 _atom_site_fract_z
 _atom_site_occupancy
  Zn  Zn1  1  0.15770000  0.15089000  0.00211000  1
  Zn  Zn2  1  0.04868000  0.08201000  0.88211000  1
  Zn  Zn3  1  0.85307000  0.85010000  0.88083000  1
  Zn  Zn4  1  0.97727000  0.91001000  0.98984000  1
  Zn  Zn5  1  0.00452000  0.99462000  0.93293000  1
  Zn  Zn6  1  0.96638000  0.03683000  0.01319000  1
  Zn  Zn7  1  0.01459000  0.91855000  0.84373000  1
  Zn  Zn8  1  0.18121000  0.16120000  0.51353000  1
  Zn  Zn9  1  0.06813000  0.11279000  0.39850000  1
  Zn  Zn10  1  0.85913000  0.89255000  0.38996000  1
  Zn  Zn11  1  0.97802000  0.91437000  0.48507000  1
  Zn  Zn12  1  0.01739000  0.01539000  0.44129000  1
  Zn  Zn13  1  0.99990000  0.05520000  0.53402000  1
  Zn  Zn14  1  0.00939000  0.94187000  0.34146000  1
  H  H1  1  0.84838000  0.54691000  0.02825000  1
  H  H2  1  0.81342000  0.43852000  0.04300000  1
  H  H3  1  0.59600000  0.33553000  0.90974000  1
  H  H4  1  0.63076000  0.44445000  0.89571000  1
  H  H5  1  0.44461000  0.15226000  0.90269000  1
  H  H6  1  0.54947000  0.20137000  0.90060000  1
  H  H7  1  0.68082000  0.35965000  0.06783000  1
  H  H8  1  0.57548000  0.31109000  0.06963000  1
  H  H9  1  0.76586000  0.15805000  0.98106000  1
  H  H10  1  0.73255000  0.23516000  0.02063000  1
  H  H11  1  0.65250000  0.26840000  0.88325000  1
  H  H12  1  0.68994000  0.19522000  0.84544000  1
  H  H13  1  0.72980000  0.56680000  0.49152000  1
  H  H14  1  0.70549000  0.46409000  0.51286000  1
  H  H15  1  0.61068000  0.31077000  0.35121000  1
  H  H16  1  0.63596000  0.41368000  0.33008000  1
  H  H17  1  0.41850000  0.18801000  0.37020000  1
  H  H18  1  0.52107000  0.24871000  0.36713000  1
  H  H19  1  0.66360000  0.30157000  0.52938000  1
  H  H20  1  0.56102000  0.24197000  0.53280000  1
  H  H21  1  0.65098000  0.12136000  0.35776000  1
  H  H22  1  0.59290000  0.18551000  0.37205000  1
  H  H23  1  0.79859000  0.38841000  0.49059000  1
  H  H24  1  0.85625000  0.32498000  0.47403000  1
  H  H25  1  0.35436000  0.58644000  0.06315000  1
  H  H26  1  0.42414000  0.71580000  0.08357000  1
  H  H27  1  0.37929000  0.63799000  0.92689000  1
  H  H28  1  0.31295000  0.50867000  0.90763000  1
  H  H29  1  0.50224000  0.80539000  0.90410000  1
  H  H30  1  0.41690000  0.76800000  0.92712000  1
  H  H31  1  0.57888000  0.80014000  0.07541000  1
  H  H32  1  0.66392000  0.83640000  0.05177000  1
  H  H33  1  0.40796000  0.94836000  0.07269000  1
  H  H34  1  0.48237000  0.89554000  0.08438000  1
  H  H35  1  0.30965000  0.70177000  0.93128000  1
  H  H36  1  0.23508000  0.75361000  0.92045000  1
  H  H37  1  0.37463000  0.61932000  0.58528000  1
  H  H38  1  0.43616000  0.74556000  0.59759000  1
  H  H39  1  0.39909000  0.65323000  0.44444000  1
  H  H40  1  0.33922000  0.52770000  0.43284000  1
  H  H41  1  0.51877000  0.79843000  0.41405000  1
  H  H42  1  0.42788000  0.76211000  0.43190000  1
  H  H43  1  0.59216000  0.85671000  0.59868000  1
  H  H44  1  0.68373000  0.89957000  0.58178000  1
  H  H45  1  0.38599000  0.95012000  0.55357000  1
  H  H46  1  0.47330000  0.91331000  0.57906000  1
  H  H47  1  0.31828000  0.70342000  0.43425000  1
  H  H48  1  0.23028000  0.73876000  0.41024000  1
  H  H49  1  0.07485000  0.04186000  0.03199000  1
  H  H50  1  0.93410000  0.95943000  0.83652000  1
  H  H51  1  0.09147000  0.03796000  0.53499000  1
  H  H52  1  0.94527000  0.99971000  0.35057000  1
  H  H53  1  0.95970000  0.87898000  0.69257000  1
  H  H54  1  0.13066000  0.09769000  0.70195000  1
  H  H55  1  0.92653000  0.99056000  0.20508000  1
  H  H56  1  0.12651000  0.04092000  0.18862000  1
  C  C1  1  0.74201000  0.50283000  0.96081000  1
  C  C2  1  0.79314000  0.50118000  0.00272000  1
  C  C3  1  0.77339000  0.43992000  0.01112000  1
  C  C4  1  0.70258000  0.37945000  0.97753000  1
  C  C5  1  0.65082000  0.38195000  0.93629000  1
  C  C6  1  0.67062000  0.44345000  0.92804000  1
  C  C7  1  0.50304000  0.22816000  0.98637000  1
  C  C8  1  0.49625000  0.19691000  0.93892000  1
  C  C9  1  0.55571000  0.22470000  0.93775000  1
  C  C10  1  0.62268000  0.28412000  0.98428000  1
  C  C11  1  0.62942000  0.31424000  0.03182000  1
  C  C12  1  0.56992000  0.28640000  0.03291000  1
  C  C13  1  0.73166000  0.17292000  0.91120000  1
  C  C14  1  0.74109000  0.18214000  0.95967000  1
  C  C15  1  0.72224000  0.22573000  0.98208000  1
  C  C16  1  0.69350000  0.26030000  0.95624000  1
  C  C17  1  0.67863000  0.24600000  0.90538000  1
  C  C18  1  0.69859000  0.20325000  0.88339000  1
  C  C19  1  0.68634000  0.49744000  0.40980000  1
  C  C20  1  0.70251000  0.51074000  0.46053000  1
  C  C21  1  0.68890000  0.45271000  0.47266000  1
  C  C22  1  0.65904000  0.38110000  0.43425000  1
  C  C23  1  0.63573000  0.36636000  0.38170000  1
  C  C24  1  0.64977000  0.42456000  0.36967000  1
  C  C25  1  0.48290000  0.21215000  0.45207000  1
  C  C26  1  0.47192000  0.21243000  0.40491000  1
  C  C27  1  0.53007000  0.24744000  0.40332000  1
  C  C28  1  0.59978000  0.28138000  0.44878000  1
  C  C29  1  0.61014000  0.27628000  0.49447000  1
  C  C30  1  0.55207000  0.24230000  0.49631000  1
  C  C31  1  0.75769000  0.21837000  0.41602000  1
  C  C32  1  0.68317000  0.18004000  0.38589000  1
  C  C33  1  0.65035000  0.21596000  0.39506000  1
  C  C34  1  0.69222000  0.29054000  0.43502000  1
  C  C35  1  0.76615000  0.33039000  0.46105000  1
  C  C36  1  0.79868000  0.29467000  0.45123000  1
  C  C37  1  0.32887000  0.53858000  0.98401000  1
  C  C38  1  0.36055000  0.59749000  0.03362000  1
  C  C39  1  0.40015000  0.67078000  0.04524000  1
  C  C40  1  0.40737000  0.68627000  0.00712000  1
  C  C41  1  0.37537000  0.62716000  0.95717000  1
  C  C42  1  0.33687000  0.55372000  0.94595000  1
  C  C43  1  0.58901000  0.82393000  0.97654000  1
  C  C44  1  0.51925000  0.80489000  0.94169000  1
  C  C45  1  0.47091000  0.78399000  0.95489000  1
  C  C46  1  0.49218000  0.78214000  0.00338000  1
  C  C47  1  0.56201000  0.80128000  0.03805000  1
  C  C48  1  0.61022000  0.82214000  0.02477000  1
  C  C49  1  0.31621000  0.85413000  0.99610000  1
  C  C50  1  0.38629000  0.89429000  0.04203000  1
  C  C51  1  0.42857000  0.86463000  0.04849000  1
  C  C52  1  0.40116000  0.79458000  0.00922000  1
  C  C53  1  0.33111000  0.75494000  0.96266000  1
  C  C54  1  0.28893000  0.78458000  0.95634000  1
  C  C55  1  0.35220000  0.56490000  0.50801000  1
  C  C56  1  0.38063000  0.62673000  0.55478000  1
  C  C57  1  0.41560000  0.69821000  0.56182000  1
  C  C58  1  0.42194000  0.70867000  0.52204000  1
  C  C59  1  0.39514000  0.64656000  0.47573000  1
  C  C60  1  0.36057000  0.57515000  0.46891000  1
  C  C61  1  0.60769000  0.85135000  0.49664000  1
  C  C62  1  0.53513000  0.81240000  0.45453000  1
  C  C63  1  0.48347000  0.79098000  0.46456000  1
  C  C64  1  0.50370000  0.80511000  0.51650000  1
  C  C65  1  0.57609000  0.84433000  0.55845000  1
  C  C66  1  0.62790000  0.86837000  0.54880000  1
  C  C67  1  0.30177000  0.84638000  0.48070000  1
  C  C68  1  0.37092000  0.89596000  0.52778000  1
  C  C69  1  0.42053000  0.87537000  0.54202000  1
  C  C70  1  0.40166000  0.80522000  0.50935000  1
  C  C71  1  0.33305000  0.75663000  0.46097000  1
  C  C72  1  0.28329000  0.77700000  0.44705000  1
  C  C73  1  0.24758000  0.13103000  0.97658000  1
  C  C74  1  0.16570000  0.24641000  0.95199000  1
  C  C75  1  0.85796000  0.75466000  0.93332000  1
  C  C76  1  0.80056000  0.89796000  0.93446000  1
  C  C77  1  0.00544000  0.99632000  0.09706000  1
  C  C78  1  0.89464000  0.05777000  0.92851000  1
  C  C79  1  0.04069000  0.00096000  0.78771000  1
  C  C80  1  0.10413000  0.92439000  0.93680000  1
  C  C81  1  0.25252000  0.12396000  0.47360000  1
  C  C82  1  0.19424000  0.27075000  0.47529000  1
  C  C83  1  0.84079000  0.76792000  0.41565000  1
  C  C84  1  0.82614000  0.93856000  0.46025000  1
  C  C85  1  0.02738000  0.98697000  0.60130000  1
  C  C86  1  0.93226000  0.09926000  0.46545000  1
  C  C87  1  0.04694000  0.03731000  0.29677000  1
  C  C88  1  0.09001000  0.92079000  0.42178000  1
  C  C89  1  0.04176000  0.98374000  0.65079000  1
  C  C90  1  0.99558000  0.92060000  0.64907000  1
  C  C91  1  0.99600000  0.92709000  0.69423000  1
  C  C92  1  0.04243000  0.99542000  0.74127000  1
  C  C93  1  0.09249000  0.05655000  0.74431000  1
  C  C94  1  0.09291000  0.04989000  0.69960000  1
  C  C95  1  0.01485000  0.00131000  0.14707000  1
  C  C96  1  0.95824000  0.98671000  0.15193000  1
  C  C97  1  0.97039000  0.00230000  0.20168000  1
  C  C98  1  0.03802000  0.03012000  0.24663000  1
  C  C99  1  0.09450000  0.04332000  0.24174000  1
  C  C100  1  0.08264000  0.02898000  0.19202000  1
  C  C101  1  0.30876000  0.39209000  0.52295000  1
  C  C102  1  0.23468000  0.34607000  0.48374000  1
  C  C103  1  0.19950000  0.37206000  0.45230000  1
  C  C104  1  0.23791000  0.44343000  0.46017000  1
  C  C105  1  0.31188000  0.48929000  0.49931000  1
  C  C106  1  0.34715000  0.46325000  0.53054000  1
  C  C107  1  0.66703000  0.91514000  0.45996000  1
  C  C108  1  0.66251000  0.87223000  0.48597000  1
  C  C109  1  0.71048000  0.84926000  0.50190000  1
  C  C110  1  0.76427000  0.87164000  0.49410000  1
  C  C111  1  0.76956000  0.91553000  0.46886000  1
  C  C112  1  0.71876000  0.93449000  0.44985000  1
  C  C113  1  0.22234000  0.87532000  0.49718000  1
  C  C114  1  0.24872000  0.86719000  0.46644000  1
  C  C115  1  0.22367000  0.87798000  0.42163000  1
  C  C116  1  0.17216000  0.89594000  0.40730000  1
  C  C117  1  0.14496000  0.90298000  0.43753000  1
  C  C118  1  0.17086000  0.89350000  0.48289000  1
  C  C119  1  0.28176000  0.36478000  0.99774000  1
  C  C120  1  0.20814000  0.31872000  0.95717000  1
  C  C121  1  0.17503000  0.34341000  0.92324000  1
  C  C122  1  0.21472000  0.41455000  0.93111000  1
  C  C123  1  0.28809000  0.46103000  0.97234000  1
  C  C124  1  0.32165000  0.43498000  0.00468000  1
  C  C125  1  0.73003000  0.93191000  0.96008000  1
  C  C126  1  0.74165000  0.87769000  0.94006000  1
  C  C127  1  0.69989000  0.80480000  0.92887000  1
  C  C128  1  0.64882000  0.78691000  0.93958000  1
  C  C129  1  0.63872000  0.84159000  0.96122000  1
  C  C130  1  0.67861000  0.91389000  0.97057000  1
  C  C131  1  0.23726000  0.88180000  0.01401000  1
  C  C132  1  0.27181000  0.88562000  0.98867000  1
  C  C133  1  0.25797000  0.91240000  0.95191000  1
  C  C134  1  0.20611000  0.92982000  0.93750000  1
  C  C135  1  0.16823000  0.92151000  0.96025000  1
  C  C136  1  0.18574000  0.89999000  0.99994000  1
  C  C137  1  0.82584000  0.17243000  0.39566000  1
  C  C138  1  0.79235000  0.17662000  0.42122000  1
  C  C139  1  0.80009000  0.14951000  0.45763000  1
  C  C140  1  0.84462000  0.12295000  0.47121000  1
  C  C141  1  0.88005000  0.12054000  0.44695000  1
  C  C142  1  0.86920000  0.14386000  0.40817000  1
  C  C143  1  0.82016000  0.64569000  0.40769000  1
  C  C144  1  0.79585000  0.69379000  0.40617000  1
  C  C145  1  0.73068000  0.67270000  0.39936000  1
  C  C146  1  0.69257000  0.60622000  0.39762000  1
  C  C147  1  0.71890000  0.56007000  0.40197000  1
  C  C148  1  0.78178000  0.57905000  0.40551000  1
  C  C149  1  0.33563000  0.20845000  0.46135000  1
  C  C150  1  0.31320000  0.14789000  0.47040000  1
  C  C151  1  0.34641000  0.10816000  0.47338000  1
  C  C152  1  0.40103000  0.12812000  0.46637000  1
  C  C153  1  0.42349000  0.18884000  0.45730000  1
  C  C154  1  0.39097000  0.22931000  0.45535000  1
  C  C155  1  0.73201000  0.06204000  0.87062000  1
  C  C156  1  0.76397000  0.13914000  0.89325000  1
  C  C157  1  0.83414000  0.18443000  0.91009000  1
  C  C158  1  0.87563000  0.15447000  0.91318000  1
  C  C159  1  0.84706000  0.07939000  0.89967000  1
  C  C160  1  0.77334000  0.03206000  0.87292000  1
  C  C161  1  0.79449000  0.61805000  0.89912000  1
  C  C162  1  0.82146000  0.68904000  0.93705000  1
  C  C163  1  0.81689000  0.69769000  0.98039000  1
  C  C164  1  0.78795000  0.63623000  0.98685000  1
  C  C165  1  0.76387000  0.56572000  0.95026000  1
  C  C166  1  0.76599000  0.55660000  0.90580000  1
  C  C167  1  0.36053000  0.13580000  0.00575000  1
  C  C168  1  0.31551000  0.15973000  0.98284000  1
  C  C169  1  0.33384000  0.20849000  0.96330000  1
  C  C170  1  0.39522000  0.23100000  0.96470000  1
  C  C171  1  0.43908000  0.20521000  0.98592000  1
  C  C172  1  0.42200000  0.15810000  0.00697000  1
  I  I1  1  0.92714000  0.81388000  0.58064000  1
  I  I2  1  0.16789000  0.16001000  0.81542000  1
  I  I3  1  0.85288000  0.93668000  0.08448000  1
  I  I4  1  0.19882000  0.08806000  0.30909000  1
  N  N1  1  0.68474000  0.31407000  0.98401000  1
  N  N2  1  0.66085000  0.32632000  0.45071000  1
  N  N3  1  0.44385000  0.76260000  0.01864000  1
  N  N4  1  0.45129000  0.78235000  0.52768000  1
  O  O1  1  0.05799000  0.96271000  0.81082000  1
  O  O2  1  0.02431000  0.04583000  0.80676000  1
  O  O3  1  0.05237000  0.87850000  0.88618000  1
  O  O4  1  0.98477000  0.97979000  0.86388000  1
  O  O5  1  0.24648000  0.15984000  0.01723000  1
  O  O6  1  0.18772000  0.08848000  0.92843000  1
  O  O7  1  0.06188000  0.09626000  0.95284000  1
  O  O8  1  0.10568000  0.98240000  0.96242000  1
  O  O9  1  0.12010000  0.18644000  0.90428000  1
  O  O10  1  0.17676000  0.24245000  0.99547000  1
  O  O11  1  0.90359000  0.01041000  0.90245000  1
  O  O12  1  0.92571000  0.80538000  0.97219000  1
  O  O13  1  0.82474000  0.75787000  0.88900000  1
  O  O14  1  0.78529000  0.86838000  0.88658000  1
  O  O15  1  0.86445000  0.92345000  0.97621000  1
  O  O16  1  0.94822000  0.89275000  0.91436000  1
  O  O17  1  0.00733000  0.94410000  0.06778000  1
  O  O18  1  0.99924000  0.04672000  0.08396000  1
  O  O19  1  0.91950000  0.07754000  0.97861000  1
  O  O20  1  0.02379000  0.01055000  0.00163000  1
  O  O21  1  0.05837000  0.99174000  0.31371000  1
  O  O22  1  0.03899000  0.08592000  0.32247000  1
  O  O23  1  0.03546000  0.88476000  0.37166000  1
  O  O24  1  0.99421000  0.01148000  0.37377000  1
  O  O25  1  0.26184000  0.16014000  0.51805000  1
  O  O26  1  0.18780000  0.07919000  0.42939000  1
  O  O27  1  0.08567000  0.11733000  0.46887000  1
  O  O28  1  0.10355000  0.98251000  0.45472000  1
  O  O29  1  0.14935000  0.21416000  0.42614000  1
  O  O30  1  0.20933000  0.26022000  0.51711000  1
  O  O31  1  0.93261000  0.05312000  0.43033000  1
  O  O32  1  0.90901000  0.80863000  0.45616000  1
  O  O33  1  0.81303000  0.79039000  0.38175000  1
  O  O34  1  0.80797000  0.92423000  0.41189000  1
  O  O35  1  0.88859000  0.95185000  0.49581000  1
  O  O36  1  0.94805000  0.91405000  0.41360000  1
  O  O37  1  0.01724000  0.93370000  0.56287000  1
  O  O38  1  0.03346000  0.04777000  0.59923000  1
  O  O39  1  0.96880000  0.11564000  0.51561000  1
  O  O40  1  0.04062000  0.01752000  0.50804000  1
  F  F1  1  0.41876000  0.50677000  0.56798000  1
  F  F2  1  0.34375000  0.36728000  0.55296000  1
  F  F3  1  0.20317000  0.46846000  0.43023000  1
  F  F4  1  0.12788000  0.32869000  0.41486000  1
  F  F5  1  0.71862000  0.97038000  0.42074000  1
  F  F6  1  0.62149000  0.93831000  0.44467000  1
  F  F7  1  0.80909000  0.84764000  0.50873000  1
  F  F8  1  0.70409000  0.80400000  0.52404000  1
  F  F9  1  0.14519000  0.90051000  0.51251000  1
  F  F10  1  0.24588000  0.86453000  0.54039000  1
  F  F11  1  0.14993000  0.90840000  0.36479000  1
  F  F12  1  0.25030000  0.87239000  0.39258000  1
  F  F13  1  0.39292000  0.47824000  0.04335000  1
  F  F14  1  0.31466000  0.34147000  0.03054000  1
  F  F15  1  0.18150000  0.43920000  0.89978000  1
  F  F16  1  0.10397000  0.29969000  0.88404000  1
  F  F17  1  0.66881000  0.96702000  0.99110000  1
  F  F18  1  0.76985000  0.00241000  0.97073000  1
  F  F19  1  0.61003000  0.71673000  0.92989000  1
  F  F20  1  0.71028000  0.75183000  0.90906000  1
  F  F21  1  0.15022000  0.89290000  0.02278000  1
  F  F22  1  0.25131000  0.85731000  0.05042000  1
  F  F23  1  0.19053000  0.95196000  0.89979000  1
  F  F24  1  0.29304000  0.91895000  0.92872000  1
  F  F25  1  0.90332000  0.14227000  0.38462000  1
  F  F26  1  0.81824000  0.19823000  0.36010000  1
  F  F27  1  0.85450000  0.10080000  0.50883000  1
  F  F28  1  0.76706000  0.15251000  0.48196000  1
  F  F29  1  0.80723000  0.53429000  0.40921000  1
  F  F30  1  0.88160000  0.66415000  0.41207000  1
  F  F31  1  0.63129000  0.58775000  0.39348000  1
  F  F32  1  0.70575000  0.71795000  0.39648000  1
  F  F33  1  0.41335000  0.28913000  0.44785000  1
  F  F34  1  0.30256000  0.24600000  0.45714000  1
  F  F35  1  0.43209000  0.08858000  0.46831000  1
  F  F36  1  0.32621000  0.05072000  0.48353000  1
  F  F37  1  0.74312000  0.95788000  0.85364000  1
  F  F38  1  0.66266000  0.01699000  0.85077000  1
  F  F39  1  0.94574000  0.19993000  0.93507000  1
  F  F40  1  0.86425000  0.25862000  0.92874000  1
  F  F41  1  0.74270000  0.48860000  0.87013000  1
  F  F42  1  0.79844000  0.60907000  0.85698000  1
  F  F43  1  0.78448000  0.64530000  0.02922000  1
  F  F44  1  0.84110000  0.76587000  0.01647000  1
  F  F45  1  0.46461000  0.13356000  0.02816000  1
  F  F46  1  0.34461000  0.09084000  0.02659000  1
  F  F47  1  0.41228000  0.27801000  0.94548000  1
  F  F48  1  0.29232000  0.23449000  0.94332000  1
