# generated using pymatgen
data_Co6H4C60N6(O7F8)3
_symmetry_space_group_name_H-M   'P 1'
_cell_length_a   19.81786000
_cell_length_b   20.77759000
_cell_length_c   41.23359000
_cell_angle_alpha   60.67294000
_cell_angle_beta   119.04921000
_cell_angle_gamma   133.33228000
_symmetry_Int_Tables_number   1
_chemical_formula_structural   Co6H4C60N6(O7F8)3
_chemical_formula_sum   'Co12 H8 C120 N12 O42 F48'
_cell_volume   10463.96414064
_cell_formula_units_Z   2
loop_
 _symmetry_equiv_pos_site_id
 _symmetry_equiv_pos_as_xyz
  1  'x, y, z'
loop_
 _atom_site_type_symbol
 _atom_site_label
 _atom_site_symmetry_multiplicity
 _atom_site_fract_x
 _atom_site_fract_y
 _atom_site_fract_z
 _atom_site_occupancy
  Co  Co1  1  0.96368000  0.82658000  0.09097000  1
  Co  Co2  1  0.03925000  0.09246000  0.07976000  1
  Co  Co3  1  0.92397000  0.90748000  0.12689000  1
  Co  Co4  1  0.08229000  0.01135000  0.04485000  1
  Co  Co5  1  0.05002000  0.84315000  0.03641000  1
  Co  Co6  1  0.92751000  0.06402000  0.12904000  1
  Co  Co7  1  0.96258000  0.84334000  0.58985000  1
  Co  Co8  1  0.04718000  0.11557000  0.57335000  1
  Co  Co9  1  0.91744000  0.93331000  0.61766000  1
  Co  Co10  1  0.09050000  0.02491000  0.54488000  1
  Co  Co11  1  0.06942000  0.85286000  0.54646000  1
  Co  Co12  1  0.94082000  0.10089000  0.61990000  1
  H  H1  1  0.09838000  0.94519000  0.89097000  1
  H  H2  1  0.08270000  0.92562000  0.83251000  1
  H  H3  1  0.91661000  0.03247000  0.76569000  1
  H  H4  1  0.93215000  0.05190000  0.82420000  1
  H  H5  1  0.96424000  0.04341000  0.27241000  1
  H  H6  1  0.97897000  0.06500000  0.33008000  1
  H  H7  1  0.10377000  0.91807000  0.40103000  1
  H  H8  1  0.08881000  0.89626000  0.34334000  1
  C  C1  1  0.72410000  0.29967000  0.00153000  1
  C  C2  1  0.70267000  0.39835000  0.00148000  1
  C  C3  1  0.59015000  0.24001000  0.01873000  1
  C  C4  1  0.71946000  0.30600000  0.49907000  1
  C  C5  1  0.57811000  0.24590000  0.51087000  1
  C  C6  1  0.70419000  0.40123000  0.50621000  1
  C  C7  1  0.29062000  0.61364000  0.18126000  1
  C  C8  1  0.44132000  0.66143000  0.18507000  1
  C  C9  1  0.30720000  0.51169000  0.18085000  1
  C  C10  1  0.26725000  0.65385000  0.64866000  1
  C  C11  1  0.27573000  0.56041000  0.63601000  1
  C  C12  1  0.38214000  0.71982000  0.61736000  1
  C  C13  1  0.84427000  0.71894000  0.02824000  1
  C  C14  1  0.24219000  0.99774000  0.06357000  1
  C  C15  1  0.95469000  0.93570000  0.19905000  1
  C  C16  1  0.13600000  0.19802000  0.13926000  1
  C  C17  1  0.74652000  0.89192000  0.11281000  1
  C  C18  1  0.05308000  0.73568000  0.11505000  1
  C  C19  1  0.05739000  0.99433000  0.96988000  1
  C  C20  1  0.93663000  0.17786000  0.04841000  1
  C  C21  1  0.86063000  0.72833000  0.53251000  1
  C  C22  1  0.25499000  0.01299000  0.57191000  1
  C  C23  1  0.94186000  0.95865000  0.68903000  1
  C  C24  1  0.14840000  0.21983000  0.63424000  1
  C  C25  1  0.74915000  0.94388000  0.59402000  1
  C  C26  1  0.05557000  0.75012000  0.62638000  1
  C  C27  1  0.07680000  0.99669000  0.47538000  1
  C  C28  1  0.95976000  0.21477000  0.54078000  1
  C  C29  1  0.01653000  0.00019000  0.86175000  1
  C  C30  1  0.05898000  0.96471000  0.86369000  1
  C  C31  1  0.04997000  0.95339000  0.83047000  1
  C  C32  1  0.99842000  0.97739000  0.79495000  1
  C  C33  1  0.95654000  0.01353000  0.79294000  1
  C  C34  1  0.96550000  0.02480000  0.82619000  1
  C  C35  1  0.98713000  0.96469000  0.76021000  1
  C  C36  1  0.97165000  0.95813000  0.72910000  1
  C  C37  1  0.02264000  0.00704000  0.89695000  1
  C  C38  1  0.03431000  0.00724000  0.92882000  1
  C  C39  1  0.02573000  0.96844000  0.30374000  1
  C  C40  1  0.99529000  0.01642000  0.30037000  1
  C  C41  1  0.00344000  0.02857000  0.33317000  1
  C  C42  1  0.04211000  0.99290000  0.36968000  1
  C  C43  1  0.07364000  0.94588000  0.37303000  1
  C  C44  1  0.06541000  0.93365000  0.34022000  1
  C  C45  1  0.04838000  0.00253000  0.40416000  1
  C  C46  1  0.05790000  0.00506000  0.43516000  1
  C  C47  1  0.00996000  0.95042000  0.26959000  1
  C  C48  1  0.99111000  0.94061000  0.23871000  1
  C  C49  1  0.20560000  0.38061000  0.60125000  1
  C  C50  1  0.20569000  0.31509000  0.63554000  1
  C  C51  1  0.23226000  0.33266000  0.67035000  1
  C  C52  1  0.24725000  0.40907000  0.67040000  1
  C  C53  1  0.23890000  0.47038000  0.63577000  1
  C  C54  1  0.21851000  0.45589000  0.60117000  1
  C  C55  1  0.48137000  0.80010000  0.57223000  1
  C  C56  1  0.46845000  0.79958000  0.60308000  1
  C  C57  1  0.54746000  0.86020000  0.62624000  1
  C  C58  1  0.63931000  0.90966000  0.62239000  1
  C  C59  1  0.65256000  0.89861000  0.59543000  1
  C  C60  1  0.57337000  0.84746000  0.56909000  1
  C  C61  1  0.12097000  0.59803000  0.66222000  1
  C  C62  1  0.21841000  0.66526000  0.66182000  1
  C  C63  1  0.26446000  0.75026000  0.66758000  1
  C  C64  1  0.21011000  0.77413000  0.66473000  1
  C  C65  1  0.11010000  0.71356000  0.65592000  1
  C  C66  1  0.06808000  0.62164000  0.66098000  1
  C  C67  1  0.21012000  0.36300000  0.12033000  1
  C  C68  1  0.20759000  0.28758000  0.14835000  1
  C  C69  1  0.24600000  0.29038000  0.18705000  1
  C  C70  1  0.27287000  0.36082000  0.19784000  1
  C  C71  1  0.26458000  0.43078000  0.16997000  1
  C  C72  1  0.23595000  0.43312000  0.13104000  1
  C  C73  1  0.60659000  0.72901000  0.18929000  1
  C  C74  1  0.53172000  0.73771000  0.17317000  1
  C  C75  1  0.53337000  0.80445000  0.13891000  1
  C  C76  1  0.60288000  0.85413000  0.11896000  1
  C  C77  1  0.67171000  0.83807000  0.13320000  1
  C  C78  1  0.67426000  0.77641000  0.16889000  1
  C  C79  1  0.21302000  0.68365000  0.12628000  1
  C  C80  1  0.23003000  0.64455000  0.16547000  1
  C  C81  1  0.19751000  0.64400000  0.18940000  1
  C  C82  1  0.14478000  0.67964000  0.17357000  1
  C  C83  1  0.12618000  0.71744000  0.13389000  1
  C  C84  1  0.16286000  0.72058000  0.11059000  1
  C  C85  1  0.74159000  0.20578000  0.49352000  1
  C  C86  1  0.78005000  0.29167000  0.49568000  1
  C  C87  1  0.87907000  0.36053000  0.49872000  1
  C  C88  1  0.93932000  0.33859000  0.50668000  1
  C  C89  1  0.90186000  0.24808000  0.51221000  1
  C  C90  1  0.80260000  0.18454000  0.50153000  1
  C  C91  1  0.79602000  0.56503000  0.55690000  1
  C  C92  1  0.79758000  0.63708000  0.52603000  1
  C  C93  1  0.76470000  0.62905000  0.48844000  1
  C  C94  1  0.74116000  0.55504000  0.48191000  1
  C  C95  1  0.74736000  0.48691000  0.51286000  1
  C  C96  1  0.77329000  0.49144000  0.55039000  1
  C  C97  1  0.40398000  0.05053000  0.57131000  1
  C  C98  1  0.33694000  0.06979000  0.55526000  1
  C  C99  1  0.34078000  0.13452000  0.52016000  1
  C  C100  1  0.41071000  0.17946000  0.50146000  1
  C  C101  1  0.48452000  0.16867000  0.51970000  1
  C  C102  1  0.47788000  0.10021000  0.55369000  1
  C  C103  1  0.79421000  0.17089000  0.00191000  1
  C  C104  1  0.89230000  0.22410000  0.01841000  1
  C  C105  1  0.93772000  0.31494000  0.01670000  1
  C  C106  1  0.88334000  0.34440000  0.00751000  1
  C  C107  1  0.78298000  0.28436000  0.99786000  1
  C  C108  1  0.73964000  0.20128000  0.99126000  1
  C  C109  1  0.77744000  0.49086000  0.04544000  1
  C  C110  1  0.74614000  0.48468000  0.00768000  1
  C  C111  1  0.73055000  0.54811000  0.97734000  1
  C  C112  1  0.74881000  0.61853000  0.98461000  1
  C  C113  1  0.78531000  0.62766000  0.02228000  1
  C  C114  1  0.79270000  0.55940000  0.05274000  1
  C  C115  1  0.50505000  0.17339000  0.06726000  1
  C  C116  1  0.51064000  0.16391000  0.03727000  1
  C  C117  1  0.43136000  0.09115000  0.02020000  1
  C  C118  1  0.34435000  0.03469000  0.02991000  1
  C  C119  1  0.33598000  0.05138000  0.05655000  1
  C  C120  1  0.41757000  0.11832000  0.07640000  1
  N  N1  1  0.75580000  0.38593000  0.99643000  1
  N  N2  1  0.61747000  0.32542000  0.01013000  1
  N  N3  1  0.64273000  0.22678000  0.01406000  1
  N  N4  1  0.63029000  0.23348000  0.50521000  1
  N  N5  1  0.61515000  0.32969000  0.51101000  1
  N  N6  1  0.75647000  0.38992000  0.49999000  1
  N  N7  1  0.38650000  0.67810000  0.18553000  1
  N  N8  1  0.40238000  0.57641000  0.18547000  1
  N  N9  1  0.25089000  0.53026000  0.17858000  1
  N  N10  1  0.23453000  0.56890000  0.65087000  1
  N  N11  1  0.34963000  0.63575000  0.61983000  1
  N  N12  1  0.34088000  0.72907000  0.63160000  1
  O  O1  1  0.89465000  0.95630000  0.17695000  1
  O  O2  1  0.96172000  0.01741000  0.10831000  1
  O  O3  1  0.90848000  0.79615000  0.13119000  1
  O  O4  1  0.11496000  0.12667000  0.04683000  1
  O  O5  1  0.97816000  0.95493000  0.07661000  1
  O  O6  1  0.98700000  0.92005000  0.18403000  1
  O  O7  1  0.00621000  0.72615000  0.08039000  1
  O  O8  1  0.05618000  0.78731000  0.12636000  1
  O  O9  1  0.06762000  0.13520000  0.15774000  1
  O  O10  1  0.14904000  0.17739000  0.11774000  1
  O  O11  1  0.79034000  0.98102000  0.09998000  1
  O  O12  1  0.77975000  0.85281000  0.11374000  1
  O  O13  1  0.10110000  0.95597000  0.99184000  1
  O  O14  1  0.04051000  0.02459000  0.98500000  1
  O  O15  1  0.02422000  0.89730000  0.05653000  1
  O  O16  1  0.96054000  0.17945000  0.08382000  1
  O  O17  1  0.96206000  0.14542000  0.03932000  1
  O  O18  1  0.90986000  0.78638000  0.00835000  1
  O  O19  1  0.84644000  0.72726000  0.05918000  1
  O  O20  1  0.18776000  0.90874000  0.06877000  1
  O  O21  1  0.21722000  0.03799000  0.06795000  1
  O  O22  1  0.89084000  0.98916000  0.66527000  1
  O  O23  1  0.96726000  0.04573000  0.60048000  1
  O  O24  1  0.89237000  0.81607000  0.62303000  1
  O  O25  1  0.12148000  0.14347000  0.54181000  1
  O  O26  1  0.97878000  0.97479000  0.57081000  1
  O  O27  1  0.97390000  0.94011000  0.67539000  1
  O  O28  1  0.02355000  0.73962000  0.59201000  1
  O  O29  1  0.05120000  0.80429000  0.63210000  1
  O  O30  1  0.07839000  0.15768000  0.65181000  1
  O  O31  1  0.15925000  0.19960000  0.61169000  1
  O  O32  1  0.80657000  0.03373000  0.58586000  1
  O  O33  1  0.77719000  0.89324000  0.60227000  1
  O  O34  1  0.12171000  0.96034000  0.50043000  1
  O  O35  1  0.05722000  0.03156000  0.48653000  1
  O  O36  1  0.03319000  0.91071000  0.55914000  1
  O  O37  1  0.98770000  0.21878000  0.57610000  1
  O  O38  1  0.97659000  0.17460000  0.53192000  1
  O  O39  1  0.93130000  0.79281000  0.51509000  1
  O  O40  1  0.85386000  0.74066000  0.55954000  1
  O  O41  1  0.20488000  0.92359000  0.57987000  1
  O  O42  1  0.22489000  0.05159000  0.57380000  1
  F  F1  1  0.21335000  0.51621000  0.56747000  1
  F  F2  1  0.18710000  0.36846000  0.56762000  1
  F  F3  1  0.27230000  0.42470000  0.70420000  1
  F  F4  1  0.23804000  0.27258000  0.70403000  1
  F  F5  1  0.58551000  0.84248000  0.54090000  1
  F  F6  1  0.40471000  0.74845000  0.54728000  1
  F  F7  1  0.71573000  0.96533000  0.64595000  1
  F  F8  1  0.53591000  0.86531000  0.65458000  1
  F  F9  1  0.97273000  0.55836000  0.65836000  1
  F  F10  1  0.07624000  0.51181000  0.66152000  1
  F  F11  1  0.25383000  0.85982000  0.66573000  1
  F  F12  1  0.36096000  0.81106000  0.67410000  1
  F  F13  1  0.23471000  0.50411000  0.10362000  1
  F  F14  1  0.18176000  0.36551000  0.08271000  1
  F  F15  1  0.30689000  0.36104000  0.23542000  1
  F  F16  1  0.24984000  0.22070000  0.21446000  1
  F  F17  1  0.74182000  0.76172000  0.18367000  1
  F  F18  1  0.60916000  0.66880000  0.22346000  1
  F  F19  1  0.60096000  0.91520000  0.08503000  1
  F  F20  1  0.46350000  0.81634000  0.12351000  1
  F  F21  1  0.14483000  0.75473000  0.07211000  1
  F  F22  1  0.24515000  0.68549000  0.10306000  1
  F  F23  1  0.10937000  0.67448000  0.19653000  1
  F  F24  1  0.21581000  0.60819000  0.22770000  1
  F  F25  1  0.76512000  0.09954000  0.50220000  1
  F  F26  1  0.64568000  0.14259000  0.48433000  1
  F  F27  1  0.03517000  0.40343000  0.51283000  1
  F  F28  1  0.91745000  0.44782000  0.49511000  1
  F  F29  1  0.77485000  0.42347000  0.58056000  1
  F  F30  1  0.82227000  0.56909000  0.59337000  1
  F  F31  1  0.71081000  0.54871000  0.44547000  1
  F  F32  1  0.76119000  0.69603000  0.45823000  1
  F  F33  1  0.54676000  0.08644000  0.57106000  1
  F  F34  1  0.39938000  0.98593000  0.60463000  1
  F  F35  1  0.41284000  0.24117000  0.46729000  1
  F  F36  1  0.27727000  0.15466000  0.50433000  1
  F  F37  1  0.64406000  0.14768000  0.97672000  1
  F  F38  1  0.75013000  0.08570000  0.00015000  1
  F  F39  1  0.92803000  0.42869000  0.01048000  1
  F  F40  1  0.03413000  0.37131000  0.02810000  1
  F  F41  1  0.81993000  0.56238000  0.08949000  1
  F  F42  1  0.78880000  0.42752000  0.07520000  1
  F  F43  1  0.73628000  0.68118000  0.95488000  1
  F  F44  1  0.69543000  0.54016000  0.94086000  1
  F  F45  1  0.41208000  0.13010000  0.10443000  1
  F  F46  1  0.58366000  0.23928000  0.08611000  1
  F  F47  1  0.26713000  0.96596000  0.01235000  1
  F  F48  1  0.43696000  0.07906000  0.99230000  1
