# generated using pymatgen
data_Zn2H11(C9O4)2
_symmetry_space_group_name_H-M   'P 1'
_cell_length_a   19.05380000
_cell_length_b   16.97928000
_cell_length_c   37.01356000
_cell_angle_alpha   88.28727000
_cell_angle_beta   88.43889000
_cell_angle_gamma   107.44372000
_symmetry_Int_Tables_number   1
_chemical_formula_structural   Zn2H11(C9O4)2
_chemical_formula_sum   'Zn24 H132 C216 O96'
_cell_volume   11410.59348115
_cell_formula_units_Z   12
loop_
 _symmetry_equiv_pos_site_id
 _symmetry_equiv_pos_as_xyz
  1  'x, y, z'
loop_
 _atom_site_type_symbol
 _atom_site_label
 _atom_site_symmetry_multiplicity
 _atom_site_fract_x
 _atom_site_fract_y
 _atom_site_fract_z
 _atom_site_occupancy
  Zn  Zn1  1  0.58475000  0.31772000  0.88485000  1
  Zn  Zn2  1  0.69722000  0.46170000  0.92980000  1
  Zn  Zn3  1  0.75775000  0.36264000  0.87751000  1
  Zn  Zn4  1  0.63472000  0.19229000  0.84364000  1
  Zn  Zn5  1  0.63730000  0.39892000  0.54705000  1
  Zn  Zn6  1  0.51960000  0.25013000  0.50500000  1
  Zn  Zn7  1  0.56971000  0.21731000  0.57985000  1
  Zn  Zn8  1  0.72474000  0.35421000  0.60516000  1
  Zn  Zn9  1  0.94028000  0.90899000  0.71396000  1
  Zn  Zn10  1  0.06296000  0.92612000  0.77670000  1
  Zn  Zn11  1  0.08608000  0.05404000  0.71399000  1
  Zn  Zn12  1  0.97873000  0.00960000  0.64115000  1
  Zn  Zn13  1  0.31659000  0.71099000  0.38764000  1
  Zn  Zn14  1  0.20378000  0.56748000  0.43944000  1
  Zn  Zn15  1  0.14490000  0.66908000  0.38516000  1
  Zn  Zn16  1  0.27297000  0.84806000  0.35428000  1
  Zn  Zn17  1  0.20622000  0.73131000  0.06634000  1
  Zn  Zn18  1  0.35595000  0.84632000  0.10427000  1
  Zn  Zn19  1  0.36958000  0.72879000  0.04692000  1
  Zn  Zn20  1  0.21371000  0.59081000  0.01892000  1
  Zn  Zn21  1  0.98568000  0.15676000  0.21514000  1
  Zn  Zn22  1  0.86425000  0.13686000  0.28443000  1
  Zn  Zn23  1  0.84130000  0.01215000  0.22511000  1
  Zn  Zn24  1  0.93161000  0.07570000  0.14503000  1
  H  H1  1  0.68431000  0.30639000  0.93634000  1
  H  H2  1  0.65730000  0.34255000  0.82665000  1
  H  H3  1  0.64655000  0.24995000  0.52198000  1
  H  H4  1  0.59370000  0.36362000  0.61183000  1
  H  H5  1  0.08314000  0.90367000  0.70868000  1
  H  H6  1  0.95207000  0.05631000  0.70234000  1
  H  H7  1  0.21405000  0.72048000  0.44069000  1
  H  H8  1  0.24896000  0.70291000  0.33071000  1
  H  H9  1  0.30702000  0.68908000  0.10909000  1
  H  H10  1  0.26322000  0.74488000  0.00315000  1
  H  H11  1  0.84191000  0.16116000  0.21728000  1
  H  H12  1  0.97092000  0.01077000  0.20087000  1
  H  H13  1  0.02111000  0.28584000  0.09008000  1
  H  H14  1  0.05946000  0.54769000  0.15416000  1
  H  H15  1  0.11229000  0.41345000  0.06566000  1
  H  H16  1  0.91205000  0.43231000  0.17619000  1
  H  H17  1  0.75138000  0.94063000  0.08375000  1
  H  H18  1  0.52489000  0.82316000  0.16130000  1
  H  H19  1  0.63347000  0.87132000  0.05595000  1
  H  H20  1  0.64923000  0.84891000  0.20768000  1
  H  H21  1  0.14355000  0.12125000  0.08707000  1
  H  H22  1  0.17749000  0.90853000  0.17395000  1
  H  H23  1  0.18660000  0.00749000  0.06487000  1
  H  H24  1  0.08552000  0.98729000  0.21050000  1
  H  H25  1  0.64178000  0.84194000  0.27788000  1
  H  H26  1  0.51418000  0.99633000  0.35431000  1
  H  H27  1  0.51335000  0.77585000  0.29927000  1
  H  H28  1  0.63912000  0.11636000  0.31538000  1
  H  H29  1  0.09878000  0.23430000  0.34272000  1
  H  H30  1  0.13521000  0.51610000  0.28928000  1
  H  H31  1  0.15884000  0.35608000  0.37765000  1
  H  H32  1  0.11149000  0.39671000  0.22986000  1
  H  H33  1  0.88886000  0.82102000  0.30890000  1
  H  H34  1  0.15067000  0.97464000  0.32799000  1
  H  H35  1  0.96793000  0.75111000  0.34006000  1
  H  H36  1  0.09983000  0.06070000  0.27069000  1
  H  H37  1  0.37270000  0.93735000  0.54791000  1
  H  H38  1  0.47480000  0.97460000  0.42145000  1
  H  H39  1  0.23139000  0.61835000  0.52219000  1
  H  H40  1  0.11136000  0.64697000  0.52747000  1
  H  H41  1  0.10527000  0.78977000  0.51745000  1
  H  H42  1  0.21898000  0.90432000  0.50218000  1
  H  H43  1  0.34551000  0.73233000  0.50702000  1
  H  H44  1  0.62404000  0.01399000  0.50237000  1
  H  H45  1  0.74470000  0.11957000  0.49010000  1
  H  H46  1  0.52321000  0.14918000  0.43052000  1
  H  H47  1  0.64408000  0.25444000  0.41869000  1
  H  H48  1  0.75484000  0.23974000  0.44835000  1
  H  H49  1  0.79459000  0.40638000  0.45185000  1
  H  H50  1  0.03388000  0.50162000  0.51201000  1
  H  H51  1  0.87558000  0.59744000  0.33713000  1
  H  H52  1  0.92223000  0.50321000  0.30005000  1
  H  H53  1  0.95959000  0.39000000  0.32975000  1
  H  H54  1  0.95223000  0.37192000  0.39649000  1
  H  H55  1  0.86793000  0.58011000  0.40394000  1
  H  H56  1  0.94673000  0.54044000  0.57535000  1
  H  H57  1  0.95281000  0.50216000  0.63997000  1
  H  H58  1  0.90873000  0.28608000  0.54861000  1
  H  H59  1  0.91532000  0.24862000  0.61333000  1
  H  H60  1  0.93653000  0.35628000  0.65906000  1
  H  H61  1  0.35123000  0.42471000  0.41491000  1
  H  H62  1  0.56697000  0.58536000  0.48156000  1
  H  H63  1  0.25960000  0.19636000  0.51250000  1
  H  H64  1  0.29337000  0.09466000  0.47440000  1
  H  H65  1  0.39093000  0.14261000  0.42608000  1
  H  H66  1  0.45662000  0.29190000  0.41649000  1
  H  H67  1  0.32718000  0.34533000  0.50446000  1
  H  H68  1  0.47603000  0.70326000  0.49657000  1
  H  H69  1  0.53143000  0.85501000  0.49060000  1
  H  H70  1  0.54462000  0.68239000  0.38622000  1
  H  H71  1  0.60123000  0.83404000  0.38095000  1
  H  H72  1  0.59454000  0.92040000  0.43290000  1
  H  H73  1  0.81323000  0.07115000  0.70597000  1
  H  H74  1  0.64437000  0.01517000  0.60372000  1
  H  H75  1  0.75432000  0.17513000  0.68634000  1
  H  H76  1  0.73606000  0.90711000  0.59827000  1
  H  H77  1  0.21486000  0.03316000  0.59292000  1
  H  H78  1  0.33807000  0.33435000  0.60179000  1
  H  H79  1  0.33878000  0.09601000  0.56546000  1
  H  H80  1  0.22336000  0.28678000  0.65782000  1
  H  H81  1  0.95947000  0.75272000  0.58640000  1
  H  H82  1  0.70717000  0.62274000  0.63953000  1
  H  H83  1  0.87448000  0.63383000  0.55744000  1
  H  H84  1  0.79468000  0.70989000  0.69573000  1
  H  H85  1  0.99007000  0.58768000  0.90618000  1
  H  H86  1  0.93780000  0.57422000  0.03889000  1
  H  H87  1  0.21064000  0.88337000  0.93213000  1
  H  H88  1  0.29685000  0.81587000  0.90472000  1
  H  H89  1  0.26034000  0.66340000  0.90146000  1
  H  H90  1  0.13816000  0.57793000  0.92584000  1
  H  H91  1  0.08756000  0.79878000  0.95600000  1
  H  H92  1  0.77812000  0.57598000  0.00762000  1
  H  H93  1  0.65410000  0.48459000  0.02661000  1
  H  H94  1  0.85607000  0.36311000  0.00084000  1
  H  H95  1  0.73180000  0.27248000  0.01994000  1
  H  H96  1  0.63057000  0.33290000  0.03225000  1
  H  H97  1  0.35457000  0.91841000  0.95552000  1
  H  H98  1  0.57169000  0.14719000  0.98927000  1
  H  H99  1  0.26999000  0.97188000  0.84726000  1
  H  H100  1  0.35271000  0.92918000  0.80444000  1
  H  H101  1  0.48081000  0.94149000  0.82062000  1
  H  H102  1  0.52468000  0.99015000  0.88061000  1
  H  H103  1  0.31400000  0.02418000  0.90668000  1
  H  H104  1  0.40322000  0.07294000  0.06453000  1
  H  H105  1  0.43947000  0.09464000  0.12801000  1
  H  H106  1  0.61186000  0.03439000  0.03760000  1
  H  H107  1  0.64907000  0.06167000  0.10069000  1
  H  H108  1  0.56221000  0.08887000  0.14616000  1
  H  H109  1  0.53459000  0.59812000  0.91222000  1
  H  H110  1  0.33786000  0.41895000  0.99481000  1
  H  H111  1  0.60786000  0.84977000  0.98672000  1
  H  H112  1  0.54460000  0.92521000  0.94726000  1
  H  H113  1  0.43443000  0.84754000  0.91468000  1
  H  H114  1  0.39100000  0.69545000  0.91925000  1
  H  H115  1  0.56517000  0.69681000  0.99127000  1
  H  H116  1  0.46212000  0.32681000  0.00344000  1
  H  H117  1  0.41274000  0.17493000  0.01181000  1
  H  H118  1  0.33994000  0.31631000  0.90647000  1
  H  H119  1  0.29200000  0.16413000  0.91489000  1
  H  H120  1  0.32576000  0.09385000  0.96835000  1
  H  H121  1  0.85865000  0.04003000  0.76800000  1
  H  H122  1  0.94609000  0.27570000  0.84862000  1
  H  H123  1  0.76908000  0.09862000  0.79733000  1
  H  H124  1  0.07122000  0.26893000  0.80083000  1
  H  H125  1  0.33499000  0.05908000  0.74326000  1
  H  H126  1  0.35399000  0.22135000  0.85393000  1
  H  H127  1  0.45631000  0.12110000  0.76901000  1
  H  H128  1  0.21273000  0.21091000  0.82053000  1
  H  H129  1  0.86076000  0.67412000  0.75109000  1
  H  H130  1  0.74666000  0.67014000  0.87365000  1
  H  H131  1  0.78429000  0.54226000  0.77970000  1
  H  H132  1  0.86818000  0.82261000  0.86342000  1
  C  C1  1  0.79598000  0.22099000  0.84542000  1
  C  C2  1  0.73790000  0.51763000  0.85014000  1
  C  C3  1  0.48461000  0.20465000  0.83087000  1
  C  C4  1  0.54143000  0.44400000  0.92218000  1
  C  C5  1  0.54628000  0.15378000  0.91849000  1
  C  C6  1  0.85341000  0.49297000  0.92562000  1
  C  C7  1  0.67784000  0.17189000  0.62573000  1
  C  C8  1  0.42826000  0.25038000  0.57530000  1
  C  C9  1  0.74663000  0.53310000  0.58821000  1
  C  C10  1  0.53838000  0.42130000  0.49172000  1
  C  C11  1  0.77947000  0.39000000  0.52469000  1
  C  C12  1  0.47647000  0.08307000  0.53180000  1
  C  C13  1  0.14023000  0.10537000  0.63801000  1
  C  C14  1  0.00456000  0.08093000  0.77790000  1
  C  C15  1  0.82445000  0.94688000  0.66514000  1
  C  C16  1  0.90777000  0.82035000  0.78292000  1
  C  C17  1  0.93694000  0.81747000  0.65067000  1
  C  C18  1  0.20246000  0.06186000  0.77002000  1
  C  C19  1  0.11258000  0.81857000  0.35666000  1
  C  C20  1  0.16410000  0.51441000  0.36055000  1
  C  C21  1  0.42685000  0.84257000  0.34015000  1
  C  C22  1  0.35804000  0.58172000  0.42300000  1
  C  C23  1  0.34687000  0.85487000  0.42906000  1
  C  C24  1  0.04666000  0.54118000  0.44113000  1
  C  C25  1  0.36127000  0.58052000  0.00577000  1
  C  C26  1  0.39198000  0.90101000  0.02378000  1
  C  C27  1  0.08082000  0.63829000  0.01921000  1
  C  C28  1  0.21698000  0.88657000  0.10540000  1
  C  C29  1  0.15583000  0.56313000  0.09665000  1
  C  C30  1  0.49943000  0.82481000  0.09063000  1
  C  C31  1  0.77431000  0.96913000  0.15506000  1
  C  C32  1  0.92519000  0.98278000  0.28638000  1
  C  C33  1  0.08762000  0.13121000  0.15429000  1
  C  C34  1  0.02145000  0.23796000  0.28287000  1
  C  C35  1  0.96191000  0.26489000  0.15853000  1
  C  C36  1  0.72405000  0.00042000  0.28565000  1
  C  C37  1  0.09531000  0.48864000  0.10936000  1
  C  C38  1  0.08104000  0.41523000  0.09035000  1
  C  C39  1  0.02785000  0.34307000  0.10372000  1
  C  C40  1  0.98922000  0.34287000  0.13656000  1
  C  C41  1  0.99737000  0.41862000  0.15330000  1
  C  C42  1  0.05098000  0.49085000  0.13998000  1
  C  C43  1  0.57130000  0.84229000  0.10683000  1
  C  C44  1  0.63572000  0.87415000  0.08512000  1
  C  C45  1  0.70222000  0.91504000  0.10084000  1
  C  C46  1  0.70461000  0.92462000  0.13842000  1
  C  C47  1  0.64040000  0.88883000  0.16029000  1
  C  C48  1  0.57465000  0.84716000  0.14443000  1
  C  C49  1  0.18177000  0.94803000  0.11766000  1
  C  C50  1  0.17383000  0.00953000  0.09347000  1
  C  C51  1  0.15096000  0.07514000  0.10622000  1
  C  C52  1  0.13401000  0.07910000  0.14330000  1
  C  C53  1  0.14559000  0.01934000  0.16778000  1
  C  C54  1  0.16887000  0.95415000  0.15488000  1
  C  C55  1  0.50417000  0.88208000  0.32759000  1
  C  C56  1  0.54122000  0.83855000  0.30654000  1
  C  C57  1  0.61413000  0.87614000  0.29435000  1
  C  C58  1  0.65096000  0.95790000  0.30291000  1
  C  C59  1  0.61464000  0.00095000  0.32496000  1
  C  C60  1  0.54162000  0.96288000  0.33730000  1
  C  C61  1  0.14851000  0.44440000  0.33639000  1
  C  C62  1  0.14233000  0.36476000  0.35040000  1
  C  C63  1  0.10857000  0.29564000  0.33052000  1
  C  C64  1  0.08086000  0.30570000  0.29655000  1
  C  C65  1  0.09538000  0.38559000  0.28069000  1
  C  C66  1  0.12862000  0.45469000  0.30074000  1
  C  C67  1  0.06465000  0.85861000  0.33710000  1
  C  C68  1  0.99087000  0.81503000  0.33077000  1
  C  C69  1  0.94604000  0.85455000  0.31281000  1
  C  C70  1  0.97440000  0.93791000  0.30116000  1
  C  C71  1  0.04905000  0.98043000  0.30640000  1
  C  C72  1  0.09350000  0.94085000  0.32417000  1
  C  C73  1  0.38382000  0.90873000  0.45734000  1
  C  C74  1  0.35760000  0.89380000  0.49367000  1
  C  C75  1  0.39607000  0.94395000  0.52053000  1
  C  C76  1  0.46065000  0.00802000  0.51139000  1
  C  C77  1  0.49235000  0.01381000  0.47618000  1
  C  C78  1  0.45217000  0.96696000  0.44899000  1
  C  C79  1  0.56528000  0.07405000  0.46715000  1
  C  C80  1  0.62817000  0.06599000  0.48387000  1
  C  C81  1  0.69638000  0.12560000  0.47699000  1
  C  C82  1  0.70210000  0.19340000  0.45346000  1
  C  C83  1  0.63965000  0.20164000  0.43671000  1
  C  C84  1  0.57137000  0.14203000  0.44339000  1
  C  C85  1  0.29002000  0.82615000  0.50374000  1
  C  C86  1  0.29332000  0.74529000  0.50957000  1
  C  C87  1  0.22890000  0.68083000  0.51810000  1
  C  C88  1  0.16117000  0.69690000  0.52094000  1
  C  C89  1  0.15775000  0.77746000  0.51528000  1
  C  C90  1  0.22202000  0.84210000  0.50672000  1
  C  C91  1  0.97799000  0.49981000  0.46204000  1
  C  C92  1  0.91103000  0.46852000  0.44460000  1
  C  C93  1  0.84670000  0.42717000  0.46507000  1
  C  C94  1  0.84912000  0.41373000  0.50265000  1
  C  C95  1  0.91795000  0.43751000  0.51931000  1
  C  C96  1  0.98141000  0.48206000  0.49905000  1
  C  C97  1  0.92449000  0.41540000  0.55773000  1
  C  C98  1  0.93899000  0.47658000  0.58353000  1
  C  C99  1  0.94291000  0.45510000  0.62002000  1
  C  C100  1  0.93392000  0.37289000  0.63077000  1
  C  C101  1  0.92197000  0.31218000  0.60499000  1
  C  C102  1  0.91820000  0.33343000  0.56845000  1
  C  C103  1  0.90891000  0.47436000  0.40477000  1
  C  C104  1  0.88711000  0.53784000  0.38786000  1
  C  C105  1  0.89185000  0.54804000  0.35014000  1
  C  C106  1  0.91814000  0.49488000  0.32922000  1
  C  C107  1  0.93921000  0.43103000  0.34596000  1
  C  C108  1  0.93455000  0.42058000  0.38365000  1
  C  C109  1  0.49341000  0.46403000  0.47249000  1
  C  C110  1  0.43242000  0.41836000  0.45302000  1
  C  C111  1  0.39879000  0.45971000  0.42926000  1
  C  C112  1  0.41698000  0.54563000  0.42891000  1
  C  C113  1  0.48025000  0.59140000  0.44633000  1
  C  C114  1  0.51800000  0.55031000  0.46825000  1
  C  C115  1  0.50700000  0.68236000  0.44187000  1
  C  C116  1  0.50271000  0.73154000  0.47117000  1
  C  C117  1  0.53407000  0.81726000  0.46786000  1
  C  C118  1  0.56947000  0.85416000  0.43531000  1
  C  C119  1  0.57286000  0.80551000  0.40591000  1
  C  C120  1  0.54118000  0.71981000  0.40901000  1
  C  C121  1  0.39783000  0.32874000  0.46049000  1
  C  C122  1  0.34176000  0.30134000  0.48746000  1
  C  C123  1  0.30369000  0.21716000  0.49213000  1
  C  C124  1  0.32211000  0.15992000  0.47035000  1
  C  C125  1  0.37744000  0.18693000  0.44324000  1
  C  C126  1  0.41469000  0.27124000  0.43796000  1
  C  C127  1  0.69836000  0.10365000  0.64262000  1
  C  C128  1  0.74244000  0.11710000  0.67282000  1
  C  C129  1  0.77518000  0.05784000  0.68415000  1
  C  C130  1  0.76651000  0.98657000  0.66438000  1
  C  C131  1  0.71540000  0.96874000  0.63685000  1
  C  C132  1  0.68082000  0.02712000  0.62624000  1
  C  C133  1  0.34778000  0.21943000  0.58228000  1
  C  C134  1  0.31119000  0.13491000  0.57880000  1
  C  C135  1  0.24077000  0.09905000  0.59457000  1
  C  C136  1  0.20642000  0.14675000  0.61468000  1
  C  C137  1  0.24062000  0.23285000  0.61594000  1
  C  C138  1  0.31091000  0.26887000  0.59948000  1
  C  C139  1  0.78562000  0.61867000  0.59715000  1
  C  C140  1  0.85599000  0.65794000  0.58147000  1
  C  C141  1  0.90442000  0.72517000  0.59803000  1
  C  C142  1  0.88301000  0.75346000  0.63056000  1
  C  C143  1  0.81034000  0.71745000  0.64484000  1
  C  C144  1  0.76174000  0.65185000  0.62756000  1
  C  C145  1  0.01828000  0.62529000  0.99571000  1
  C  C146  1  0.03191000  0.63145000  0.95787000  1
  C  C147  1  0.97939000  0.58321000  0.93523000  1
  C  C148  1  0.91283000  0.53023000  0.94987000  1
  C  C149  1  0.89699000  0.52894000  0.98739000  1
  C  C150  1  0.94888000  0.57830000  0.00988000  1
  C  C151  1  0.82577000  0.47587000  0.00319000  1
  C  C152  1  0.76864000  0.50994000  0.01084000  1
  C  C153  1  0.69842000  0.45835000  0.02135000  1
  C  C154  1  0.68514000  0.37280000  0.02451000  1
  C  C155  1  0.74222000  0.33873000  0.01754000  1
  C  C156  1  0.81248000  0.39005000  0.00695000  1
  C  C157  1  0.10403000  0.68254000  0.94217000  1
  C  C158  1  0.12493000  0.76893000  0.94399000  1
  C  C159  1  0.19450000  0.81681000  0.93059000  1
  C  C160  1  0.24323000  0.77875000  0.91525000  1
  C  C161  1  0.22265000  0.69276000  0.91341000  1
  C  C162  1  0.15333000  0.64460000  0.92692000  1
  C  C163  1  0.50628000  0.08854000  0.94539000  1
  C  C164  1  0.44326000  0.02472000  0.93595000  1
  C  C165  1  0.40138000  0.96891000  0.96296000  1
  C  C166  1  0.42268000  0.97383000  0.99892000  1
  C  C167  1  0.48389000  0.03962000  0.00859000  1
  C  C168  1  0.52533000  0.09620000  0.98173000  1
  C  C169  1  0.50455000  0.05074000  0.04676000  1
  C  C170  1  0.45648000  0.06902000  0.07237000  1
  C  C171  1  0.47704000  0.08182000  0.10821000  1
  C  C172  1  0.54626000  0.07862000  0.11844000  1
  C  C173  1  0.59505000  0.06264000  0.09285000  1
  C  C174  1  0.57412000  0.04788000  0.05716000  1
  C  C175  1  0.42286000  0.01201000  0.89774000  1
  C  C176  1  0.35120000  0.00780000  0.88780000  1
  C  C177  1  0.32591000  0.97729000  0.85437000  1
  C  C178  1  0.37245000  0.95288000  0.83030000  1
  C  C179  1  0.44469000  0.95994000  0.83940000  1
  C  C180  1  0.46993000  0.98915000  0.87305000  1
  C  C181  1  0.40030000  0.54452000  0.97914000  1
  C  C182  1  0.45461000  0.59518000  0.95483000  1
  C  C183  1  0.49105000  0.55900000  0.93004000  1
  C  C184  1  0.47933000  0.47357000  0.93167000  1
  C  C185  1  0.42071000  0.42268000  0.95360000  1
  C  C186  1  0.38127000  0.45840000  0.97704000  1
  C  C187  1  0.40399000  0.33201000  0.95449000  1
  C  C188  1  0.42578000  0.29151000  0.98376000  1
  C  C189  1  0.39789000  0.20570000  0.98857000  1
  C  C190  1  0.34921000  0.15993000  0.96392000  1
  C  C191  1  0.32983000  0.19966000  0.93390000  1
  C  C192  1  0.35723000  0.28559000  0.92910000  1
  C  C193  1  0.47506000  0.68584000  0.95554000  1
  C  C194  1  0.53617000  0.72966000  0.97473000  1
  C  C195  1  0.56059000  0.81596000  0.97205000  1
  C  C196  1  0.52465000  0.85853000  0.94995000  1
  C  C197  1  0.46284000  0.81490000  0.93141000  1
  C  C198  1  0.43794000  0.72883000  0.93427000  1
  C  C199  1  0.85084000  0.19000000  0.82581000  1
  C  C200  1  0.82712000  0.12481000  0.80218000  1
  C  C201  1  0.87805000  0.09221000  0.78514000  1
  C  C202  1  0.95350000  0.12488000  0.79106000  1
  C  C203  1  0.97804000  0.19277000  0.81331000  1
  C  C204  1  0.92678000  0.22495000  0.83073000  1
  C  C205  1  0.41324000  0.17398000  0.81371000  1
  C  C206  1  0.40760000  0.12966000  0.78198000  1
  C  C207  1  0.33883000  0.09455000  0.76737000  1
  C  C208  1  0.27494000  0.10274000  0.78454000  1
  C  C209  1  0.28081000  0.15010000  0.81553000  1
  C  C210  1  0.34989000  0.18578000  0.82989000  1
  C  C211  1  0.76211000  0.59669000  0.82911000  1
  C  C212  1  0.79145000  0.59904000  0.79376000  1
  C  C213  1  0.83483000  0.67380000  0.77754000  1
  C  C214  1  0.84898000  0.74694000  0.79641000  1
  C  C215  1  0.81438000  0.74602000  0.83053000  1
  C  C216  1  0.77022000  0.67105000  0.84660000  1
  O  O1  1  0.52843000  0.15724000  0.83239000  1
  O  O2  1  0.50131000  0.27642000  0.84657000  1
  O  O3  1  0.68111000  0.34539000  0.91648000  1
  O  O4  1  0.59637000  0.45865000  0.94404000  1
  O  O5  1  0.53086000  0.22377000  0.91716000  1
  O  O6  1  0.54570000  0.41205000  0.89058000  1
  O  O7  1  0.60378000  0.14630000  0.89999000  1
  O  O8  1  0.80060000  0.52658000  0.92242000  1
  O  O9  1  0.84634000  0.41973000  0.91260000  1
  O  O10  1  0.66081000  0.31235000  0.84950000  1
  O  O11  1  0.72988000  0.16923000  0.85329000  1
  O  O12  1  0.77906000  0.46756000  0.84865000  1
  O  O13  1  0.81884000  0.29178000  0.86192000  1
  O  O14  1  0.68419000  0.50476000  0.87497000  1
  O  O15  1  0.77629000  0.47447000  0.59710000  1
  O  O16  1  0.68362000  0.51595000  0.57131000  1
  O  O17  1  0.60858000  0.27167000  0.53299000  1
  O  O18  1  0.54862000  0.35594000  0.47774000  1
  O  O19  1  0.72869000  0.42463000  0.51740000  1
  O  O20  1  0.56392000  0.44475000  0.52375000  1
  O  O21  1  0.76861000  0.33547000  0.55177000  1
  O  O22  1  0.45242000  0.14248000  0.51945000  1
  O  O23  1  0.52668000  0.09761000  0.55654000  1
  O  O24  1  0.62060000  0.33961000  0.59414000  1
  O  O25  1  0.73042000  0.23965000  0.61515000  1
  O  O26  1  0.47018000  0.21853000  0.59499000  1
  O  O27  1  0.60907000  0.15906000  0.61682000  1
  O  O28  1  0.45579000  0.29527000  0.54552000  1
  O  O29  1  0.87162000  0.95954000  0.63714000  1
  O  O30  1  0.83484000  0.90910000  0.69545000  1
  O  O31  1  0.05487000  0.93273000  0.72316000  1
  O  O32  1  0.97659000  0.82728000  0.79038000  1
  O  O33  1  0.93541000  0.81200000  0.68594000  1
  O  O34  1  0.89179000  0.87610000  0.76197000  1
  O  O35  1  0.98241000  0.88276000  0.63358000  1
  O  O36  1  0.14822000  0.01833000  0.79193000  1
  O  O37  1  0.19194000  0.07145000  0.73547000  1
  O  O38  1  0.98149000  0.02058000  0.69412000  1
  O  O39  1  0.08708000  0.04379000  0.62536000  1
  O  O40  1  0.05661000  0.11677000  0.75325000  1
  O  O41  1  0.13905000  0.12547000  0.67219000  1
  O  O42  1  0.99212000  0.00281000  0.78802000  1
  O  O43  1  0.38250000  0.88877000  0.34475000  1
  O  O44  1  0.40437000  0.76275000  0.34896000  1
  O  O45  1  0.21921000  0.68216000  0.42192000  1
  O  O46  1  0.30631000  0.57087000  0.44842000  1
  O  O47  1  0.36974000  0.79283000  0.42044000  1
  O  O48  1  0.35164000  0.61444000  0.39116000  1
  O  O49  1  0.29254000  0.87000000  0.41194000  1
  O  O50  1  0.09880000  0.50561000  0.43984000  1
  O  O51  1  0.05463000  0.61188000  0.42323000  1
  O  O52  1  0.24379000  0.72569000  0.35461000  1
  O  O53  1  0.17650000  0.86511000  0.36752000  1
  O  O54  1  0.12446000  0.56603000  0.35866000  1
  O  O55  1  0.08537000  0.74129000  0.36915000  1
  O  O56  1  0.21327000  0.52101000  0.38561000  1
  O  O57  1  0.10862000  0.57730000  0.02442000  1
  O  O58  1  0.11065000  0.71064000  0.03353000  1
  O  O59  1  0.30770000  0.73194000  0.09024000  1
  O  O60  1  0.27030000  0.87467000  0.12431000  1
  O  O61  1  0.14757000  0.63697000  0.09926000  1
  O  O62  1  0.19350000  0.84269000  0.07667000  1
  O  O63  1  0.20943000  0.55446000  0.07569000  1
  O  O64  1  0.46263000  0.87814000  0.09402000  1
  O  O65  1  0.46890000  0.75304000  0.07651000  1
  O  O66  1  0.26492000  0.70993000  0.02481000  1
  O  O67  1  0.29288000  0.53944000  0.01493000  1
  O  O68  1  0.41154000  0.83394000  0.01870000  1
  O  O69  1  0.40015000  0.63606000  0.02738000  1
  O  O70  1  0.34754000  0.90413000  0.05139000  1
  O  O71  1  0.03527000  0.13674000  0.13270000  1
  O  O72  1  0.08817000  0.15701000  0.18795000  1
  O  O73  1  0.87179000  0.13281000  0.23102000  1
  O  O74  1  0.95270000  0.23310000  0.29192000  1
  O  O75  1  0.99081000  0.26004000  0.18967000  1
  O  O76  1  0.03693000  0.18521000  0.26074000  1
  O  O77  1  0.91471000  0.19899000  0.14568000  1
  O  O78  1  0.77718000  0.04609000  0.30492000  1
  O  O79  1  0.73590000  0.98970000  0.25130000  1
  O  O80  1  0.94098000  0.04864000  0.19702000  1
  O  O81  1  0.82172000  0.03308000  0.13750000  1
  O  O82  1  0.87567000  0.94780000  0.26285000  1
  O  O83  1  0.78891000  0.94253000  0.18692000  1
  O  O84  1  0.93382000  0.05908000  0.29590000  1
  O  O85  1  0.95722000  0.42074000  0.18439000  1
  O  O86  1  0.64061000  0.89923000  0.19688000  1
  O  O87  1  0.13544000  0.02510000  0.20430000  1
  O  O88  1  0.65020000  0.08005000  0.33446000  1
  O  O89  1  0.07048000  0.39633000  0.24702000  1
  O  O90  1  0.07814000  0.06168000  0.29524000  1
  O  O91  1  0.70112000  0.89555000  0.61953000  1
  O  O92  1  0.20529000  0.28188000  0.63285000  1
  O  O93  1  0.78672000  0.74604000  0.67571000  1
  O  O94  1  0.05151000  0.22463000  0.81978000  1
  O  O95  1  0.21907000  0.16025000  0.83220000  1
  O  O96  1  0.82473000  0.81791000  0.84850000  1
