# Generated by REPEAT Assigner based on pymatgen
data_DB7-ddmof_21028
_audit_creation_date              2022-05-24
_audit_creation_method            REPEAT_Assigner
_cell_length_a                    18.921690
_cell_length_b                    17.148810
_cell_length_c                    37.056300
_cell_angle_alpha                 88.274680
_cell_angle_beta                  88.440200
_cell_angle_gamma                 107.459190
_cell_volume                      11456.759711
_symmetry_space_group_name_H-M    P1
_symmetry_Int_Tables_number       1
loop_
    _symmetry_equiv_pos_site_id
    _symmetry_equiv_pos_as_xyz
    1  x,y,z
loop_
    _atom_site_type_symbol
    _atom_site_label
    _atom_site_fract_x
    _atom_site_fract_y
    _atom_site_fract_z
    _atom_type_partial_charge
    Zn  Zn1   0.568260  0.321880  0.887630  1.452796
    Zn  Zn2   0.675640  0.462240  0.935500  1.220471
    C   C1    0.784560  0.236200  0.847360  0.602429
    Zn  Zn3   0.741550  0.373180  0.879910  1.378541
    Zn  Zn4   0.620870  0.198490  0.849090  1.127907
    H   H1    0.670450  0.311770  0.938130  0.433428
    C   C2    0.716430  0.526640  0.856010  0.982876
    O   O1    0.511210  0.154860  0.843000  -0.710471
    O   O2    0.483880  0.275320  0.850610  -0.594887
    O   O3    0.665170  0.351150  0.919080  -1.180483
    O   O4    0.571120  0.452680  0.947580  -0.751758
    O   O5    0.517650  0.229390  0.920590  -0.686363
    O   O6    0.526390  0.413170  0.892240  -0.769690
    O   O7    0.601410  0.162730  0.906840  -0.608933
    O   O8    0.779860  0.529930  0.931840  -0.690069
    H   H2    0.639390  0.346300  0.828870  0.382713
    O   O9    0.829740  0.430000  0.915130  -0.599905
    O   O10   0.644630  0.318540  0.852010  -1.123762
    O   O11   0.719970  0.182100  0.856230  -0.535983
    O   O12   0.759000  0.478620  0.852480  -0.722483
    O   O13   0.805910  0.307000  0.863400  -0.658683
    O   O14   0.664030  0.511210  0.881720  -0.719645
    C   C3    0.464710  0.198930  0.840600  0.623132
    C   C4    0.520000  0.444600  0.923590  0.943039
    C   C5    0.543220  0.167380  0.925890  0.756864
    C   C6    0.835610  0.499590  0.930750  0.605940
    Zn  Zn5   0.644330  0.409170  0.550200  1.347149
    Zn  Zn6   0.486310  0.287750  0.514810  1.073412
    C   C7    0.698740  0.156100  0.593060  0.839370
    Zn  Zn7   0.586940  0.214980  0.558360  1.363877
    Zn  Zn8   0.745460  0.337030  0.593290  1.174616
    H   H3    0.620390  0.294970  0.499150  0.346191
    C   C8    0.447480  0.218870  0.592130  0.862329
    O   O15   0.799560  0.454910  0.592270  -0.760033
    O   O16   0.701920  0.505360  0.584880  -0.723124
    O   O17   0.593760  0.302710  0.521480  -1.036135
    O   O18   0.477710  0.399450  0.512180  -0.558306
    O   O19   0.729570  0.439620  0.515270  -0.692924
    O   O20   0.575890  0.474430  0.543090  -0.547758
    O   O21   0.775810  0.338640  0.535830  -0.610954
    O   O22   0.434880  0.169360  0.515320  -0.657935
    H   H4    0.610970  0.329310  0.609670  0.428166
    O   O23   0.534110  0.121450  0.522030  -0.664062
    O   O24   0.637510  0.321670  0.587290  -1.209019
    O   O25   0.752190  0.223580  0.598830  -0.686452
    O   O26   0.497570  0.179580  0.591550  -0.775302
    O   O27   0.658190  0.152070  0.564470  -0.625381
    O   O28   0.458380  0.286090  0.571980  -0.584050
    C   C9    0.767830  0.512120  0.597600  0.902577
    C   C10   0.532630  0.466830  0.515350  0.581972
    C   C11   0.781550  0.403210  0.514290  0.839769
    C   C12   0.469700  0.115890  0.507970  0.717532
    Zn  Zn9   0.921470  0.907200  0.719470  1.396902
    Zn  Zn10  0.027780  0.921260  0.790600  1.192806
    C   C13   0.152950  0.072580  0.655380  0.606005
    Zn  Zn11  0.072980  0.040630  0.725770  1.408672
    Zn  Zn12  0.987890  0.992950  0.647160  1.214004
    H   H5    0.060510  0.889230  0.725580  0.421377
    C   C14   0.985270  0.084030  0.783400  1.078687
    O   O29   0.882910  0.944830  0.634940  -0.731555
    O   O30   0.824480  0.912650  0.691420  -0.653313
    O   O31   0.031450  0.922060  0.736820  -1.181309
    O   O32   0.933710  0.831500  0.801670  -0.657915
    O   O33   0.916540  0.805510  0.696530  -0.723806
    O   O34   0.860850  0.882370  0.764820  -0.735127
    O   O35   0.992250  0.866240  0.648590  -0.721972
    O   O36   0.114870  0.007710  0.808510  -0.766625
    H   H6    0.947070  0.053860  0.702410  0.343200
    O   O37   0.171960  0.050880  0.753300  -0.730974
    O   O38   0.975150  0.014210  0.698830  -1.102490
    O   O39   0.099600  0.022020  0.637470  -0.634422
    O   O40   0.041340  0.112040  0.759840  -0.800992
    O   O41   0.138300  0.102760  0.685920  -0.600572
    O   O42   0.963050  0.006470  0.794200  -0.710400
    C   C15   0.825670  0.939330  0.657280  0.717748
    C   C16   0.868420  0.827090  0.788730  0.939801
    C   C17   0.939860  0.803560  0.663260  0.964726
    C   C18   0.174450  0.046330  0.788600  0.828649
    Zn  Zn13  0.325640  0.700950  0.385340  1.372589
    Zn  Zn14  0.201380  0.554880  0.433000  1.203139
    C   C19   0.116960  0.782790  0.331250  0.610155
    Zn  Zn15  0.157030  0.644250  0.368700  1.353467
    Zn  Zn16  0.282300  0.819070  0.336530  1.199222
    H   H7    0.205420  0.705960  0.427870  0.376323
    C   C20   0.190890  0.491660  0.355060  1.027265
    O   O43   0.392700  0.866320  0.334370  -0.749577
    O   O44   0.422830  0.750550  0.351710  -0.630290
    O   O45   0.218470  0.667270  0.411580  -1.137421
    O   O46   0.300350  0.561550  0.452390  -0.690127
    O   O47   0.361480  0.794140  0.416000  -0.722532
    O   O48   0.366460  0.613510  0.400000  -0.697024
    O   O49   0.282570  0.857300  0.392480  -0.655106
    O   O50   0.096860  0.489520  0.426360  -0.711633
    H   H8    0.276480  0.672570  0.323800  0.379011
    O   O51   0.057100  0.590610  0.400630  -0.572436
    O   O52   0.262230  0.699870  0.344730  -1.123486
    O   O53   0.181530  0.835090  0.338380  -0.643857
    O   O54   0.148840  0.538190  0.347010  -0.726559
    O   O55   0.098280  0.705360  0.342770  -0.611130
    O   O56   0.232600  0.505810  0.383470  -0.698129
    C   C21   0.441630  0.825300  0.336900  0.679558
    C   C22   0.364260  0.590990  0.434340  0.846415
    C   C23   0.333590  0.855060  0.415480  0.983748
    C   C24   0.044070  0.523400  0.421140  0.648485
    Zn  Zn17  0.212920  0.729770  0.062620  1.400773
    Zn  Zn18  0.355080  0.842720  0.108040  1.230235
    C   C25   0.367600  0.580500  0.016180  0.763456
    Zn  Zn19  0.381090  0.736060  0.049670  1.308018
    Zn  Zn20  0.235500  0.618700  0.003620  1.182603
    H   H9    0.309350  0.687370  0.108070  0.411751
    C   C26   0.402460  0.906130  0.028830  0.853978
    O   O57   0.155040  0.643700  0.979860  -0.787873
    O   O58   0.116210  0.705100  0.028140  -0.787563
    O   O59   0.312000  0.732360  0.090200  -1.120136
    O   O60   0.263300  0.864380  0.124810  -0.705245
    O   O61   0.161020  0.631310  0.092170  -0.782955
    O   O62   0.191680  0.833640  0.075020  -0.621996
    O   O63   0.150730  0.548580  0.044080  -0.716557
    O   O64   0.464280  0.878500  0.103280  -0.732600
    H   H10   0.283980  0.769130  0.005250  0.327822
    O   O65   0.476530  0.759190  0.082370  -0.662310
    O   O66   0.280830  0.724930  0.023590  -1.072199
    O   O67   0.297220  0.558340  0.025780  -0.666165
    O   O68   0.426620  0.842430  0.024780  -0.702393
    O   O69   0.413460  0.646000  0.029580  -0.579410
    O   O70   0.355240  0.906950  0.055740  -0.670828
    C   C27   0.103110  0.665710  0.997380  1.078983
    C   C28   0.211970  0.876310  0.104180  0.805680
    C   C29   0.138860  0.558620  0.078540  1.009434
    C   C30   0.505620  0.831100  0.096230  0.640967
    Zn  Zn21  0.001940  0.150640  0.215820  1.452333
    Zn  Zn22  0.883160  0.120140  0.286080  1.226642
    C   C31   0.791790  0.980590  0.145700  0.693617
    Zn  Zn23  0.848920  0.014970  0.219900  1.373224
    Zn  Zn24  0.948790  0.085530  0.142310  1.135081
    H   H11   0.861270  0.166620  0.221580  0.434602
    C   C32   0.926440  0.958560  0.277600  0.905275
    O   O71   0.053940  0.146520  0.132720  -0.746144
    O   O72   0.104000  0.151960  0.188260  -0.668987
    O   O73   0.888340  0.131000  0.232390  -1.170476
    O   O74   0.975660  0.207040  0.297730  -0.745512
    O   O75   0.011300  0.258390  0.193530  -0.744515
    O   O76   0.054950  0.162760  0.261420  -0.730503
    O   O77   0.931650  0.205180  0.149740  -0.587907
    O   O78   0.793770  0.029790  0.303710  -0.735404
    H   H12   0.978800  0.007370  0.196080  0.359423
    O   O79   0.745790  0.997230  0.248340  -0.699290
    O   O80   0.951850  0.048390  0.193260  -1.120138
    O   O81   0.840200  0.049170  0.132900  -0.677759
    O   O82   0.875910  0.936170  0.253030  -0.796352
    O   O83   0.787420  0.959360  0.180430  -0.544816
    O   O84   0.946760  0.033750  0.288930  -0.636426
    C   C33   0.103840  0.132540  0.153910  0.864762
    C   C34   0.043460  0.210330  0.286820  0.897523
    C   C35   0.982620  0.267230  0.162590  0.798777
    C   C36   0.738020  0.993290  0.283690  0.759091
    C   C37   0.019790  0.339480  0.139070  -0.055170
    C   C38   0.095690  0.357180  0.130440  -0.060264
    C   C39   0.134260  0.429950  0.111740  -0.232516
    C   C40   0.098010  0.487030  0.101720  -0.316592
    C   C41   0.021300  0.470380  0.110760  0.607538
    C   C42   0.982530  0.395730  0.129040  -0.415803
    H   H13   0.192660  0.441900  0.104790  0.163149
    H   H14   0.924140  0.382770  0.136320  0.156189
    H   H15   0.125180  0.314750  0.138650  0.124179
    N   N1    0.985010  0.525700  0.102510  -0.896432
    H   H16   0.012790  0.583020  0.090570  0.346355
    H   H17   0.928240  0.512150  0.108590  0.378548
    C   C43   0.586300  0.863810  0.099820  0.231290
    C   C44   0.621790  0.947270  0.092090  -0.289223
    C   C45   0.693360  0.983870  0.103460  -0.043026
    C   C46   0.730150  0.937770  0.123110  -0.271511
    C   C47   0.698730  0.851530  0.126560  0.535779
    C   C48   0.625980  0.815300  0.115520  -0.459454
    H   H18   0.717810  0.049430  0.099500  0.155568
    H   H19   0.599710  0.750160  0.120230  0.186943
    H   H20   0.592040  0.984990  0.079370  0.149883
    N   N2    0.738300  0.803620  0.139990  -0.838255
    H   H21   0.794560  0.828010  0.144990  0.311712
    H   H22   0.713840  0.740520  0.143890  0.395820
    C   C49   0.139790  0.071620  0.142890  -0.110356
    C   C50   0.167290  0.074330  0.107180  -0.202288
    C   C51   0.184420  0.006930  0.093420  -0.125943
    C   C52   0.174410  0.935840  0.115150  -0.218722
    C   C53   0.144100  0.931660  0.150800  0.487829
    C   C54   0.130390  0.001010  0.164900  -0.269308
    H   H23   0.208060  0.011080  0.066220  0.162525
    H   H24   0.107890  0.998070  0.192310  0.143134
    H   H25   0.174000  0.128250  0.089820  0.128514
    N   N3    0.126420  0.860700  0.171180  -0.919754
    H   H26   0.128410  0.806040  0.160140  0.379657
    H   H27   0.107150  0.858880  0.197980  0.407466
    C   C55   0.519600  0.866230  0.325630  0.073990
    C   C56   0.551920  0.949420  0.331890  -0.197476
    C   C57   0.624710  0.989450  0.319760  -0.157073
    C   C58   0.666090  0.947050  0.301030  -0.130800
    C   C59   0.635110  0.861950  0.296220  0.594330
    C   C60   0.561560  0.822430  0.308280  -0.462246
    H   H28   0.648270  0.054230  0.323970  0.116081
    H   H29   0.536990  0.757800  0.303960  0.198140
    H   H30   0.520430  0.983310  0.345990  0.153986
    N   N4    0.675930  0.817780  0.280770  -0.975192
    H   H31   0.732390  0.843610  0.274420  0.431368
    H   H32   0.651880  0.755720  0.276220  0.398793
    C   C61   0.106250  0.272160  0.301490  0.043541
    C   C62   0.118390  0.269330  0.338560  -0.290808
    C   C63   0.156230  0.340540  0.355650  0.077238
    C   C64   0.181170  0.415390  0.335860  -0.504363
    C   C65   0.179610  0.415670  0.297690  0.690184
    C   C66   0.141360  0.343700  0.280730  -0.382556
    H   H33   0.159730  0.338970  0.384790  0.090784
    H   H34   0.134800  0.344930  0.251750  0.149510
    H   H35   0.093250  0.213530  0.354640  0.129530
    N   N5    0.214120  0.484630  0.277390  -1.025717
    H   H36   0.247500  0.536820  0.289190  0.401109
    H   H37   0.210330  0.485440  0.249300  0.418290
    C   C67   0.963030  0.900190  0.291730  -0.062262
    C   C68   0.999340  0.861450  0.267980  -0.168350
    C   C69   0.046810  0.819540  0.281290  -0.192177
    C   C70   0.058190  0.815590  0.318470  -0.147040
    C   C71   0.017490  0.849570  0.342800  0.675494
    C   C72   0.970600  0.892280  0.329080  -0.438434
    H   H38   0.076790  0.792510  0.262560  0.132809
    H   H39   0.941360  0.921020  0.347470  0.188295
    H   H40   0.993590  0.867110  0.239090  0.106265
    N   N6    0.023410  0.841770  0.379160  -0.952328
    H   H41   0.055260  0.807510  0.390280  0.429869
    H   H42   0.994420  0.868650  0.396840  0.377274
    C   C73   0.361300  0.922140  0.440100  -0.359749
    C   C74   0.377320  0.904830  0.475690  -0.036934
    C   C75   0.414360  0.968160  0.497530  -0.108595
    C   C76   0.435990  0.049370  0.483990  0.076767
    C   C77   0.420150  0.066950  0.448200  -0.146204
    C   C78   0.382020  0.003390  0.426640  0.150798
    H   H43   0.425770  0.954140  0.525070  0.106168
    H   H44   0.371460  0.016890  0.398900  0.073687
    H   H45   0.361880  0.842150  0.486270  0.107763
    I   I1    0.458340  0.187910  0.425030  -0.041391
    C   C79   0.972760  0.491630  0.441740  -0.004829
    C   C80   0.943300  0.407790  0.450760  -0.083051
    C   C81   0.880090  0.379240  0.473720  -0.214975
    C   C82   0.846250  0.434350  0.488520  -0.086804
    C   C83   0.876120  0.519180  0.479160  0.105757
    C   C84   0.937630  0.546420  0.455190  -0.129627
    H   H46   0.857820  0.314280  0.480240  0.147167
    H   H47   0.960540  0.611290  0.448510  0.058271
    H   H48   0.969600  0.364720  0.440190  0.152607
    I   I2    0.836580  0.610310  0.502980  -0.084873
    C   C85   0.433110  0.595580  0.452690  -0.124714
    C   C86   0.487290  0.566610  0.436160  -0.009662
    C   C87   0.536680  0.541170  0.457540  -0.237682
    C   C88   0.528510  0.540080  0.495360  0.001162
    C   C89   0.487070  0.587300  0.510730  0.073646
    C   C90   0.438410  0.614000  0.489350  -0.077128
    H   H49   0.573100  0.510680  0.445100  0.138543
    H   H50   0.400930  0.643250  0.501720  0.056035
    H   H51   0.486760  0.556670  0.407420  0.136563
    I   I3    0.489480  0.609220  0.566780  -0.004540
    C   C91   0.764910  0.968720  0.644340  0.107179
    C   C92   0.747900  0.962960  0.607670  -0.330886
    C   C93   0.716540  0.018600  0.591300  0.045505
    C   C94   0.701110  0.079670  0.611600  -0.354393
    C   C95   0.705040  0.075390  0.649690  0.624579
    C   C96   0.737860  0.020210  0.665820  -0.414413
    H   H52   0.710470  0.018730  0.562310  0.125988
    H   H53   0.747160  0.021750  0.694570  0.178604
    H   H54   0.765080  0.920280  0.591160  0.161566
    N   N7    0.678750  0.125000  0.670660  -1.019324
    H   H55   0.649860  0.162560  0.659530  0.358967
    H   H56   0.684520  0.124020  0.698640  0.455624
    C   C97   0.374070  0.180860  0.610590  -0.141831
    C   C98   0.327730  0.228940  0.618430  -0.173053
    C   C99   0.255060  0.192560  0.631670  -0.106878
    C   C100  0.227480  0.107480  0.637890  -0.119093
    C   C101  0.274360  0.058300  0.630820  0.489376
    C   C102  0.347190  0.095560  0.616810  -0.257865
    H   H57   0.220120  0.230820  0.637450  0.132333
    H   H58   0.382400  0.057930  0.610420  0.182047
    H   H59   0.347770  0.294750  0.613920  0.107385
    N   N8    0.250560  0.976020  0.637870  -0.950294
    H   H60   0.198110  0.946760  0.649550  0.436207
    H   H61   0.285290  0.940340  0.632160  0.377991
    C   C103  0.907510  0.729830  0.642810  -0.173115
    C   C104  0.865640  0.734900  0.612650  -0.183844
    C   C105  0.816130  0.664220  0.599530  -0.139967
    C   C106  0.809330  0.587090  0.615730  -0.249965
    C   C107  0.850250  0.581880  0.646770  0.497538
    C   C108  0.901470  0.652950  0.658940  -0.240992
    H   H62   0.783060  0.669530  0.576730  0.214847
    H   H63   0.932480  0.649090  0.682770  0.113995
    H   H64   0.868640  0.794070  0.600440  0.161333
    N   N9    0.837430  0.510040  0.666160  -0.799074
    H   H65   0.792000  0.459600  0.661380  0.270777
    H   H66   0.870240  0.505720  0.687920  0.367388
    C   C109  0.027370  0.635890  0.984890  -0.236967
    C   C110  0.979640  0.563150  0.000670  0.027156
    C   C111  0.918980  0.516920  0.982090  -0.301545
    C   C112  0.904500  0.543580  0.947750  0.156576
    C   C113  0.950020  0.618850  0.932570  -0.048892
    C   C114  0.011040  0.664720  0.951270  -0.016027
    H   H67   0.883120  0.460260  0.994430  0.145360
    H   H68   0.048130  0.720450  0.938740  0.053183
    H   H69   0.992560  0.539430  0.026240  0.088871
    I   I4    0.930390  0.662540  0.880660  -0.040912
    C   C115  0.506820  0.103410  0.953560  -0.122449
    C   C116  0.549280  0.071030  0.976560  -0.113786
    C   C117  0.514530  0.010290  0.002720  -0.121135
    C   C118  0.436760  0.980600  0.006100  0.019695
    C   C119  0.393810  0.014010  0.983320  -0.184093
    C   C120  0.429060  0.075730  0.957400  -0.009124
    H   H70   0.548070  0.983770  0.019450  0.128989
    H   H71   0.395940  0.100520  0.939590  0.189974
    H   H72   0.609270  0.092610  0.974110  0.120918
    I   I5    0.276140  0.968540  0.985330  0.017179
    C   C121  0.391460  0.544510  0.984600  -0.196583
    C   C122  0.439440  0.594710  0.958040  -0.103716
    C   C123  0.470860  0.559530  0.930990  -0.115655
    C   C124  0.457530  0.474610  0.931720  0.032280
    C   C125  0.398170  0.424740  0.953490  -0.092736
    C   C126  0.366300  0.459740  0.980590  0.022791
    H   H73   0.513130  0.598540  0.912570  0.120093
    H   H74   0.324820  0.420960  0.999430  0.098085
    H   H75   0.454910  0.660720  0.959320  0.101938
    I   I6    0.362680  0.295950  0.948770  -0.059007
    C   C127  0.840810  0.207960  0.827830  0.036048
    C   C128  0.821150  0.160580  0.797440  -0.228439
    C   C129  0.871370  0.126010  0.781080  -0.015674
    C   C130  0.941800  0.137610  0.795050  -0.423520
    C   C131  0.963840  0.189630  0.824370  0.519940
    C   C132  0.912850  0.224440  0.840590  -0.274845
    H   H76   0.854260  0.086850  0.758480  0.134552
    H   H77   0.928620  0.262200  0.863740  0.196312
    H   H78   0.766170  0.148870  0.786970  0.036309
    N   N10   0.033110  0.205470  0.837320  -0.921754
    H   H79   0.072860  0.182640  0.825210  0.384782
    H   H80   0.048380  0.242500  0.859440  0.373851
    C   C133  0.388840  0.160820  0.828620  0.145309
    C   C134  0.352750  0.077610  0.836570  -0.214932
    C   C135  0.280720  0.041630  0.825330  -0.138963
    C   C136  0.243860  0.088270  0.805990  -0.183644
    C   C137  0.278350  0.173380  0.799740  0.600120
    C   C138  0.351260  0.208600  0.810540  -0.479510
    H   H81   0.254380  0.976740  0.830670  0.107807
    H   H82   0.378510  0.273300  0.805020  0.200428
    H   H83   0.380480  0.040700  0.851440  0.121494
    N   N11   0.241300  0.221680  0.784190  -0.943732
    H   H84   0.185050  0.198990  0.778970  0.422896
    H   H85   0.268010  0.283820  0.778530  0.390334
    C   C139  0.733960  0.603710  0.834140  -0.215617
    C   C140  0.762230  0.607460  0.798560  -0.072275
    C   C141  0.796650  0.683210  0.781030  -0.120734
    C   C142  0.804950  0.755800  0.799240  -0.268216
    C   C143  0.767310  0.752500  0.833000  0.632618
    C   C144  0.732210  0.676080  0.850380  -0.224683
    H   H86   0.823150  0.685250  0.754560  0.114001
    H   H87   0.707470  0.673290  0.877320  0.123727
    H   H88   0.761230  0.551810  0.785220  0.063933
    N   N12   0.766430  0.822310  0.849190  -1.132517
    H   H89   0.788880  0.879510  0.835990  0.465171
    H   H90   0.740950  0.819720  0.874760  0.447715
