# generated using pymatgen
data_Co6H2C92Br50(N2O7)3
_symmetry_space_group_name_H-M   'P 1'
_cell_length_a   25.86031000
_cell_length_b   28.61042000
_cell_length_c   29.77040000
_cell_angle_alpha   60.60118000
_cell_angle_beta   119.07015000
_cell_angle_gamma   133.17055000
_symmetry_Int_Tables_number   1
_chemical_formula_structural   Co6H2C92Br50(N2O7)3
_chemical_formula_sum   'Co12 H4 C184 Br100 N12 O42'
_cell_volume   13599.84299443
_cell_formula_units_Z   2
loop_
 _symmetry_equiv_pos_site_id
 _symmetry_equiv_pos_as_xyz
  1  'x, y, z'
loop_
 _atom_site_type_symbol
 _atom_site_label
 _atom_site_symmetry_multiplicity
 _atom_site_fract_x
 _atom_site_fract_y
 _atom_site_fract_z
 _atom_site_occupancy
  Co  Co1  1  0.05376000  0.96226000  0.16931000  1
  Co  Co2  1  0.95506000  0.97584000  0.19438000  1
  Co  Co3  1  0.08705000  0.92807000  0.10111000  1
  Co  Co4  1  0.14852000  0.01226000  0.66917000  1
  Co  Co5  1  0.10005000  0.07164000  0.70026000  1
  Co  Co6  1  0.12260000  0.93525000  0.59945000  1
  Co  Co7  1  0.83420000  0.91119000  0.10877000  1
  Co  Co8  1  0.94022000  0.91294000  0.07634000  1
  Co  Co9  1  0.80001000  0.93922000  0.18258000  1
  Co  Co10  1  0.96493000  0.02243000  0.61915000  1
  Co  Co11  1  0.00927000  0.95551000  0.59305000  1
  Co  Co12  1  0.99791000  0.11145000  0.68106000  1
  H  H1  1  0.10098000  0.96695000  0.96997000  1
  H  H2  1  0.98388000  0.03707000  0.31207000  1
  H  H3  1  0.94850000  0.02882000  0.80835000  1
  H  H4  1  0.97450000  0.85677000  0.47184000  1
  C  C1  1  0.71830000  0.30985000  0.02015000  1
  C  C2  1  0.72497000  0.40246000  0.00562000  1
  C  C3  1  0.64488000  0.29857000  0.05503000  1
  C  C4  1  0.83332000  0.39300000  0.52269000  1
  C  C5  1  0.71963000  0.36478000  0.51294000  1
  C  C6  1  0.82693000  0.44735000  0.55692000  1
  C  C7  1  0.19437000  0.58100000  0.27412000  1
  C  C8  1  0.26850000  0.58103000  0.24977000  1
  C  C9  1  0.14424000  0.49298000  0.24322000  1
  C  C10  1  0.29408000  0.62900000  0.80935000  1
  C  C11  1  0.38456000  0.65855000  0.77975000  1
  C  C12  1  0.29477000  0.54631000  0.81082000  1
  C  C13  1  0.09175000  0.86387000  0.21722000  1
  C  C14  1  0.93674000  0.07504000  0.18796000  1
  C  C15  1  0.19721000  0.05251000  0.14056000  1
  C  C16  1  0.16965000  0.90480000  0.71859000  1
  C  C17  1  0.15675000  0.21021000  0.69317000  1
  C  C18  1  0.25762000  0.07391000  0.60944000  1
  C  C19  1  0.06938000  0.98254000  0.93469000  1
  C  C20  1  0.07178000  0.99217000  0.88454000  1
  C  C21  1  0.98093000  0.99729000  0.34683000  1
  C  C22  1  0.00494000  0.00642000  0.39713000  1
  C  C23  1  0.20478000  0.26067000  0.72364000  1
  C  C24  1  0.22648000  0.32598000  0.69684000  1
  C  C25  1  0.24220000  0.36562000  0.72302000  1
  C  C26  1  0.23219000  0.33834000  0.77497000  1
  C  C27  1  0.21681000  0.27504000  0.80289000  1
  C  C28  1  0.21178000  0.24011000  0.77872000  1
  C  C29  1  0.23710000  0.37596000  0.79957000  1
  C  C30  1  0.30129000  0.41087000  0.83628000  1
  C  C31  1  0.31150000  0.45733000  0.85047000  1
  C  C32  1  0.26375000  0.47618000  0.82212000  1
  C  C33  1  0.19519000  0.43511000  0.79143000  1
  C  C34  1  0.18113000  0.38352000  0.78149000  1
  C  C35  1  0.45058000  0.70938000  0.75887000  1
  C  C36  1  0.51727000  0.75123000  0.79027000  1
  C  C37  1  0.58214000  0.79341000  0.77338000  1
  C  C38  1  0.58111000  0.79081000  0.72687000  1
  C  C39  1  0.51451000  0.74892000  0.69559000  1
  C  C40  1  0.44901000  0.71053000  0.71037000  1
  C  C41  1  0.64981000  0.83356000  0.71012000  1
  C  C42  1  0.67009000  0.89517000  0.67337000  1
  C  C43  1  0.73787000  0.93809000  0.66049000  1
  C  C44  1  0.76651000  0.85888000  0.72288000  1
  C  C45  1  0.69677000  0.81431000  0.73317000  1
  C  C46  1  0.26020000  0.64892000  0.81740000  1
  C  C47  1  0.28863000  0.66888000  0.86375000  1
  C  C48  1  0.27639000  0.70964000  0.86426000  1
  C  C49  1  0.23524000  0.72994000  0.81844000  1
  C  C50  1  0.19992000  0.70353000  0.77438000  1
  C  C51  1  0.21152000  0.66216000  0.77430000  1
  C  C52  1  0.23876000  0.78645000  0.81302000  1
  C  C53  1  0.18470000  0.77531000  0.82585000  1
  C  C54  1  0.17518000  0.82565000  0.80547000  1
  C  C55  1  0.21121000  0.88157000  0.76630000  1
  C  C56  1  0.27472000  0.89826000  0.76288000  1
  C  C57  1  0.28881000  0.85054000  0.78652000  1
  C  C58  1  0.08793000  0.42376000  0.24097000  1
  C  C59  1  0.04943000  0.40914000  0.19111000  1
  C  C60  1  0.02385000  0.34992000  0.18543000  1
  C  C61  1  0.03642000  0.30517000  0.23003000  1
  C  C62  1  0.06942000  0.31753000  0.28067000  1
  C  C63  1  0.09026000  0.37468000  0.28629000  1
  C  C64  1  0.01457000  0.24518000  0.22370000  1
  C  C65  1  0.94987000  0.18377000  0.23662000  1
  C  C66  1  0.92762000  0.12722000  0.22874000  1
  C  C67  1  0.96582000  0.13320000  0.20243000  1
  C  C68  1  0.02988000  0.19555000  0.18824000  1
  C  C69  1  0.05687000  0.25001000  0.20267000  1
  C  C70  1  0.34123000  0.60631000  0.25013000  1
  C  C71  1  0.38962000  0.67294000  0.22532000  1
  C  C72  1  0.45053000  0.69216000  0.21524000  1
  C  C73  1  0.45676000  0.64351000  0.22224000  1
  C  C74  1  0.40724000  0.57704000  0.24566000  1
  C  C75  1  0.35590000  0.56055000  0.26545000  1
  C  C76  1  0.51628000  0.66264000  0.20626000  1
  C  C77  1  0.51627000  0.68593000  0.15205000  1
  C  C78  1  0.58230000  0.72493000  0.13751000  1
  C  C79  1  0.57748000  0.66519000  0.24502000  1
  C  C80  1  0.18200000  0.61955000  0.28165000  1
  C  C81  1  0.19336000  0.61909000  0.33313000  1
  C  C82  1  0.17934000  0.65461000  0.34001000  1
  C  C83  1  0.15272000  0.68954000  0.29537000  1
  C  C84  1  0.13786000  0.68703000  0.24403000  1
  C  C85  1  0.15426000  0.65354000  0.23714000  1
  C  C86  1  0.14748000  0.73443000  0.30157000  1
  C  C87  1  0.07990000  0.71286000  0.30235000  1
  C  C88  1  0.06650000  0.75974000  0.28594000  1
  C  C89  1  0.11801000  0.82658000  0.26455000  1
  C  C90  1  0.18996000  0.84865000  0.27489000  1
  C  C91  1  0.20495000  0.80229000  0.29425000  1
  C  C92  1  0.89408000  0.33733000  0.56063000  1
  C  C93  1  0.31956000  0.13208000  0.58444000  1
  C  C94  1  0.30904000  0.14660000  0.52954000  1
  C  C95  1  0.36791000  0.18021000  0.50853000  1
  C  C96  1  0.43933000  0.21024000  0.54049000  1
  C  C97  1  0.45113000  0.20644000  0.59333000  1
  C  C98  1  0.39117000  0.16581000  0.61588000  1
  C  C99  1  0.50178000  0.24416000  0.51931000  1
  C  C100  1  0.53470000  0.21310000  0.53464000  1
  C  C101  1  0.60478000  0.25088000  0.52709000  1
  C  C102  1  0.63936000  0.31879000  0.50085000  1
  C  C103  1  0.59891000  0.34507000  0.47549000  1
  C  C104  1  0.53247000  0.30960000  0.48768000  1
  C  C105  1  0.71285000  0.49469000  0.96274000  1
  C  C106  1  0.27131000  0.11351000  0.14087000  1
  C  C107  1  0.32606000  0.11939000  0.18772000  1
  C  C108  1  0.39691000  0.15229000  0.18476000  1
  C  C109  1  0.41485000  0.18869000  0.13497000  1
  C  C110  1  0.36403000  0.19741000  0.09012000  1
  C  C111  1  0.29110000  0.15764000  0.09261000  1
  C  C112  1  0.47968000  0.20681000  0.12770000  1
  C  C113  1  0.54872000  0.26488000  0.13968000  1
  C  C114  1  0.60722000  0.28698000  0.12453000  1
  C  C115  1  0.59383000  0.25883000  0.08900000  1
  C  C116  1  0.52592000  0.19827000  0.07981000  1
  C  C117  1  0.47079000  0.17017000  0.10258000  1
  C  C118  1  0.02791000  0.98500000  0.99335000  1
  C  C119  1  0.03377000  0.96635000  0.49621000  1
  C  C120  1  0.04880000  0.04381000  0.78639000  1
  C  C121  1  0.02742000  0.99390000  0.93953000  1
  C  C122  1  0.00307000  0.95579000  0.44263000  1
  C  C123  1  0.63989000  0.69699000  0.22910000  1
  C  C124  1  0.64624000  0.73685000  0.17727000  1
  C  C125  1  0.73262000  0.27586000  0.96604000  1
  C  C126  1  0.87523000  0.37892000  0.51766000  1
  C  C127  1  0.91628000  0.30952000  0.55229000  1
  C  C128  1  0.74484000  0.28028000  0.01593000  1
  C  C129  1  0.73527000  0.54941000  0.97386000  1
  C  C130  1  0.86128000  0.49284000  0.58864000  1
  C  C131  1  0.82812000  0.47058000  0.62766000  1
  C  C132  1  0.75871000  0.47426000  0.98609000  1
  C  C133  1  0.78697000  0.92077000  0.68598000  1
  C  C134  1  0.88577000  0.39797000  0.46762000  1
  C  C135  1  0.83203000  0.51544000  0.63876000  1
  C  C136  1  0.74057000  0.23325000  0.96332000  1
  C  C137  1  0.75602000  0.19204000  0.01025000  1
  C  C138  1  0.77098000  0.19849000  0.05989000  1
  C  C139  1  0.76940000  0.24519000  0.06257000  1
  C  C140  1  0.68758000  0.07645000  0.00567000  1
  C  C141  1  0.68829000  0.02282000  0.01733000  1
  C  C142  1  0.71483000  0.80313000  0.17062000  1
  C  C143  1  0.94763000  0.93556000  0.34073000  1
  C  C144  1  0.91923000  0.32303000  0.50088000  1
  C  C145  1  0.86280000  0.97116000  0.68008000  1
  C  C146  1  0.90772000  0.36997000  0.45917000  1
  C  C147  1  0.87239000  0.17165000  0.49088000  1
  C  C148  1  0.86433000  0.22052000  0.47964000  1
  C  C149  1  0.88038000  0.58390000  0.61862000  1
  C  C150  1  0.91353000  0.56127000  0.57132000  1
  C  C151  1  0.84728000  0.66233000  0.58201000  1
  C  C152  1  0.86698000  0.72195000  0.58211000  1
  C  C153  1  0.75373000  0.14000000  0.00772000  1
  C  C154  1  0.75521000  0.03225000  0.03305000  1
  C  C155  1  0.83016000  0.64278000  0.01896000  1
  C  C156  1  0.84448000  0.70335000  0.98256000  1
  C  C157  1  0.80779000  0.58976000  0.00113000  1
  C  C158  1  0.83365000  0.51956000  0.00605000  1
  C  C159  1  0.75929000  0.97522000  0.06519000  1
  C  C160  1  0.92668000  0.28275000  0.48995000  1
  C  C161  1  0.88001000  0.63178000  0.62533000  1
  C  C162  1  0.83861000  0.63319000  0.07269000  1
  C  C163  1  0.02991000  0.01132000  0.83835000  1
  C  C164  1  0.90256000  0.92168000  0.28793000  1
  C  C165  1  0.93505000  0.80808000  0.07354000  1
  C  C166  1  0.94709000  0.13344000  0.56266000  1
  C  C167  1  0.97088000  0.82248000  0.61562000  1
  C  C168  1  0.98397000  0.01123000  0.89322000  1
  C  C169  1  0.98209000  0.01553000  0.84360000  1
  C  C170  1  0.94582000  0.88474000  0.38624000  1
  C  C171  1  0.97508000  0.89564000  0.43693000  1
  C  C172  1  0.99639000  0.29955000  0.50054000  1
  C  C173  1  0.00308000  0.24975000  0.51175000  1
  C  C174  1  0.94130000  0.18383000  0.51597000  1
  C  C175  1  0.92530000  0.60661000  0.58836000  1
  C  C176  1  0.91851000  0.75004000  0.62561000  1
  C  C177  1  0.93620000  0.71108000  0.67301000  1
  C  C178  1  0.92023000  0.65341000  0.67246000  1
  C  C179  1  0.81994000  0.09728000  0.02747000  1
  C  C180  1  0.81916000  0.15110000  0.01507000  1
  C  C181  1  0.88539000  0.74759000  0.05451000  1
  C  C182  1  0.86936000  0.68654000  0.09088000  1
  C  C183  1  0.86610000  0.75337000  0.99984000  1
  C  C184  1  0.85834000  0.57775000  0.01329000  1
  Br  Br1  1  0.13349000  0.97976000  0.88053000  1
  Br  Br2  1  0.03451000  0.08629000  0.40240000  1
  Br  Br3  1  0.19640000  0.23384000  0.87187000  1
  Br  Br4  1  0.23849000  0.36182000  0.62578000  1
  Br  Br5  1  0.39336000  0.49877000  0.90600000  1
  Br  Br6  1  0.08682000  0.32508000  0.74147000  1
  Br  Br7  1  0.22814000  0.17283000  0.82189000  1
  Br  Br8  1  0.27692000  0.45666000  0.68801000  1
  Br  Br9  1  0.37802000  0.40028000  0.86269000  1
  Br  Br10  1  0.12256000  0.45165000  0.76066000  1
  Br  Br11  1  0.51348000  0.74301000  0.63330000  1
  Br  Br12  1  0.52041000  0.74804000  0.85778000  1
  Br  Br13  1  0.66590000  0.72730000  0.77971000  1
  Br  Br14  1  0.35678000  0.66096000  0.66355000  1
  Br  Br15  1  0.67260000  0.85482000  0.81385000  1
  Br  Br16  1  0.60594000  0.92174000  0.64225000  1
  Br  Br17  1  0.14187000  0.72971000  0.71208000  1
  Br  Br18  1  0.34714000  0.64288000  0.92547000  1
  Br  Br19  1  0.12458000  0.82405000  0.83728000  1
  Br  Br20  1  0.37294000  0.87089000  0.77933000  1
  Br  Br21  1  0.16423000  0.62670000  0.71388000  1
  Br  Br22  1  0.32003000  0.74145000  0.92615000  1
  Br  Br23  1  0.12078000  0.69045000  0.86736000  1
  Br  Br24  1  0.33915000  0.98451000  0.72316000  1
  Br  Br25  1  0.09269000  0.25991000  0.34114000  1
  Br  Br26  1  0.03759000  0.47311000  0.13013000  1
  Br  Br27  1  0.15202000  0.33119000  0.19407000  1
  Br  Br28  1  0.12660000  0.38816000  0.35585000  1
  Br  Br29  1  0.97725000  0.33265000  0.11612000  1
  Br  Br30  1  0.89069000  0.17749000  0.26401000  1
  Br  Br31  1  0.07585000  0.20882000  0.14380000  1
  Br  Br32  1  0.40584000  0.50820000  0.24684000  1
  Br  Br33  1  0.37013000  0.73667000  0.20149000  1
  Br  Br34  1  0.58704000  0.76734000  0.06423000  1
  Br  Br35  1  0.57970000  0.63383000  0.31952000  1
  Br  Br36  1  0.30891000  0.47709000  0.31591000  1
  Br  Br37  1  0.52598000  0.78475000  0.19307000  1
  Br  Br38  1  0.42717000  0.66680000  0.09851000  1
  Br  Br39  1  0.09488000  0.72957000  0.18313000  1
  Br  Br40  1  0.22734000  0.56928000  0.39404000  1
  Br  Br41  1  0.97736000  0.73273000  0.29068000  1
  Br  Br42  1  0.30225000  0.83140000  0.30587000  1
  Br  Br43  1  0.14010000  0.65519000  0.16657000  1
  Br  Br44  1  0.19713000  0.65606000  0.41032000  1
  Br  Br45  1  0.00415000  0.61970000  0.32066000  1
  Br  Br46  1  0.26547000  0.94152000  0.25657000  1
  Br  Br47  1  0.88583000  0.31577000  0.63030000  1
  Br  Br48  1  0.93999000  0.25089000  0.61080000  1
  Br  Br49  1  0.77883000  0.62431000  0.52193000  1
  Br  Br50  1  0.54922000  0.25653000  0.63458000  1
  Br  Br51  1  0.21807000  0.13123000  0.48270000  1
  Br  Br52  1  0.65479000  0.21066000  0.55584000  1
  Br  Br53  1  0.48706000  0.35235000  0.46517000  1
  Br  Br54  1  0.40736000  0.15882000  0.68868000  1
  Br  Br55  1  0.35027000  0.18163000  0.43722000  1
  Br  Br56  1  0.48480000  0.11955000  0.56772000  1
  Br  Br57  1  0.63657000  0.43078000  0.42598000  1
  Br  Br58  1  0.70047000  0.32458000  0.90170000  1
  Br  Br59  1  0.59682000  0.06226000  0.99029000  1
  Br  Br60  1  0.66543000  0.56551000  0.95596000  1
  Br  Br61  1  0.61798000  0.44507000  0.91830000  1
  Br  Br62  1  0.39369000  0.26059000  0.02507000  1
  Br  Br63  1  0.30551000  0.08915000  0.25452000  1
  Br  Br64  1  0.70577000  0.35323000  0.15419000  1
  Br  Br65  1  0.38228000  0.08253000  0.09820000  1
  Br  Br66  1  0.21823000  0.16201000  0.03031000  1
  Br  Br67  1  0.46563000  0.14071000  0.24713000  1
  Br  Br68  1  0.56143000  0.31745000  0.17183000  1
  Br  Br69  1  0.50573000  0.15671000  0.03273000  1
  Br  Br70  1  0.76462000  0.02184000  0.60936000  1
  Br  Br71  1  0.59789000  0.93655000  0.01154000  1
  Br  Br72  1  0.76867000  0.20073000  0.45513000  1
  Br  Br73  1  0.77669000  0.37852000  0.66511000  1
  Br  Br74  1  0.72881000  0.23015000  0.89552000  1
  Br  Br75  1  0.83633000  0.83794000  0.76342000  1
  Br  Br76  1  0.72033000  0.69312000  0.27921000  1
  Br  Br77  1  0.86847000  0.46127000  0.41055000  1
  Br  Br78  1  0.82861000  0.76814000  0.52133000  1
  Br  Br79  1  0.76581000  0.48303000  0.67639000  1
  Br  Br80  1  0.79959000  0.26042000  0.13028000  1
  Br  Br81  1  0.09572000  0.27044000  0.52277000  1
  Br  Br82  1  0.79010000  0.08808000  0.47360000  1
  Br  Br83  1  0.92000000  0.39427000  0.39032000  1
  Br  Br84  1  0.78781000  0.13969000  0.12403000  1
  Br  Br85  1  0.83927000  0.71945000  0.91002000  1
  Br  Br86  1  0.80835000  0.54728000  0.12110000  1
  Br  Br87  1  0.98163000  0.73681000  0.73796000  1
  Br  Br88  1  0.93475000  0.03829000  0.89533000  1
  Br  Br89  1  0.90177000  0.79976000  0.38024000  1
  Br  Br90  1  0.84543000  0.04190000  0.25476000  1
  Br  Br91  1  0.08183000  0.38843000  0.50393000  1
  Br  Br92  1  0.00101000  0.69981000  0.56892000  1
  Br  Br93  1  0.95609000  0.60622000  0.73502000  1
  Br  Br94  1  0.96555000  0.59318000  0.52204000  1
  Br  Br95  1  0.90829000  0.23951000  0.01136000  1
  Br  Br96  1  0.90983000  0.11271000  0.03798000  1
  Br  Br97  1  0.89279000  0.67700000  0.16560000  1
  Br  Br98  1  0.90213000  0.50269000  0.02258000  1
  Br  Br99  1  0.86522000  0.82785000  0.94876000  1
  Br  Br100  1  0.96051000  0.63993000  0.04107000  1
  N  N1  1  0.67257000  0.36340000  0.03262000  1
  N  N2  1  0.66816000  0.27198000  0.04910000  1
  N  N3  1  0.75973000  0.35735000  0.50357000  1
  N  N4  1  0.75358000  0.41122000  0.53798000  1
  N  N5  1  0.26139000  0.60918000  0.27031000  1
  N  N6  1  0.20894000  0.52492000  0.23379000  1
  N  N7  1  0.13643000  0.52145000  0.26261000  1
  N  N8  1  0.35353000  0.67614000  0.78829000  1
  N  N9  1  0.35484000  0.59383000  0.79065000  1
  N  N10  1  0.26482000  0.56383000  0.82108000  1
  N  N11  1  0.74750000  0.37556000  0.99878000  1
  N  N12  1  0.86693000  0.43731000  0.55026000  1
  O  O1  1  0.05251000  0.99143000  0.21823000  1
  O  O2  1  0.98258000  0.06365000  0.19474000  1
  O  O3  1  0.18404000  0.99861000  0.14192000  1
  O  O4  1  0.15010000  0.04957000  0.14964000  1
  O  O5  1  0.92053000  0.90912000  0.26289000  1
  O  O6  1  0.02477000  0.94002000  0.11453000  1
  O  O7  1  0.07526000  0.85552000  0.17110000  1
  O  O8  1  0.06436000  0.88597000  0.22307000  1
  O  O9  1  0.08822000  0.99888000  0.03125000  1
  O  O10  1  0.09390000  0.19993000  0.66205000  1
  O  O11  1  0.17334000  0.05329000  0.72233000  1
  O  O12  1  0.17408000  0.17192000  0.70128000  1
  O  O13  1  0.23280000  0.01469000  0.61121000  1
  O  O14  1  0.24287000  0.08142000  0.64125000  1
  O  O15  1  0.05646000  0.01692000  0.76655000  1
  O  O16  1  0.09565000  0.97821000  0.61725000  1
  O  O17  1  0.14122000  0.88301000  0.67668000  1
  O  O18  1  0.14452000  0.92950000  0.72306000  1
  O  O19  1  0.10015000  0.98211000  0.52112000  1
  O  O20  1  0.06842000  0.03818000  0.63042000  1
  O  O21  1  0.05591000  0.09971000  0.75917000  1
  O  O22  1  0.73213000  0.93678000  0.10722000  1
  O  O23  1  0.74266000  0.83771000  0.20334000  1
  O  O24  1  0.75656000  0.81657000  0.14615000  1
  O  O25  1  0.89118000  0.95608000  0.66706000  1
  O  O26  1  0.95510000  0.96406000  0.12474000  1
  O  O27  1  0.86785000  0.04142000  0.16193000  1
  O  O28  1  0.86928000  0.94665000  0.15752000  1
  O  O29  1  0.83859000  0.88765000  0.05722000  1
  O  O30  1  0.79257000  0.96465000  0.05310000  1
  O  O31  1  0.85896000  0.94039000  0.26146000  1
  O  O32  1  0.99767000  0.85571000  0.05960000  1
  O  O33  1  0.91136000  0.81913000  0.09514000  1
  O  O34  1  0.96750000  0.96177000  0.00284000  1
  O  O35  1  0.02707000  0.07285000  0.66010000  1
  O  O36  1  0.92705000  0.95802000  0.58149000  1
  O  O37  1  0.93467000  0.12308000  0.60562000  1
  O  O38  1  0.94447000  0.08900000  0.55663000  1
  O  O39  1  0.01509000  0.85313000  0.58557000  1
  O  O40  1  0.96605000  0.85629000  0.62981000  1
  O  O41  1  0.90530000  0.01947000  0.70366000  1
  O  O42  1  0.00027000  0.97210000  0.51371000  1
