# Generated by REPEAT Assigner based on pymatgen
data_DB0-m3_o1_o11_f0_pcu.sym.29
_audit_creation_date              2022-05-24
_audit_creation_method            REPEAT_Assigner
_cell_length_a                    11.036707
_cell_length_b                    9.760586
_cell_length_c                    11.175865
_cell_angle_alpha                 90.000000
_cell_angle_beta                  90.002604
_cell_angle_gamma                 90.000000
_cell_volume                      1203.916968
_symmetry_space_group_name_H-M    P1
_symmetry_Int_Tables_number       1
loop_
    _symmetry_equiv_pos_site_id
    _symmetry_equiv_pos_as_xyz
    1  x,y,z
loop_
    _atom_site_type_symbol
    _atom_site_label
    _atom_site_fract_x
    _atom_site_fract_y
    _atom_site_fract_z
    _atom_type_partial_charge
    O   O1   0.319943  0.605271  0.504791  -0.575738
    O   O2   0.680057  0.605271  0.495208  -0.575738
    O   O3   0.319163  0.370152  0.505177  -0.664784
    O   O4   0.680837  0.370153  0.494822  -0.664783
    C   C1   0.261734  0.488656  0.506803  0.715419
    C   C2   0.738266  0.488656  0.493197  0.715413
    O   O5   0.495008  0.605729  0.321739  -0.628106
    O   O6   0.504992  0.605729  0.678261  -0.628103
    O   O7   0.494790  0.369923  0.321813  -0.605541
    O   O8   0.505210  0.369923  0.678187  -0.605537
    C   C3   0.494708  0.487784  0.265662  0.736263
    C   C4   0.505292  0.487784  0.734337  0.736257
    Zn  Zn1  0.500000  0.643230  0.500000  0.981042
    Zn  Zn2  0.500000  0.332463  0.500000  1.034449
    C   C5   0.479862  0.388401  0.937355  0.080133
    C   C6   0.520138  0.388401  0.062645  0.080153
    C   C7   0.518489  0.488973  0.865131  -0.306611
    C   C8   0.481511  0.488973  0.134868  -0.306619
    H   H1   0.571992  0.571020  0.903636  0.162915
    H   H2   0.428008  0.571020  0.096363  0.162918
    C   C9   0.062658  0.370300  0.502703  -0.060837
    C   C10  0.937342  0.370300  0.497295  -0.060846
    H   H3   0.109412  0.273052  0.503856  0.106750
    H   H4   0.890587  0.273052  0.496140  0.106752
    C   C11  0.872839  0.491908  0.493129  -0.134305
    C   C12  0.127161  0.491908  0.506870  -0.134317
    C   C13  0.937672  0.614899  0.495013  0.016553
    C   C14  0.062328  0.614899  0.504989  0.016545
    C   C15  0.564263  0.058484  0.582624  0.060438
    C   C16  0.435737  0.058484  0.417376  0.060446
    H   H5   0.616207  0.113574  0.649000  0.123717
    H   H6   0.383793  0.113574  0.350999  0.123715
    C   C17  0.564010  0.917202  0.582801  -0.016565
    C   C18  0.435990  0.917202  0.417198  -0.016570
    H   H7   0.615562  0.862085  0.649443  0.129138
    H   H8   0.384437  0.862085  0.350557  0.129137
    N   N1   0.500000  0.848170  0.500000  0.017109
    N   N2   0.500000  0.127523  0.500000  -0.109154
    C   C19  0.391379  0.283226  0.900200  0.517865
    O   O9   0.378234  0.180834  0.961281  -0.462185
    O   O10  0.311572  0.307145  0.806049  -0.466859
    H   H9   0.253736  0.227298  0.797415  0.357818
    C   C20  0.608621  0.283226  0.099800  0.517845
    O   O11  0.621765  0.180834  0.038719  -0.462180
    O   O12  0.688428  0.307145  0.193950  -0.466847
    H   H10  0.746264  0.227298  0.202584  0.357818
    C   C21  0.879470  0.749933  0.487410  0.630582
    O   O13  0.834330  0.787662  0.393384  -0.506255
    O   O14  0.880120  0.837496  0.585742  -0.553517
    H   H11  0.839823  0.927302  0.564247  0.381995
    C   C22  0.120530  0.749933  0.512595  0.630599
    O   O15  0.165671  0.787659  0.606621  -0.506257
    O   O16  0.119879  0.837499  0.414264  -0.553518
    H   H12  0.160177  0.927304  0.435762  0.381991
