# Generated by REPEAT Assigner based on pymatgen
data_DB0-m3_o15_o22_f0_nbo.sym.55_sqe
_audit_creation_date              2022-05-24
_audit_creation_method            REPEAT_Assigner
_cell_length_a                    19.070001
_cell_length_b                    18.910039
_cell_length_c                    18.914825
_cell_angle_alpha                 109.210821
_cell_angle_beta                  109.993197
_cell_angle_gamma                 109.354771
_cell_volume                      5241.143346
_symmetry_space_group_name_H-M    P1
_symmetry_Int_Tables_number       1
loop_
    _symmetry_equiv_pos_site_id
    _symmetry_equiv_pos_as_xyz
    1  x,y,z
loop_
    _atom_site_type_symbol
    _atom_site_label
    _atom_site_fract_x
    _atom_site_fract_y
    _atom_site_fract_z
    _atom_type_partial_charge
    O   O1   0.411379  0.355801  0.447859  -0.651093
    O   O2   0.414149  0.463467  0.553241  -0.686249
    C   C1   0.383845  0.381428  0.500787  0.762081
    O   O3   0.592680  0.446696  0.539652  -0.679246
    O   O4   0.596384  0.554171  0.646361  -0.649954
    C   C2   0.622912  0.499755  0.621622  0.389551
    Zn  Zn1  0.501627  0.430316  0.431218  1.276230
    Zn  Zn2  0.505800  0.571050  0.570783  1.266261
    O   O5   0.590125  0.537930  0.445672  -0.686849
    O   O6   0.598978  0.645429  0.557063  -0.653509
    O   O7   0.408189  0.444407  0.355845  -0.651313
    O   O8   0.417743  0.557497  0.462320  -0.654931
    C   C3   0.623039  0.619843  0.500742  0.770555
    C   C4   0.384165  0.501338  0.380362  0.638080
    C   C5   0.666767  0.406735  0.669929  -0.051789
    H   H1   0.651280  0.366230  0.603120  0.006979
    H   H2   0.609587  0.378821  0.676213  -0.031151
    C   C6   0.741404  0.406469  0.733188  -0.057277
    H   H3   0.716329  0.366028  0.759403  0.008551
    H   H4   0.770447  0.378233  0.698741  -0.028698
    H   H5   0.770204  0.498234  0.630553  -0.016770
    H   H6   0.885235  0.524511  0.745134  0.047914
    C   C7   0.775781  0.539786  0.691737  0.004453
    C   C8   0.704023  0.549887  0.778533  -0.277443
    C   C9   0.691549  0.498982  0.689781  0.543445
    H   H7   0.731127  0.619428  0.798206  0.048066
    H   H8   0.641529  0.525401  0.776678  0.047506
    C   C10  0.808989  0.498566  0.805783  0.524894
    C   C11  0.847463  0.549357  0.768029  -0.276521
    C   C12  0.765881  0.539842  0.844992  0.011099
    H   H9   0.729865  0.498405  0.864540  -0.017021
    H   H10  0.815270  0.604314  0.903043  -0.005873
    H   H11  0.791069  0.604377  0.698431  -0.004104
    H   H12  0.890022  0.618852  0.818083  0.048770
    H   H13  0.149848  0.173544  0.205285  0.090364
    C   C13  0.398276  0.381820  0.656922  -0.248762
    C   C14  0.402226  0.391362  0.733636  -0.083015
    C   C15  0.331419  0.339640  0.732651  -0.077987
    C   C16  0.258664  0.274222  0.654898  -0.241419
    C   C17  0.255563  0.260090  0.576540  0.127581
    C   C18  0.323099  0.319376  0.577640  0.200421
    C   C19  0.186043  0.188071  0.497808  -0.175500
    C   C20  0.181073  0.180647  0.420161  0.121625
    C   C21  0.241475  0.247599  0.421428  0.203906
    C   C22  0.315035  0.315241  0.500060  -0.295947
    C   C23  0.116713  0.106672  0.340627  -0.231379
    C   C24  0.106572  0.103815  0.264059  -0.071276
    C   C25  0.159669  0.174533  0.265451  -0.058480
    C   C26  0.226905  0.245841  0.343340  -0.272280
    H   H14  0.456242  0.423884  0.661862  0.180841
    H   H15  0.460553  0.440909  0.794744  0.101213
    H   H16  0.333381  0.349091  0.792998  0.098156
    H   H17  0.204700  0.236340  0.658224  0.169838
    H   H18  0.073536  0.048772  0.335336  0.163428
    H   H19  0.055532  0.046487  0.202775  0.090055
    H   H20  0.265872  0.299830  0.340359  0.176758
    H   H21  0.458118  0.517593  0.163232  0.101972
    C   C27  0.231639  0.488421  0.384047  -0.226727
    C   C28  0.165070  0.493160  0.394238  -0.073350
    C   C29  0.110398  0.508293  0.340171  -0.079623
    C   C30  0.118796  0.513282  0.272399  -0.231708
    C   C31  0.182956  0.503836  0.258179  0.185184
    C   C32  0.244114  0.498254  0.318735  0.092617
    C   C33  0.186837  0.500767  0.184967  -0.160424
    C   C34  0.256058  0.498502  0.176473  0.175367
    C   C35  0.323171  0.505032  0.243079  0.097979
    C   C36  0.316156  0.501736  0.313097  -0.138653
    C   C37  0.258966  0.488845  0.101448  -0.269981
    C   C38  0.330721  0.494593  0.096522  -0.047425
    C   C39  0.400699  0.510506  0.166111  -0.102478
    C   C40  0.397118  0.515358  0.238781  -0.198222
    H   H22  0.271930  0.475590  0.428046  0.164412
    H   H23  0.156833  0.486538  0.445916  0.095920
    H   H24  0.059648  0.514685  0.349812  0.098437
    H   H25  0.074418  0.526088  0.232618  0.160885
    H   H26  0.205673  0.475246  0.044257  0.167974
    H   H27  0.332491  0.488050  0.038285  0.092967
    H   H28  0.454402  0.528699  0.291666  0.155191
    H   H29  0.853031  0.557249  0.516258  0.114129
    C   C41  0.604086  0.757210  0.481838  -0.268786
    C   C42  0.598344  0.828704  0.485501  -0.058318
    C   C43  0.667202  0.898739  0.501820  -0.084068
    C   C44  0.739776  0.895078  0.508440  -0.229983
    C   C45  0.744466  0.820870  0.499189  0.160822
    C   C46  0.679055  0.754423  0.493381  0.174158
    C   C47  0.813711  0.812879  0.496467  -0.170283
    C   C48  0.819958  0.740865  0.494536  0.166730
    C   C49  0.761097  0.681111  0.501909  0.148159
    C   C50  0.688753  0.686029  0.498445  -0.272341
    C   C51  0.884202  0.727078  0.484647  -0.272260
    C   C52  0.895165  0.660845  0.491355  -0.052379
    C   C53  0.842846  0.607748  0.508390  -0.129332
    C   C54  0.775974  0.617253  0.513209  -0.183718
    H   H30  0.547560  0.703942  0.468157  0.169927
    H   H31  0.540159  0.830325  0.477271  0.102795
    H   H32  0.663785  0.956170  0.507712  0.089571
    H   H33  0.792156  0.952488  0.522228  0.168036
    H   H34  0.926614  0.765938  0.470096  0.172375
    H   H35  0.946017  0.651605  0.484689  0.095458
    H   H36  0.737330  0.573863  0.527168  0.145313
    O   O9   0.945994  0.354781  0.903673  -0.653708
    O   O10  0.050878  0.462558  0.906522  -0.691323
    C   C55  0.999113  0.380573  0.876571  0.764620
    O   O11  0.855430  0.445751  0.903171  -0.685095
    O   O12  0.959048  0.553293  0.904272  -0.650431
    C   C56  0.878234  0.498937  0.874482  0.406283
    Zn  Zn3  0.930092  0.429166  0.995046  1.279449
    Zn  Zn4  0.066413  0.570074  0.996718  1.259242
    O   O13  0.948883  0.536670  0.088459  -0.683091
    O   O14  0.047416  0.644344  0.085005  -0.651225
    O   O15  0.037567  0.443149  0.084455  -0.657378
    O   O16  0.140867  0.556403  0.091541  -0.626314
    C   C57  0.997508  0.618494  0.115253  0.755429
    C   C58  0.118388  0.500162  0.117128  0.600824
    O   O17  0.946368  0.909951  0.351044  -0.637034
    O   O18  0.049283  0.907692  0.457460  -0.654931
    C   C59  0.997501  0.879925  0.375605  0.663825
    O   O19  0.037542  0.092171  0.445155  -0.656084
    O   O20  0.143297  0.090040  0.548781  -0.635443
    C   C60  0.118954  0.119978  0.497014  0.663697
    Zn  Zn5  0.930039  0.000018  0.426763  1.250884
    Zn  Zn6  0.068785  0.000157  0.566151  1.237709
    O   O21  0.945275  0.088145  0.535398  -0.637370
    O   O22  0.056630  0.094478  0.641749  -0.634199
    O   O23  0.855617  0.905863  0.439928  -0.654236
    O   O24  0.961379  0.912402  0.552071  -0.622285
    C   C61  0.001138  0.120108  0.617093  0.631013
    C   C62  0.880115  0.880354  0.496094  0.625675
    H   H37  0.021717  0.171628  0.960519  0.102637
    C   C63  0.984773  0.382446  0.721347  -0.246716
    C   C64  0.989954  0.392134  0.654112  -0.082093
    C   C65  0.007825  0.339706  0.602179  -0.081757
    C   C66  0.014501  0.273606  0.613527  -0.245309
    C   C67  0.004159  0.259650  0.678060  0.127984
    C   C68  0.996878  0.319250  0.737134  0.190002
    C   C69  0.001008  0.187217  0.684010  -0.156488
    C   C70  0.997627  0.178633  0.753417  0.161805
    C   C71  0.005501  0.245729  0.819875  0.149543
    C   C72  0.001097  0.314498  0.810362  -0.276447
    C   C73  0.985286  0.103018  0.756553  -0.413899
    C   C74  0.991934  0.097870  0.830003  0.131061
    C   C75  0.012297  0.170551  0.900504  -0.189201
    C   C76  0.018264  0.242943  0.895466  -0.221229
    H   H38  0.969596  0.424944  0.759265  0.179369
    H   H39  0.981630  0.442214  0.643318  0.099428
    H   H40  0.014745  0.349077  0.551057  0.097571
    H   H41  0.029154  0.234871  0.571064  0.169954
    H   H42  0.968187  0.047234  0.700285  0.211047
    H   H43  0.034806  0.297169  0.953410  0.178746
    H   H44  0.704096  0.552631  0.034888  0.110589
    C   C77  0.152893  0.756051  0.273207  -0.455469
    C   C78  0.230975  0.828998  0.341071  0.165393
    C   C79  0.229054  0.900265  0.389675  -0.219995
    C   C80  0.152285  0.896192  0.377214  -0.177563
    C   C81  0.074451  0.820808  0.314355  0.076002
    C   C82  0.074774  0.753713  0.256389  0.234342
    C   C83  0.996979  0.812297  0.308500  -0.169425
    C   C84  0.919333  0.739064  0.239496  0.153239
    C   C85  0.919364  0.678960  0.173426  0.156152
    C   C86  0.997130  0.684455  0.183043  -0.263631
    C   C87  0.841161  0.724553  0.235435  -0.269605
    C   C88  0.764466  0.657240  0.162793  -0.056186
    C   C89  0.764408  0.603915  0.093153  -0.118656
    C   C90  0.841078  0.614138  0.098290  -0.200665
    H   H45  0.152214  0.699465  0.234542  0.208945
    H   H46  0.287654  0.960020  0.440588  0.116223
    H   H47  0.156132  0.954503  0.417841  0.161712
    H   H48  0.837135  0.763699  0.288445  0.178541
    H   H49  0.704200  0.647423  0.159971  0.090682
    H   H50  0.836818  0.570454  0.041305  0.149907
    C   C91  0.979750  0.017193  0.836668  0.589690
    C   C92  0.063022  0.037100  0.909133  -0.435919
    C   C93  0.907683  0.987974  0.856467  -0.394893
    C   C94  0.955746  0.941317  0.753553  -0.335751
    H   H51  0.077491  0.082704  0.973594  0.100202
    H   H52  0.117005  0.065784  0.898789  0.067493
    H   H53  0.057217  0.976687  0.908847  0.092965
    H   H54  0.926329  0.034745  0.922405  0.081101
    H   H55  0.892667  0.924631  0.852989  0.088266
    H   H56  0.849169  0.981201  0.808031  0.059710
    H   H57  0.008017  0.957741  0.738053  0.067259
    H   H58  0.893994  0.922696  0.698991  0.057500
    H   H59  0.946910  0.884342  0.762152  0.073037
    C   C95  0.317563  0.834027  0.363746  0.568846
    C   C96  0.371974  0.904044  0.352058  -0.389915
    C   C97  0.363718  0.855694  0.457824  -0.395570
    C   C98  0.310298  0.749670  0.307789  -0.301476
    H   H60  0.389626  0.969150  0.399539  0.076180
    H   H61  0.335318  0.891823  0.285411  0.056413
    H   H62  0.432303  0.903072  0.361779  0.088572
    H   H63  0.384568  0.922915  0.503395  0.077934
    H   H64  0.421879  0.849249  0.472313  0.087262
    H   H65  0.319924  0.810336  0.468550  0.059793
    H   H66  0.280535  0.732765  0.238679  0.064970
    H   H67  0.272652  0.696914  0.315696  0.054162
    H   H68  0.375307  0.756920  0.328346  0.048022
