# Generated by REPEAT Assigner based on pymatgen
data_DB0-m9_o4_o11_f0_sra.sym.1
_audit_creation_date              2022-05-24
_audit_creation_method            REPEAT_Assigner
_cell_length_a                    6.833621
_cell_length_b                    13.978292
_cell_length_c                    16.134435
_cell_angle_alpha                 90.313051
_cell_angle_beta                  89.958997
_cell_angle_gamma                 90.003081
_cell_volume                      1541.175793
_symmetry_space_group_name_H-M    P1
_symmetry_Int_Tables_number       1
loop_
    _symmetry_equiv_pos_site_id
    _symmetry_equiv_pos_as_xyz
    1  x,y,z
loop_
    _atom_site_type_symbol
    _atom_site_label
    _atom_site_fract_x
    _atom_site_fract_y
    _atom_site_fract_z
    _atom_type_partial_charge
    O  O1   0.510120  0.578515  0.410895  -0.518219
    O  O2   0.167446  0.598648  0.585222  -0.497918
    O  O3   0.009936  0.419093  0.590828  -0.551993
    C  C1   0.342089  0.614712  0.616639  0.570176
    O  O4   0.167448  0.596158  0.414944  -0.528784
    O  O5   0.009983  0.416421  0.411682  -0.510085
    C  C2   0.342349  0.612032  0.383802  0.593045
    O  O6   0.510119  0.580487  0.590136  -0.517341
    O  O7   0.335789  0.441006  0.501042  -0.510528
    V  V1   0.061350  0.510051  0.500661  1.404647
    O  O8   0.667257  0.398837  0.415914  -0.562190
    C  C3   0.842376  0.382152  0.385059  0.635138
    O  O9   0.667381  0.400572  0.586242  -0.542838
    C  C4   0.842539  0.385206  0.617677  0.662651
    V  V2   0.561362  0.487156  0.500837  1.438295
    O  O10  0.835978  0.556208  0.500445  -0.534394
    C  C5   0.714087  0.204860  0.785361  -0.015336
    C  C6   0.884502  0.181379  0.820112  -0.286294
    H  H1   0.581082  0.171717  0.807963  0.104674
    H  H2   0.020926  0.212337  0.799870  0.172631
    C  C7   0.700164  0.274184  0.716980  -0.053927
    C  C8   0.857772  0.317154  0.685847  -0.284446
    H  H3   0.557566  0.290312  0.691198  0.118719
    H  H4   0.002230  0.302910  0.709703  0.164816
    C  C9   0.707684  0.209039  0.220143  0.081799
    C  C10  0.882346  0.178761  0.188255  -0.135075
    C  C11  0.049784  0.216866  0.223653  -0.100641
    H  H5   0.191098  0.195112  0.200824  0.087194
    C  C12  0.036245  0.283227  0.288290  -0.115389
    H  H6   0.166757  0.312946  0.315658  0.100232
    C  C13  0.855629  0.312087  0.318114  -0.120487
    C  C14  0.694458  0.272115  0.281485  0.033595
    C  C15  0.478070  0.273749  0.281399  -0.004699
    C  C16  0.494071  0.199349  0.209035  -0.078816
    H  H7   0.421107  0.344126  0.261130  0.042850
    H  H8   0.416803  0.243134  0.339138  0.063118
    H  H9   0.446815  0.227922  0.148218  0.081009
    H  H10  0.442348  0.126769  0.225879  0.054327
    C  C17  0.526458  0.712874  0.717096  0.062557
    C  C18  0.351713  0.683071  0.685013  -0.111132
    C  C19  0.184344  0.720634  0.720997  -0.100893
    H  H11  0.042930  0.699039  0.698226  0.080926
    C  C20  0.198104  0.785757  0.786572  -0.116847
    H  H12  0.067621  0.814807  0.814588  0.106472
    C  C21  0.378818  0.813879  0.816780  -0.110270
    C  C22  0.539906  0.774767  0.779319  0.041931
    C  C23  0.756324  0.776038  0.779267  -0.030656
    C  C24  0.740068  0.702981  0.705909  -0.047471
    H  H13  0.817263  0.744279  0.836559  0.068681
    H  H14  0.813891  0.846680  0.759963  0.044613
    H  H15  0.791243  0.630026  0.721784  0.049918
    H  H16  0.787871  0.732549  0.645501  0.078228
    C  C25  0.526961  0.709289  0.283184  0.067276
    C  C26  0.352285  0.679549  0.315268  -0.105411
    C  C27  0.184979  0.717175  0.279668  -0.115331
    H  H17  0.043568  0.695844  0.302502  0.091782
    C  C28  0.198672  0.782429  0.214733  -0.114311
    H  H18  0.068144  0.811721  0.187312  0.105456
    C  C29  0.379313  0.810776  0.184715  -0.119516
    C  C30  0.540336  0.771350  0.221587  0.034961
    C  C31  0.756734  0.772952  0.221751  -0.013871
    C  C32  0.740573  0.699774  0.294352  -0.072000
    H  H19  0.813737  0.843657  0.241813  0.043542
    H  H20  0.818126  0.741357  0.164140  0.064115
    H  H21  0.787819  0.729371  0.355078  0.083433
    H  H22  0.792325  0.626916  0.277755  0.053870
    O  O11  0.224235  0.915933  0.912151  -0.494333
    O  O12  0.567701  0.897092  0.087077  -0.543294
    O  O13  0.724571  0.076984  0.092479  -0.523898
    C  C33  0.392591  0.880081  0.117640  0.631734
    O  O14  0.566986  0.897584  0.916669  -0.528194
    O  O15  0.724097  0.077354  0.913308  -0.498634
    C  C34  0.392069  0.882293  0.885003  0.585469
    O  O16  0.225104  0.914006  0.090952  -0.521326
    O  O17  0.398743  0.053719  0.003198  -0.511068
    V  V3   0.673225  0.984744  0.002366  1.395021
    O  O18  0.066511  0.096143  0.919178  -0.546629
    C  C35  0.892191  0.111898  0.887417  0.611738
    O  O19  0.067582  0.093168  0.089714  -0.518682
    C  C36  0.892262  0.110519  0.119811  0.618547
    V  V4   0.173224  0.007547  0.002751  1.397472
    O  O20  0.898602  0.938551  0.001958  -0.513487
