# Generated by REPEAT Assigner based on pymatgen
data_DB0-m3_o48_o25_f0_fsc.sym.3
_audit_creation_date              2022-05-24
_audit_creation_method            REPEAT_Assigner
_cell_length_a                    8.521784
_cell_length_b                    10.809922
_cell_length_c                    14.248478
_cell_angle_alpha                 90.488757
_cell_angle_beta                  93.732290
_cell_angle_gamma                 90.036452
_cell_volume                      1309.734845
_symmetry_space_group_name_H-M    P1
_symmetry_Int_Tables_number       1
loop_
    _symmetry_equiv_pos_site_id
    _symmetry_equiv_pos_as_xyz
    1  x,y,z
loop_
    _atom_site_type_symbol
    _atom_site_label
    _atom_site_fract_x
    _atom_site_fract_y
    _atom_site_fract_z
    _atom_type_partial_charge
    C   C1   0.995362  0.521935  0.132334  0.157408
    C   C2   0.854013  0.458984  0.139444  0.110699
    C   C3   0.713933  0.523406  0.135887  -0.217090
    C   C4   0.713014  0.650023  0.126848  -0.211285
    C   C5   0.852032  0.714127  0.120217  0.111162
    C   C6   0.994524  0.650859  0.123662  0.061836
    C   C7   0.849850  0.841568  0.108958  -0.118476
    C   C8   0.986849  0.903416  0.095450  -0.153543
    C   C9   0.128468  0.844016  0.105874  -0.051879
    C   C10  0.133437  0.719040  0.122329  -0.243635
    C   C11  0.133712  0.453446  0.130025  -0.350020
    C   C12  0.132569  0.328488  0.146269  0.009996
    C   C13  0.994352  0.269412  0.160771  -0.158161
    C   C14  0.854275  0.331551  0.151105  -0.174578
    H   H1   0.603352  0.475936  0.141356  0.119542
    H   H2   0.601497  0.697749  0.124144  0.135817
    H   H3   0.248457  0.679864  0.135506  0.124484
    H   H4   0.245008  0.492426  0.114648  0.169682
    H   H5   0.994400  0.171105  0.172161  0.149705
    H   H6   0.984033  0.001744  0.084185  0.131276
    O   O1   0.329387  0.949430  0.197110  -0.730757
    O   O2   0.318663  0.968069  0.035462  -0.737790
    C   C15  0.271021  0.918995  0.112613  0.888024
    O   O3   0.315740  0.223609  0.055429  -0.725676
    O   O4   0.336118  0.204759  0.217200  -0.735980
    C   C16  0.273648  0.253778  0.139644  0.847956
    O   O5   0.654444  0.223672  0.059260  -0.739001
    O   O6   0.664687  0.205346  0.220666  -0.756584
    C   C17  0.711662  0.255599  0.143835  0.950314
    O   O7   0.668051  0.949109  0.200413  -0.736046
    O   O8   0.647237  0.967634  0.038983  -0.713922
    C   C18  0.708983  0.917412  0.116153  0.867917
    Zn  Zn1  0.482354  0.100717  0.023733  1.086665
    Zn  Zn2  0.501630  0.072174  0.232403  1.112672
    C   C19  0.621232  0.020883  0.609787  -0.167466
    C   C20  0.614976  0.142598  0.664321  -0.184930
    H   H7   0.717690  0.194439  0.696206  0.091532
    H   H8   0.729027  0.969820  0.593343  0.095684
    H   H9   0.496618  0.285018  0.558244  0.090743
    N   N1   0.473090  0.114924  0.900753  0.062444
    N   N2   0.511281  0.057837  0.355377  0.052060
    C   C21  0.488385  0.971143  0.664356  -0.296237
    C   C22  0.482465  0.091447  0.718023  0.874416
    C   C23  0.367116  0.019700  0.591388  -0.128655
    C   C24  0.499791  0.071033  0.538493  0.760886
    C   C25  0.361229  0.141454  0.646068  -0.230076
    C   C26  0.493832  0.192503  0.591145  -0.158372
    C   C27  0.476031  0.106836  0.819850  -0.353951
    C   C28  0.507586  0.061954  0.436376  -0.310366
    H   H10  0.253144  0.192057  0.662611  0.098168
    H   H11  0.264710  0.967366  0.559641  0.087090
    C   C29  0.486230  0.840220  0.697090  0.305364
    C   C30  0.513663  0.747342  0.633150  -0.219029
    C   C31  0.512661  0.625112  0.659910  -0.089761
    C   C32  0.483548  0.594999  0.750888  -0.145235
    C   C33  0.454893  0.687207  0.814881  0.026693
    C   C34  0.455916  0.809568  0.788213  -0.354564
    H   H12  0.536516  0.770609  0.561672  0.114220
    H   H13  0.534661  0.552912  0.609488  0.111420
    H   H14  0.482577  0.499179  0.771949  0.104568
    H   H15  0.431012  0.663569  0.886129  0.090728
    H   H16  0.430905  0.879459  0.839299  0.191896
