# Generated by REPEAT Assigner based on pymatgen
data_DB0-m2_o2_o6_f0_pcu.sym.3
_audit_creation_date              2022-05-24
_audit_creation_method            REPEAT_Assigner
_cell_length_a                    15.113017
_cell_length_b                    13.804979
_cell_length_c                    16.038683
_cell_angle_alpha                 90.000000
_cell_angle_beta                  90.006182
_cell_angle_gamma                 90.000000
_cell_volume                      3346.228651
_symmetry_space_group_name_H-M    P1
_symmetry_Int_Tables_number       1
loop_
    _symmetry_equiv_pos_site_id
    _symmetry_equiv_pos_as_xyz
    1  x,y,z
loop_
    _atom_site_type_symbol
    _atom_site_label
    _atom_site_fract_x
    _atom_site_fract_y
    _atom_site_fract_z
    _atom_type_partial_charge
    O   O1   0.371167  0.583388  0.500810  -0.594707
    O   O2   0.628648  0.417005  0.495322  -0.474308
    O   O3   0.628300  0.583227  0.505238  -0.612533
    O   O4   0.371550  0.417043  0.498641  -0.496870
    C   C1   0.329880  0.500096  0.499653  0.623679
    C   C2   0.670078  0.500204  0.500180  0.618618
    O   O5   0.499591  0.583011  0.378989  -0.634873
    O   O6   0.504414  0.416988  0.620984  -0.638261
    O   O7   0.494046  0.583197  0.621217  -0.633878
    O   O8   0.501965  0.416522  0.378683  -0.626727
    C   C3   0.500890  0.499796  0.340000  0.950135
    C   C4   0.499147  0.500052  0.660006  0.964550
    Cu  Cu1  0.499513  0.597148  0.500130  0.864956
    Cu  Cu2  0.500254  0.402984  0.499836  0.676010
    H   H1   0.500237  0.653957  0.077362  0.124485
    H   H2   0.499688  0.345460  0.923807  0.127371
    H   H3   0.499571  0.654397  0.923922  0.124654
    H   H4   0.500286  0.345557  0.076972  0.125111
    C   C5   0.499667  0.586428  0.957403  -0.149857
    C   C6   0.500136  0.413362  0.043300  -0.147255
    C   C7   0.500106  0.586338  0.043380  -0.149132
    C   C8   0.499724  0.413379  0.957356  -0.154620
    C   C9   0.499576  0.499912  0.914323  0.197574
    C   C10  0.500561  0.499843  0.086245  0.197891
    C   C11  0.499306  0.499889  0.824758  -0.019245
    C   C12  0.500956  0.499950  0.175590  -0.023607
    C   C13  0.501002  0.500093  0.250637  -0.333148
    C   C14  0.499132  0.499692  0.749562  -0.340420
    C   C15  0.095663  0.583154  0.481420  -0.200297
    C   C16  0.904305  0.418515  0.475622  -0.156075
    C   C17  0.904938  0.581390  0.524770  -0.195186
    C   C18  0.095491  0.415903  0.518771  -0.163692
    H   H5   0.062092  0.649205  0.464205  0.114050
    H   H6   0.938104  0.354452  0.453915  0.112281
    H   H7   0.939232  0.645105  0.546860  0.114383
    H   H8   0.061736  0.349879  0.536088  0.113738
    C   C19  0.186814  0.583338  0.482279  -0.025078
    C   C20  0.813055  0.418374  0.476508  -0.087309
    C   C21  0.813670  0.582003  0.524005  -0.032953
    C   C22  0.186755  0.415849  0.517794  -0.080803
    H   H9   0.221691  0.649254  0.466849  0.086030
    H   H10  0.778278  0.353934  0.456700  0.082957
    H   H11  0.779847  0.646886  0.543916  0.091364
    H   H12  0.221345  0.349507  0.532369  0.082619
    C   C23  0.232902  0.499674  0.499939  -0.038870
    C   C24  0.767136  0.500345  0.500151  -0.033044
    C   C25  0.048899  0.499518  0.499878  0.112095
    C   C26  0.951250  0.499887  0.499900  0.103145
    C   C27  0.561000  0.106868  0.545117  -0.105740
    C   C28  0.452902  0.893120  0.441759  -0.112336
    C   C29  0.439728  0.107158  0.453585  -0.118176
    C   C30  0.547626  0.893002  0.557809  -0.118069
    H   H13  0.612555  0.072685  0.580759  0.079109
    H   H14  0.414744  0.927180  0.393449  0.078369
    H   H15  0.388221  0.073463  0.417474  0.083820
    H   H16  0.583863  0.926477  0.607953  0.080411
    C   C31  0.558798  0.206720  0.546804  -0.013490
    C   C32  0.451120  0.793238  0.443846  -0.024930
    C   C33  0.442196  0.207046  0.451805  -0.005881
    C   C34  0.549293  0.793238  0.555791  -0.021058
    N   N1   0.500161  0.257624  0.499889  0.173249
    N   N2   0.499659  0.742496  0.500489  0.150446
    C   C35  0.500365  0.054214  0.499436  0.098855
    C   C36  0.500630  0.945876  0.499491  0.131845
    Cl  Cl1  0.636046  0.262240  0.612832  0.012020
    Cl  Cl2  0.379671  0.737719  0.372186  0.027761
    Cl  Cl3  0.366678  0.262881  0.383928  0.011500
    Cl  Cl4  0.617002  0.737904  0.630747  0.027347
