# Generated by REPEAT Assigner based on pymatgen
data_DB0-m3_o1490_o159_f0_fsc.sym.33
_audit_creation_date              2022-05-24
_audit_creation_method            REPEAT_Assigner
_cell_length_a                    8.517707
_cell_length_b                    10.787972
_cell_length_c                    13.433902
_cell_angle_alpha                 97.689173
_cell_angle_beta                  90.095538
_cell_angle_gamma                 90.008325
_cell_volume                      1223.323781
_symmetry_space_group_name_H-M    P1
_symmetry_Int_Tables_number       1
loop_
    _symmetry_equiv_pos_site_id
    _symmetry_equiv_pos_as_xyz
    1  x,y,z
loop_
    _atom_site_type_symbol
    _atom_site_label
    _atom_site_fract_x
    _atom_site_fract_y
    _atom_site_fract_z
    _atom_type_partial_charge
    C   C1   0.999312  0.684157  0.044963  -0.037809
    C   C2   0.140229  0.740189  0.030504  -0.170527
    C   C3   0.144095  0.860964  0.008367  -0.104750
    C   C4   0.860989  0.743856  0.029329  -0.392277
    C   C5   0.863393  0.867792  0.011068  0.495423
    C   C6   0.005765  0.929312  0.005207  -0.156279
    C   C7   0.005890  0.055764  0.991909  0.265758
    C   C8   0.144305  0.124606  0.992054  -0.307525
    C   C9   0.140744  0.246657  0.973454  -0.052023
    N   N1   0.727635  0.928521  0.000216  -0.523254
    C   C10  0.725020  0.050268  0.987314  0.148548
    C   C11  0.863351  0.116533  0.983552  -0.053130
    C   C12  0.861114  0.242656  0.970600  -0.178775
    C   C13  0.000136  0.303783  0.959935  -0.062776
    H   H1   0.997076  0.587582  0.057847  0.095263
    H   H2   0.998469  0.401432  0.950204  0.110797
    H   H3   0.257334  0.896440  0.991317  0.079395
    H   H4   0.257589  0.088446  0.008423  0.152739
    H   H5   0.613282  0.095359  0.979393  0.062807
    O   O1   0.331308  0.623091  0.930824  -0.775504
    O   O2   0.336316  0.621732  0.102472  -0.793112
    C   C14  0.280905  0.662591  0.021630  1.059396
    O   O3   0.333688  0.362740  0.073361  -0.724519
    O   O4   0.336157  0.363884  0.901048  -0.759824
    C   C15  0.282263  0.323192  0.982376  0.886795
    O   O5   0.671096  0.363032  0.071670  -0.713843
    O   O6   0.664970  0.363562  0.899923  -0.751946
    C   C16  0.719423  0.320916  0.980447  0.898093
    O   O7   0.669292  0.624059  0.929947  -0.777947
    O   O8   0.666228  0.623420  0.101083  -0.793858
    C   C17  0.718995  0.666366  0.020541  1.133569
    Zn  Zn1  0.502539  0.490965  0.112292  1.010336
    Zn  Zn2  0.500445  0.495906  0.890438  1.061887
    C   C18  0.495915  0.389547  0.696980  -0.224717
    N   N2   0.499182  0.497175  0.760066  0.188771
    C   C19  0.503652  0.607455  0.724033  -0.153113
    C   C20  0.505276  0.612366  0.622013  -0.159463
    C   C21  0.502498  0.502667  0.554716  0.041642
    C   C22  0.497356  0.390704  0.594322  0.217121
    C   C23  0.507193  0.609357  0.404676  -0.129615
    C   C24  0.504602  0.501068  0.450103  0.012344
    C   C25  0.503629  0.387467  0.388106  0.208305
    C   C26  0.501100  0.277030  0.429824  -0.049077
    C   C27  0.495404  0.278762  0.532001  -0.268660
    C   C28  0.507586  0.602291  0.301552  -0.160239
    N   N3   0.504529  0.491165  0.242906  0.221973
    C   C29  0.502010  0.384563  0.284154  -0.276921
    H   H6   0.506375  0.693513  0.775471  0.163997
    H   H7   0.495991  0.297963  0.233898  0.202043
    H   H8   0.493055  0.191402  0.563101  0.138056
    H   H9   0.509570  0.703997  0.599241  0.144623
    H   H10  0.508213  0.701744  0.445935  0.120334
    H   H11  0.492991  0.301554  0.727098  0.185118
    H   H12  0.508958  0.687685  0.267745  0.165814
    C   C30  0.506933  0.157700  0.365678  0.162480
    C   C31  0.373159  0.086026  0.349636  -0.161420
    C   C32  0.371471  0.985171  0.275138  -0.182705
    C   C33  0.503965  0.956130  0.218038  0.216704
    Cl  Cl1  0.496204  0.839546  0.115300  -0.088191
    C   C34  0.640327  0.023374  0.238245  -0.185516
    C   C35  0.641551  0.124800  0.311873  -0.196117
    H   H13  0.267293  0.113180  0.391190  0.117471
    H   H14  0.264731  0.932056  0.258823  0.118549
    H   H15  0.744351  0.999941  0.193830  0.152015
    H   H16  0.745697  0.182105  0.324250  0.127266
