# Generated by REPEAT Assigner based on pymatgen
data_DB0-m29_o97_o149_f0_pts.sym.29
_audit_creation_date              2022-05-24
_audit_creation_method            REPEAT_Assigner
_cell_length_a                    17.757816
_cell_length_b                    9.418635
_cell_length_c                    14.977840
_cell_angle_alpha                 87.592260
_cell_angle_beta                  79.582935
_cell_angle_gamma                 106.588909
_cell_volume                      2349.590741
_symmetry_space_group_name_H-M    P1
_symmetry_Int_Tables_number       1
loop_
    _symmetry_equiv_pos_site_id
    _symmetry_equiv_pos_as_xyz
    1  x,y,z
loop_
    _atom_site_type_symbol
    _atom_site_label
    _atom_site_fract_x
    _atom_site_fract_y
    _atom_site_fract_z
    _atom_type_partial_charge
    C   C1   0.227336  0.051080  0.155494  -0.268402
    C   C2   0.099134  0.087371  0.191945  -0.175689
    C   C3   0.286486  0.017416  0.095314  0.035954
    C   C4   0.273732  0.980543  0.009077  -0.066514
    C   C5   0.155640  0.047839  0.131680  0.235957
    C   C6   0.139744  0.002226  0.049214  -0.001024
    C   C7   0.197398  0.961079  0.989977  0.071676
    C   C8   0.176502  0.895506  0.913849  -0.107519
    C   C9   0.027584  0.086675  0.169385  -0.177071
    C   C10  0.010959  0.046748  0.084827  0.057256
    C   C11  0.066800  0.999325  0.025846  0.013933
    C   C12  0.050238  0.948902  0.943736  0.046623
    C   C13  0.104252  0.888837  0.891273  -0.128295
    C   C14  0.884012  0.105900  0.112647  -0.116030
    C   C15  0.939050  0.048795  0.059438  0.043209
    C   C16  0.922765  0.999079  0.977042  0.024345
    C   C17  0.978900  0.952788  0.917859  0.057244
    C   C18  0.963263  0.915760  0.832529  -0.177519
    C   C19  0.811528  0.097732  0.090138  -0.159274
    C   C20  0.791355  0.033864  0.013244  0.100411
    C   C21  0.849809  0.995593  0.953518  -0.015940
    C   C22  0.834699  0.952100  0.870369  0.248676
    C   C23  0.714935  0.012892  0.993912  -0.087274
    C   C24  0.703073  0.978557  0.907031  0.074858
    C   C25  0.891925  0.915351  0.809592  -0.180018
    C   C26  0.763049  0.948279  0.846368  -0.291070
    H   H1   0.238682  0.084977  0.221077  0.156934
    H   H2   0.110520  0.119541  0.257823  0.145937
    H   H3   0.213941  0.841071  0.872332  0.127505
    H   H4   0.986126  0.115003  0.221923  0.146790
    H   H5   0.092283  0.830788  0.832742  0.123508
    H   H6   0.894954  0.161929  0.172103  0.122238
    H   H7   0.005618  0.890382  0.779619  0.151127
    H   H8   0.773317  0.149916  0.132354  0.153323
    H   H9   0.881221  0.885396  0.743113  0.147009
    H   H10  0.752268  0.915902  0.780325  0.155168
    O   O1   0.577699  0.014937  0.050729  -0.532179
    C   C27  0.645718  0.004352  0.068184  0.588569
    O   O2   0.510531  0.705491  0.150196  -0.499077
    O   O3   0.648017  0.966657  0.152781  -0.504136
    O   O4   0.489429  0.841467  0.268432  -0.557193
    C   C28  0.499839  0.717684  0.238225  0.566243
    Fe  Fe1  0.499340  0.991033  0.166558  1.473132
    O   O5   0.389685  0.922258  0.136823  -0.644301
    O   O6   0.405711  0.170868  0.135681  -0.552909
    C   C29  0.363661  0.037259  0.122482  0.733123
    O   O7   0.537613  0.192403  0.210554  -0.639326
    O   O8   0.437895  0.086445  0.333345  -0.566223
    C   C30  0.495752  0.202293  0.290339  0.706529
    O   O9   0.452533  0.790537  0.794755  -0.628797
    O   O10  0.548220  0.907760  0.671241  -0.488299
    C   C31  0.495161  0.786142  0.714471  0.625531
    O   O11  0.597712  0.068644  0.866806  -0.649678
    O   O12  0.585347  0.821443  0.866124  -0.541046
    C   C32  0.625810  0.955871  0.879826  0.707395
    O   O13  0.340089  0.023579  0.850136  -0.505562
    O   O14  0.497157  0.139712  0.733075  -0.550131
    C   C33  0.488586  0.265315  0.761740  0.671083
    O   O15  0.409395  0.970663  0.952113  -0.545156
    C   C34  0.342138  0.985272  0.934722  0.599039
    O   O16  0.478769  0.278941  0.849595  -0.503110
    Fe  Fe2  0.488361  0.994162  0.836725  1.485433
    C   C35  0.481997  0.519863  0.734251  -0.168433
    C   C36  0.490062  0.644000  0.677530  0.105863
    C   C37  0.499327  0.638445  0.585099  -0.204987
    C   C38  0.489216  0.390825  0.698063  -0.168752
    C   C39  0.498765  0.385646  0.603671  0.331889
    C   C40  0.500124  0.507319  0.546757  -0.050603
    C   C41  0.504174  0.495576  0.452913  0.176553
    C   C42  0.498472  0.609386  0.393397  -0.240473
    C   C43  0.503102  0.595554  0.301322  0.086575
    N   N1   0.512547  0.266071  0.566692  -0.239705
    C   C44  0.523328  0.255634  0.476429  0.110031
    C   C45  0.512461  0.364944  0.418314  -0.085888
    C   C46  0.509330  0.346931  0.326848  0.056842
    C   C47  0.508557  0.463818  0.268791  -0.231563
    H   H11  0.475996  0.528589  0.806700  0.223502
    H   H12  0.506636  0.447154  0.198222  0.215902
    H   H13  0.507219  0.740962  0.545688  0.151233
    H   H14  0.489157  0.710665  0.416045  0.182150
    C   C48  0.557227  0.138122  0.443394  0.629290
    O   O17  0.538902  0.019864  0.490161  -0.438245
    O   O18  0.618897  0.168238  0.366731  -0.573068
    H   H15  0.638282  0.077874  0.356871  0.394891
