# Generated by REPEAT Assigner based on pymatgen
data_DB0-m2_o9_o27_f0_nbo.sym.21_sqe
_audit_creation_date              2022-05-24
_audit_creation_method            REPEAT_Assigner
_cell_length_a                    21.528880
_cell_length_b                    21.547279
_cell_length_c                    24.450640
_cell_angle_alpha                 116.128188
_cell_angle_beta                  116.113977
_cell_angle_gamma                 90.008108
_cell_volume                      8875.151257
_symmetry_space_group_name_H-M    P1
_symmetry_Int_Tables_number       1
loop_
    _symmetry_equiv_pos_site_id
    _symmetry_equiv_pos_as_xyz
    1  x,y,z
loop_
    _atom_site_type_symbol
    _atom_site_label
    _atom_site_fract_x
    _atom_site_fract_y
    _atom_site_fract_z
    _atom_type_partial_charge
    C   C1    0.064919  0.555062  0.628336  0.549690
    C   C2    0.008281  0.305539  0.234575  -0.033371
    C   C3    0.594908  0.287302  0.333845  -0.061977
    C   C4    0.521557  0.196598  0.459237  -0.148213
    C   C5    0.501846  0.186220  0.501905  -0.097294
    C   C6    0.481532  0.240659  0.543417  0.037457
    C   C7    0.479237  0.302687  0.539626  -0.205894
    C   C8    0.496576  0.311625  0.495300  0.036801
    C   C9    0.518251  0.258368  0.455046  0.017500
    C   C10   0.401331  0.244067  0.591136  -0.138735
    C   C11   0.388162  0.244718  0.641654  -0.169556
    C   C12   0.440917  0.240379  0.697221  -0.002922
    C   C13   0.247672  0.456611  0.434123  -0.108899
    C   C14   0.506808  0.235297  0.702219  -0.151680
    C   C15   0.519751  0.233581  0.651200  -0.171467
    C   C16   0.466796  0.237494  0.595236  0.218288
    C   C17   0.717624  0.429902  0.591736  0.490094
    C   C18   0.748188  0.425696  0.658457  -0.349440
    C   C19   0.458967  0.060754  0.712082  0.325488
    C   C20   0.387023  0.010540  0.654311  -0.210149
    C   C21   0.309120  0.498644  0.496794  0.035248
    C   C22   0.304460  0.535823  0.557520  -0.041311
    C   C23   0.239290  0.527667  0.554541  -0.120787
    C   C24   0.178563  0.484901  0.492133  -0.126808
    C   C25   0.182566  0.449546  0.431412  0.013460
    C   C26   0.384177  0.581908  0.683520  -0.161761
    C   C27   0.440623  0.631340  0.746889  -0.106132
    C   C28   0.478006  0.687111  0.751644  -0.139901
    C   C29   0.110281  0.483606  0.491027  0.923302
    C   C30   0.458608  0.693764  0.693093  -0.052186
    C   C31   0.402140  0.644437  0.629737  -0.197259
    C   C32   0.365420  0.587659  0.624489  0.208362
    C   C33   0.115730  0.667318  0.740198  -0.180247
    C   C34   0.152718  0.704380  0.812228  0.131713
    C   C35   0.181692  0.669049  0.849507  -0.535755
    C   C36   0.172335  0.596071  0.813921  0.109078
    C   C37   0.133496  0.558780  0.741890  -0.122443
    C   C38   0.105354  0.594314  0.704757  0.111160
    C   C39   0.294520  0.781642  0.065883  0.939515
    C   C40   0.925523  0.419703  0.363438  0.588968
    C   C41   0.221769  0.708811  0.926120  0.973952
    C   C42   0.308759  0.875256  0.178201  0.097013
    C   C43   0.343784  0.911302  0.250212  -0.119909
    C   C44   0.405104  0.895367  0.287471  -0.012615
    C   C45   0.430809  0.842565  0.251926  -0.110484
    C   C46   0.394545  0.804982  0.179772  0.093339
    C   C47   0.333437  0.821332  0.142528  -0.480112
    C   C48   0.950235  0.445421  0.670640  -0.150186
    C   C49   0.893570  0.441387  0.612066  -0.112414
    C   C50   0.867934  0.500938  0.615437  0.323763
    C   C51   0.879214  0.490170  0.499324  0.812216
    C   C52   0.899063  0.564417  0.677617  -0.290338
    C   C53   0.955971  0.568511  0.736084  -0.022064
    C   C54   0.981275  0.508912  0.732692  -0.076020
    C   C55   0.740811  0.497672  0.553335  0.397861
    C   C56   0.682104  0.497119  0.497539  -0.311132
    C   C57   0.689018  0.495205  0.442989  0.110305
    C   C58   0.753201  0.490956  0.443480  -0.216069
    C   C59   0.811206  0.491146  0.498734  -0.028543
    C   C60   0.805585  0.496184  0.554490  -0.214872
    C   C61   0.607200  0.454434  0.318328  -0.154762
    C   C62   0.028282  0.293799  0.290395  -0.138684
    C   C63   0.553993  0.463159  0.266126  -0.117514
    C   C64   0.526049  0.522070  0.282886  -0.142028
    C   C65   0.551891  0.572693  0.351877  -0.055916
    C   C66   0.604828  0.563835  0.404103  -0.197524
    C   C67   0.631701  0.503920  0.387557  0.177890
    C   C68   0.879717  0.418278  0.251432  -0.150957
    C   C69   0.845143  0.382591  0.179523  0.127604
    C   C70   0.815239  0.310261  0.142715  -0.535013
    C   C71   0.820901  0.273835  0.178569  0.138446
    C   C72   0.857484  0.309279  0.250623  -0.173699
    C   C73   0.083850  0.341827  0.355204  -0.141960
    C   C74   0.886699  0.381645  0.287186  0.107866
    C   C75   0.708900  0.205051  0.926622  0.916863
    C   C76   0.777919  0.272713  0.066249  0.973513
    C   C77   0.694813  0.187372  0.814683  -0.011686
    C   C78   0.659584  0.151772  0.742752  -0.063754
    C   C79   0.598117  0.098600  0.705224  -0.056708
    C   C80   0.572284  0.081036  0.740945  0.450920
    C   C81   0.609872  0.114603  0.813021  -0.221014
    C   C82   0.670577  0.168381  0.850147  -0.372227
    C   C83   0.495215  0.615581  0.496824  0.640465
    C   C84   0.119681  0.401773  0.364363  0.127713
    C   C85   0.377635  0.499269  0.497214  0.510586
    C   C86   0.496284  0.379560  0.495632  0.639297
    C   C87   0.613439  0.497885  0.496655  0.701291
    C   C88   0.501913  0.117194  0.500432  0.717175
    C   C89   0.441197  0.933251  0.364017  0.699889
    C   C90   0.504015  0.879841  0.496266  0.652604
    C   C91   0.562678  0.061339  0.628586  0.660868
    C   C92   0.291430  0.552805  0.277446  -0.069062
    C   C93   0.354776  0.603761  0.325920  -0.230566
    C   C94   0.374827  0.637003  0.395975  0.251753
    C   C95   0.099735  0.413119  0.308221  -0.158790
    C   C96   0.330619  0.620589  0.417277  -0.229898
    C   C97   0.266801  0.570567  0.368731  -0.007210
    C   C98   0.247422  0.536187  0.298853  -0.193930
    C   C99   0.444314  0.756768  0.447865  -0.155497
    C   C100  0.504270  0.812158  0.497315  -0.061153
    C   C101  0.561611  0.802160  0.546511  0.012521
    C   C102  0.557027  0.738191  0.546281  -0.159142
    C   C103  0.496869  0.683510  0.497176  0.029148
    C   C104  0.440659  0.692582  0.447128  -0.000944
    C   C105  0.689577  0.849726  0.598708  -0.178263
    C   C106  0.043687  0.365455  0.243613  -0.114257
    C   C107  0.752173  0.900478  0.651118  -0.100120
    C   C108  0.752534  0.958619  0.706479  -0.103110
    C   C109  0.690341  0.965897  0.709457  -0.184147
    C   C110  0.627471  0.915678  0.656526  -0.094994
    C   C111  0.626977  0.857776  0.600819  0.238173
    C   C112  0.523130  0.278225  0.312600  -0.140394
    C   C113  0.497645  0.268390  0.351719  -0.109086
    C   C114  0.544114  0.268597  0.412711  0.109102
    C   C115  0.615559  0.275543  0.432640  -0.121908
    C   C116  0.641118  0.285842  0.393818  -0.167839
    Cu  Cu1   0.995062  0.427064  0.496773  0.913168
    Cu  Cu2   0.995109  0.547545  0.494873  0.994890
    Cu  Cu3   0.461089  0.463761  0.428196  0.846033
    Cu  Cu4   0.529731  0.531761  0.565075  0.910287
    Cu  Cu5   0.564026  0.000342  0.499444  0.931239
    Cu  Cu6   0.439975  0.994612  0.493088  0.921973
    H   H1    0.964806  0.267798  0.183732  0.078951
    H   H2    0.522255  0.725838  0.801352  0.111583
    H   H3    0.487509  0.737807  0.696867  0.084814
    H   H4    0.386654  0.650516  0.584268  0.121824
    H   H5    0.093687  0.695918  0.711970  0.131256
    H   H6    0.159678  0.761451  0.838785  0.035274
    H   H7    0.193946  0.567185  0.841916  0.040350
    H   H8    0.126184  0.501668  0.714911  0.103676
    H   H9    0.260868  0.888749  0.150371  0.041486
    H   H10   0.322945  0.952674  0.276915  0.115623
    H   H11   0.478374  0.828905  0.280116  0.111145
    H   H12   0.000563  0.246725  0.283273  0.114348
    H   H13   0.415113  0.763340  0.153003  0.039441
    H   H14   0.025641  0.512034  0.778651  0.087431
    H   H15   0.970105  0.398698  0.668000  0.102657
    H   H16   0.868475  0.391218  0.563806  0.100190
    H   H17   0.878778  0.611006  0.680525  0.133535
    H   H18   0.980551  0.618365  0.784693  0.078580
    H   H19   0.759138  0.490349  0.401603  0.097152
    H   H20   0.629068  0.408322  0.304770  0.109243
    H   H21   0.534298  0.423830  0.211982  0.107957
    H   H22   0.484386  0.528917  0.241937  0.112851
    H   H23   0.100356  0.331391  0.398331  0.099668
    H   H24   0.530693  0.619388  0.365103  0.083971
    H   H25   0.625423  0.604265  0.458063  0.112031
    H   H26   0.902915  0.474841  0.279385  0.118897
    H   H27   0.841015  0.412331  0.152711  0.031597
    H   H28   0.798396  0.217162  0.150873  0.040193
    H   H29   0.862353  0.280042  0.278051  0.110152
    H   H30   0.742493  0.228962  0.842566  0.057902
    H   H31   0.680315  0.167066  0.716321  0.114539
    H   H32   0.590594  0.098759  0.840076  0.093639
    H   H33   0.197457  0.496690  0.260800  0.123728
    H   H34   0.127847  0.459464  0.314693  0.118627
    H   H35   0.276010  0.526286  0.222600  0.103983
    H   H36   0.388957  0.617209  0.309041  0.126420
    H   H37   0.345401  0.647850  0.471934  0.091678
    H   H38   0.231887  0.558738  0.385587  0.079717
    H   H39   0.399238  0.763231  0.409045  0.111276
    H   H40   0.601469  0.730742  0.584809  0.089531
    H   H41   0.689490  0.803755  0.555676  0.095004
    H   H42   0.801069  0.894383  0.649084  0.107453
    H   H43   0.801711  0.998146  0.747915  0.097096
    H   H44   0.691154  0.010777  0.753638  0.129610
    H   H45   0.027947  0.374721  0.199861  0.090393
    H   H46   0.578836  0.921036  0.659169  0.047296
    H   H47   0.614857  0.294654  0.303039  0.087951
    H   H48   0.486786  0.278613  0.265139  0.110674
    H   H49   0.441199  0.260253  0.334333  0.093730
    H   H50   0.651828  0.273958  0.479433  0.103016
    H   H51   0.697361  0.292548  0.410306  0.113907
    H   H52   0.538341  0.155527  0.427153  0.117298
    H   H53   0.464827  0.345533  0.572798  0.104416
    H   H54   0.360035  0.248239  0.548015  0.098419
    H   H55   0.336641  0.249243  0.637994  0.121477
    H   H56   0.250412  0.426485  0.386682  0.086040
    H   H57   0.430792  0.241429  0.737135  0.065138
    H   H58   0.548393  0.233043  0.746428  0.089805
    H   H59   0.571770  0.230395  0.655750  0.098993
    H   H60   0.739309  0.395458  0.558695  -0.081035
    H   H61   0.659072  0.410287  0.563220  -0.060893
    H   H62   0.725651  0.459009  0.691257  0.089454
    H   H63   0.734173  0.369600  0.645429  0.069437
    H   H64   0.806974  0.445382  0.687477  0.060602
    H   H65   0.463711  0.109265  0.707606  -0.054629
    H   H66   0.462792  0.075149  0.763127  -0.017454
    H   H67   0.234944  0.557655  0.601109  0.084907
    H   H68   0.382421  0.961309  0.657804  0.060749
    H   H69   0.344308  0.036757  0.660135  0.048011
    H   H70   0.381389  0.996763  0.602748  0.040362
    H   H71   0.355311  0.538128  0.680127  0.099462
    H   H72   0.455590  0.626333  0.792887  0.105977
    N   N1    0.267236  0.680622  0.962035  -0.370846
    N   N2    0.303464  0.716770  0.031119  -0.348479
    N   N3    0.248838  0.809643  0.029948  -0.358061
    N   N4    0.213204  0.773842  0.960897  -0.353104
    N   N5    0.732420  0.208629  0.029909  -0.393622
    N   N6    0.698034  0.175325  0.960850  -0.311396
    N   N7    0.754785  0.268893  0.962979  -0.361047
    N   N8    0.788660  0.302488  0.032018  -0.345020
    O   O1    0.031302  0.487795  0.596965  -0.515741
    O   O2    0.508606  0.615483  0.554936  -0.551994
    O   O3    0.377679  0.485319  0.438928  -0.465314
    O   O4    0.435639  0.510346  0.554426  -0.495276
    O   O5    0.450103  0.380136  0.438406  -0.559367
    O   O6    0.540424  0.437632  0.554177  -0.545389
    O   O7    0.555148  0.452860  0.438642  -0.463480
    O   O8    0.613263  0.542770  0.554605  -0.566569
    O   O9    0.544053  0.079561  0.480863  -0.590185
    O   O10   0.457774  0.093941  0.515280  -0.585872
    O   O11   0.508897  0.933767  0.399144  -0.597631
    O   O12   0.063907  0.588834  0.594226  -0.573829
    O   O13   0.403812  0.964746  0.394479  -0.594579
    O   O14   0.564722  0.920523  0.517502  -0.553000
    O   O15   0.441918  0.896330  0.472329  -0.571970
    O   O16   0.599575  0.065917  0.598706  -0.611346
    O   O17   0.495622  0.025347  0.592654  -0.492324
    O   O18   0.735403  0.500636  0.608162  -0.386390
    O   O19   0.512906  0.027139  0.705945  -0.364280
    O   O20   0.092117  0.443710  0.512421  -0.647053
    O   O21   0.072354  0.526294  0.473237  -0.674701
    O   O22   0.958865  0.384936  0.396307  -0.514448
    O   O23   0.926320  0.487685  0.395839  -0.578599
    O   O24   0.898002  0.429000  0.480732  -0.641708
    O   O25   0.917691  0.550082  0.516584  -0.628222
    O   O26   0.482632  0.557783  0.438954  -0.511880
