data_DB0-m3_o16_o29_f0_pcu.sym.94_repeat
_audit_creation_date              2024-02-23
_audit_creation_method            'Materials Studio'
_symmetry_space_group_name_H-M    'P1'
_symmetry_Int_Tables_number       1
_symmetry_cell_setting            triclinic
loop_
_symmetry_equiv_pos_as_xyz
  x,y,z
_cell_length_a                    12.5825
_cell_length_b                    13.7252
_cell_length_c                    27.6343
_cell_angle_alpha                 89.9923
_cell_angle_beta                  102.2130
_cell_angle_gamma                 86.6433
loop_
_atom_site_label
_atom_site_type_symbol
_atom_site_fract_x
_atom_site_fract_y
_atom_site_fract_z
_atom_site_U_iso_or_equiv
_atom_site_adp_type
_atom_site_occupancy
O1     O     0.37490   0.62972   0.49341   0.00000  Uiso   1.00
O2     O     0.55762   0.65800   0.51119   0.00000  Uiso   1.00
C1     C     0.45458   0.68937   0.50196   0.00000  Uiso   1.00
O3     O     0.41620   0.47736   0.56462   0.00000  Uiso   1.00
O4     O     0.59930   0.50533   0.58136   0.00000  Uiso   1.00
C2     C     0.50906   0.48833   0.59574   0.00000  Uiso   1.00
Zn1    Zn    0.38205   0.48211   0.48962   0.00000  Uiso   1.00
Zn2    Zn    0.62329   0.51958   0.51149   0.00000  Uiso   1.00
O5     O     0.44757   0.34346   0.49092   0.00000  Uiso   1.00
O6     O     0.63032   0.37201   0.50744   0.00000  Uiso   1.00
O7     O     0.40626   0.49556   0.41976   0.00000  Uiso   1.00
O8     O     0.58829   0.52620   0.43649   0.00000  Uiso   1.00
C3     C     0.55056   0.31281   0.49853   0.00000  Uiso   1.00
C4     C     0.49600   0.51375   0.40535   0.00000  Uiso   1.00
C5     C     0.54214   0.56741   0.82725   0.00000  Uiso   1.00
O9     O     0.56978   0.64531   0.80421   0.00000  Uiso   1.00
N1     N     0.51313   0.48664   0.80122   0.00000  Uiso   1.00
C6     C     0.48249   0.40895   0.82357   0.00000  Uiso   1.00
C7     C     0.60803   0.49505   0.73316   0.00000  Uiso   1.00
C8     C     0.60720   0.49532   0.68317   0.00000  Uiso   1.00
C9     C     0.41622   0.47245   0.66549   0.00000  Uiso   1.00
C10    C     0.41727   0.47236   0.71547   0.00000  Uiso   1.00
C11    C     0.51299   0.48412   0.74954   0.00000  Uiso   1.00
C12    C     0.50919   0.49319   0.90066   0.00000  Uiso   1.00
C13    C     0.54062   0.57154   0.87714   0.00000  Uiso   1.00
C14    C     0.57079   0.65377   0.90361   0.00000  Uiso   1.00
C15    C     0.48015   0.41136   0.87342   0.00000  Uiso   1.00
C16    C     0.51110   0.48450   0.64900   0.00000  Uiso   1.00
H1     H     0.33986   0.46428   0.63967   0.00000  Uiso   1.00
H2     H     0.34211   0.46477   0.72779   0.00000  Uiso   1.00
H3     H     0.59806   0.71571   0.88649   0.00000  Uiso   1.00
C17    C     0.49398   0.51766   0.35210   0.00000  Uiso   1.00
C18    C     0.52402   0.58669   0.02677   0.00000  Uiso   1.00
C19    C     0.48067   0.41767   0.02503   0.00000  Uiso   1.00
C20    C     0.50092   0.50399   0.05070   0.00000  Uiso   1.00
C21    C     0.53706   0.67315   0.05329   0.00000  Uiso   1.00
C22    C     0.53274   0.67594   0.10248   0.00000  Uiso   1.00
C23    C     0.51476   0.59303   0.12663   0.00000  Uiso   1.00
C24    C     0.49813   0.50761   0.10078   0.00000  Uiso   1.00
C25    C     0.47890   0.42581   0.12566   0.00000  Uiso   1.00
C26    C     0.47707   0.43018   0.17551   0.00000  Uiso   1.00
N2     N     0.49348   0.51457   0.20010   0.00000  Uiso   1.00
C27    C     0.51203   0.59562   0.17644   0.00000  Uiso   1.00
C28    C     0.39981   0.49854   0.26807   0.00000  Uiso   1.00
C29    C     0.40014   0.49879   0.31801   0.00000  Uiso   1.00
C30    C     0.58689   0.53761   0.33556   0.00000  Uiso   1.00
C31    C     0.58615   0.53777   0.28560   0.00000  Uiso   1.00
C32    C     0.49290   0.51758   0.25167   0.00000  Uiso   1.00
O10    O     0.52617   0.67966   0.20129   0.00000  Uiso   1.00
C33    C     0.53246   0.58145   0.97706   0.00000  Uiso   1.00
C34    C     0.50659   0.49673   0.95076   0.00000  Uiso   1.00
C35    C     0.47798   0.41558   0.97408   0.00000  Uiso   1.00
C36    C     0.56722   0.65878   0.95283   0.00000  Uiso   1.00
H4     H     0.32643   0.48288   0.32987   0.00000  Uiso   1.00
H5     H     0.32614   0.48325   0.24178   0.00000  Uiso   1.00
H6     H     0.54369   0.74463   0.12145   0.00000  Uiso   1.00
H7     H     0.54803   0.74207   0.03717   0.00000  Uiso   1.00
H8     H     0.59565   0.72457   0.97084   0.00000  Uiso   1.00
O11    O     0.45609   0.32808   0.79741   0.00000  Uiso   1.00
C37    C     0.44777   0.33247   0.89597   0.00000  Uiso   1.00
H9     H     0.68256   0.50469   0.67135   0.00000  Uiso   1.00
H10    H     0.68368   0.50350   0.75949   0.00000  Uiso   1.00
H11    H     0.42240   0.26789   0.87540   0.00000  Uiso   1.00
C38    C     0.46454   0.33507   0.05134   0.00000  Uiso   1.00
C39    C     0.46347   0.33940   0.10084   0.00000  Uiso   1.00
O12    O     0.46134   0.34939   0.19994   0.00000  Uiso   1.00
C40    C     0.44631   0.33439   0.94547   0.00000  Uiso   1.00
H12    H     0.45525   0.26384   0.03547   0.00000  Uiso   1.00
H13    H     0.66142   0.55239   0.36133   0.00000  Uiso   1.00
H14    H     0.45052   0.27341   0.11955   0.00000  Uiso   1.00
H15    H     0.65975   0.55193   0.27318   0.00000  Uiso   1.00
H16    H     0.41638   0.27079   0.95946   0.00000  Uiso   1.00
C41    C     0.69619   0.08236   0.47227   0.00000  Uiso   1.00
H17    H     0.73156   0.23149   0.47538   0.00000  Uiso   1.00
H18    H     0.71745   0.89954   0.45150   0.00000  Uiso   1.00
H19    H     0.77028   0.06052   0.46023   0.00000  Uiso   1.00
C42    C     0.57792   0.20837   0.49396   0.00000  Uiso   1.00
C43    C     0.33089   0.81957   0.52075   0.00000  Uiso   1.00
C44    C     0.30188   0.91514   0.52824   0.00000  Uiso   1.00
C45    C     0.36663   0.98791   0.52021   0.00000  Uiso   1.00
C46    C     0.46129   0.96671   0.50264   0.00000  Uiso   1.00
C47    C     0.48920   0.86909   0.49377   0.00000  Uiso   1.00
C48    C     0.52915   0.04028   0.49407   0.00000  Uiso   1.00
C49    C     0.62389   0.01385   0.47812   0.00000  Uiso   1.00
C50    C     0.64643   0.91890   0.46646   0.00000  Uiso   1.00
C51    C     0.57842   0.84786   0.47265   0.00000  Uiso   1.00
C52    C     0.50574   0.13974   0.50056   0.00000  Uiso   1.00
C53    C     0.67452   0.17901   0.48106   0.00000  Uiso   1.00
C54    C     0.42534   0.79479   0.50467   0.00000  Uiso   1.00
H20    H     0.43215   0.16743   0.51078   0.00000  Uiso   1.00
H21    H     0.28021   0.76401   0.52943   0.00000  Uiso   1.00
H22    H     0.33905   0.06021   0.52857   0.00000  Uiso   1.00
H23    H     0.22869   0.93324   0.54177   0.00000  Uiso   1.00
H24    H     0.59732   0.77648   0.45957   0.00000  Uiso   1.00
C55    C     0.08088   0.37328   0.42750   0.00000  Uiso   1.00
H25    H     0.24512   0.35922   0.41930   0.00000  Uiso   1.00
H26    H     0.87526   0.34360   0.41126   0.00000  Uiso   1.00
H27    H     0.05374   0.32212   0.39840   0.00000  Uiso   1.00
N3     N     0.22293   0.45738   0.47527   0.00000  Uiso   1.00
C56    C     0.81004   0.60825   0.56209   0.00000  Uiso   1.00
C57    C     0.91626   0.63408   0.57660   0.00000  Uiso   1.00
C58    C     0.99414   0.59325   0.55311   0.00000  Uiso   1.00
C59    C     0.96621   0.52666   0.51525   0.00000  Uiso   1.00
C60    C     0.85759   0.50301   0.50207   0.00000  Uiso   1.00
C61    C     0.04313   0.48295   0.49015   0.00000  Uiso   1.00
C62    C     0.00851   0.41741   0.45284   0.00000  Uiso   1.00
C63    C     0.90161   0.39494   0.44038   0.00000  Uiso   1.00
C64    C     0.82720   0.43716   0.46470   0.00000  Uiso   1.00
C65    C     0.15379   0.50181   0.50071   0.00000  Uiso   1.00
C66    C     0.18830   0.39405   0.43918   0.00000  Uiso   1.00
N4     N     0.78183   0.54396   0.52555   0.00000  Uiso   1.00
H28    H     0.18841   0.55136   0.52898   0.00000  Uiso   1.00
H29    H     0.74759   0.63931   0.57972   0.00000  Uiso   1.00
H30    H     0.07570   0.61529   0.56546   0.00000  Uiso   1.00
H31    H     0.74495   0.41690   0.45361   0.00000  Uiso   1.00
C67    C     0.94839   0.70444   0.61656   0.00000  Uiso   1.00
C68    C     0.88034   0.75003   0.64380   0.00000  Uiso   1.00
C69    C     0.94438   0.80771   0.67605   0.00000  Uiso   1.00
C70    C     0.04676   0.79369   0.66649   0.00000  Uiso   1.00
O13    O     0.04989   0.73096   0.63036   0.00000  Uiso   1.00
H32    H     0.79429   0.74322   0.64126   0.00000  Uiso   1.00
H33    H     0.91983   0.85485   0.70357   0.00000  Uiso   1.00
H34    H     0.11739   0.82936   0.68599   0.00000  Uiso   1.00
