# Generated by REPEAT Assigner based on pymatgen
data_DB0-m3_o19_o23_f0_pcu.sym.31_sqe
_audit_creation_date              2022-05-24
_audit_creation_method            REPEAT_Assigner
_cell_length_a                    15.971988
_cell_length_b                    11.918199
_cell_length_c                    10.772512
_cell_angle_alpha                 90.000000
_cell_angle_beta                  90.000000
_cell_angle_gamma                 90.000000
_cell_volume                      2050.626637
_symmetry_space_group_name_H-M    P1
_symmetry_Int_Tables_number       1
loop_
    _symmetry_equiv_pos_site_id
    _symmetry_equiv_pos_as_xyz
    1  x,y,z
loop_
    _atom_site_type_symbol
    _atom_site_label
    _atom_site_fract_x
    _atom_site_fract_y
    _atom_site_fract_z
    _atom_type_partial_charge
    O   O1   0.498307  0.323540  0.606343  -0.672761
    O   O2   0.499032  0.323545  0.391793  -0.670069
    C   C1   0.498678  0.271457  0.499066  0.901049
    O   O3   0.373532  0.490775  0.605884  -0.669114
    O   O4   0.374240  0.490781  0.391252  -0.672333
    O   O5   0.623015  0.490869  0.606879  -0.666510
    O   O6   0.623747  0.490884  0.392248  -0.662024
    C   C2   0.335029  0.490758  0.498278  0.824066
    C   C3   0.662238  0.490893  0.499886  0.785820
    Zn  Zn1  0.498218  0.490709  0.640475  1.083886
    Zn  Zn2  0.499049  0.490715  0.357660  1.083897
    C   C4   0.498647  0.049947  0.499066  0.054212
    O   O7   0.498239  0.657885  0.606372  -0.680072
    O   O8   0.498958  0.657891  0.391764  -0.674677
    C   C5   0.498668  0.151053  0.499064  -0.265009
    N   N1   0.499359  0.490713  0.172004  -0.085870
    N   N2   0.497909  0.490706  0.826132  -0.086554
    C   C6   0.498937  0.490710  0.064603  0.231124
    C   C7   0.498332  0.490707  0.933533  0.233628
    C   C8   0.498589  0.709963  0.499069  0.937157
    C   C9   0.047292  0.432396  0.605147  0.086539
    C   C10  0.043467  0.448121  0.380622  0.036545
    C   C11  0.953251  0.442883  0.618453  -0.162936
    C   C12  0.949669  0.436630  0.394331  -0.167134
    H   H1   0.925888  0.357426  0.622334  0.023916
    H   H2   0.934988  0.346819  0.410176  0.012695
    H   H3   0.062286  0.343303  0.585396  -0.001892
    H   H4   0.071050  0.363160  0.371001  0.032649
    H   H5   0.057822  0.493790  0.294164  -0.054568
    H   H6   0.079667  0.452449  0.693023  -0.038064
    H   H7   0.916942  0.459440  0.307427  0.036579
    H   H8   0.937344  0.483584  0.706893  -0.006790
    C   C13  0.498618  0.931473  0.499069  0.082806
    C   C14  0.498599  0.830367  0.499071  -0.295896
    C   C15  0.752048  0.494084  0.500977  -0.084891
    C   C16  0.245213  0.493765  0.497564  -0.138228
    C   C17  0.078113  0.504105  0.496971  0.335303
    C   C18  0.919131  0.504547  0.505677  0.954196
    C   C19  0.949894  0.629013  0.500658  -0.771370
    C   C20  0.048642  0.628352  0.506914  -0.300446
    C   C21  0.827454  0.498383  0.503118  -0.491729
    C   C22  0.169800  0.497863  0.496986  -0.322518
    C   C23  0.087253  0.679815  0.623318  0.490125
    C   C24  0.067234  0.663074  0.747234  -0.076087
    C   C25  0.123063  0.724545  0.813290  -0.375180
    C   C26  0.174035  0.774137  0.727296  -0.065647
    O   O9   0.153175  0.747050  0.612306  -0.164015
    H   H9   0.018299  0.613327  0.788136  0.124946
    H   H10  0.126743  0.732343  0.913117  0.175086
    H   H11  0.225883  0.828809  0.749688  0.148678
    C   C27  0.086148  0.699419  0.403166  0.383309
    C   C28  0.074986  0.814053  0.390329  -0.198168
    C   C29  0.121725  0.844685  0.290864  -0.212925
    C   C30  0.158975  0.748093  0.249679  -0.179088
    O   O10  0.138258  0.659859  0.317690  -0.046918
    H   H12  0.038385  0.870070  0.447146  0.126206
    H   H13  0.128824  0.928088  0.252857  0.155425
    H   H14  0.201165  0.743631  0.171369  0.167296
    C   C31  0.914815  0.704277  0.602634  0.284400
    C   C32  0.857537  0.678115  0.695065  -0.078231
    C   C33  0.844324  0.774770  0.758559  -0.315824
    C   C34  0.893089  0.853865  0.701661  -0.094554
    O   O11  0.935559  0.812157  0.606882  -0.115393
    H   H15  0.827112  0.599899  0.717157  0.128165
    H   H16  0.803378  0.786925  0.837321  0.186886
    H   H17  0.896615  0.940834  0.729668  0.146750
    C   C35  0.916526  0.678386  0.379902  0.500990
    C   C36  0.847749  0.748694  0.372090  -0.287533
    C   C37  0.836754  0.769321  0.249334  -0.173307
    C   C38  0.898350  0.710267  0.189759  -0.243205
    O   O12  0.946580  0.654182  0.268014  0.013198
    H   H18  0.807339  0.780228  0.444630  0.191833
    H   H19  0.788572  0.820358  0.207167  0.154163
    H   H20  0.906626  0.708101  0.090191  0.154007
