# Generated by REPEAT Assigner based on pymatgen
data_DB0-m3_o11_o22_f0_nbo.sym.126_sqe
_audit_creation_date              2022-05-24
_audit_creation_method            REPEAT_Assigner
_cell_length_a                    19.007777
_cell_length_b                    18.921837
_cell_length_c                    19.111385
_cell_angle_alpha                 109.007713
_cell_angle_beta                  110.133501
_cell_angle_gamma                 108.941887
_cell_volume                      5312.260235
_symmetry_space_group_name_H-M    P1
_symmetry_Int_Tables_number       1
loop_
    _symmetry_equiv_pos_site_id
    _symmetry_equiv_pos_as_xyz
    1  x,y,z
loop_
    _atom_site_type_symbol
    _atom_site_label
    _atom_site_fract_x
    _atom_site_fract_y
    _atom_site_fract_z
    _atom_type_partial_charge
    O   O1   0.404597  0.339780  0.443868  -0.697851
    O   O2   0.392577  0.441192  0.538966  -0.684188
    C   C1   0.370926  0.361537  0.491260  0.740694
    O   O3   0.585931  0.436790  0.536161  -0.682835
    O   O4   0.573782  0.535519  0.633594  -0.673227
    C   C2   0.608124  0.487232  0.614859  0.394335
    Zn  Zn1  0.493110  0.414614  0.426153  1.303672
    Zn  Zn2  0.481615  0.548472  0.554639  1.289443
    O   O5   0.582164  0.522095  0.441930  -0.682098
    O   O6   0.569779  0.623207  0.536575  -0.715042
    O   O7   0.401056  0.427508  0.347075  -0.694299
    O   O8   0.388533  0.526086  0.444641  -0.666868
    C   C3   0.603439  0.601879  0.489187  0.818169
    C   C4   0.365725  0.474515  0.365969  0.690487
    C   C5   0.669667  0.402372  0.659193  -0.160797
    H   H1   0.684898  0.385000  0.607102  -0.001998
    H   H2   0.603686  0.352219  0.634538  0.055473
    C   C6   0.734034  0.404062  0.734149  -0.098513
    H   H3   0.699609  0.366122  0.756840  0.001235
    H   H4   0.769399  0.374089  0.712565  0.021053
    H   H5   0.764888  0.529675  0.640479  0.044779
    H   H6   0.863278  0.516673  0.734425  0.023709
    C   C7   0.763401  0.550121  0.701078  -0.192939
    C   C8   0.675726  0.527197  0.769422  -0.370878
    C   C9   0.677331  0.490910  0.685896  0.778711
    H   H7   0.686010  0.593090  0.786971  0.034210
    C   C10  0.797302  0.496547  0.804735  0.395031
    C   C11  0.834041  0.547439  0.766303  -0.126301
    C   C12  0.752173  0.537419  0.841787  0.146105
    H   H8   0.798066  0.607221  0.883874  -0.022472
    H   H9   0.774251  0.616699  0.725306  0.026377
    H   H10  0.883443  0.614740  0.816404  0.038902
    C   C13  0.218454  0.144197  0.449883  -0.008230
    C   C14  0.151840  0.150764  0.455107  -0.114436
    H   H11  0.140038  0.201294  0.448920  0.118812
    C   C15  0.282480  0.211909  0.448173  -0.120957
    C   C16  0.304973  0.294381  0.490904  -0.182939
    H   H12  0.315876  0.193926  0.415845  0.141593
    H   H13  0.276875  0.314109  0.528940  0.133704
    C   C17  0.182234  0.498588  0.236294  -0.074837
    C   C18  0.195972  0.524354  0.182316  0.000013
    H   H14  0.118757  0.474864  0.229308  0.142537
    C   C19  0.249900  0.504092  0.308070  -0.126424
    C   C20  0.298092  0.469329  0.295089  -0.104721
    H   H15  0.254984  0.530341  0.370260  0.163943
    H   H16  0.286900  0.435962  0.230964  0.102720
    C   C21  0.756143  0.823137  0.535839  -0.024720
    C   C22  0.831281  0.827898  0.543470  0.001896
    C   C23  0.692170  0.752726  0.535321  -0.148096
    C   C24  0.667949  0.670112  0.488748  -0.176189
    H   H17  0.659428  0.769391  0.569045  0.168663
    H   H18  0.695703  0.652337  0.449590  0.103014
    O   O9   0.950054  0.362419  0.907707  -0.682879
    O   O10  0.042583  0.467194  0.896819  -0.709876
    C   C25  0.996541  0.386423  0.874142  0.790268
    O   O11  0.852367  0.447922  0.903684  -0.685054
    O   O12  0.948015  0.554778  0.897848  -0.654187
    C   C26  0.869515  0.499985  0.872763  0.457793
    Zn  Zn3  0.933178  0.437304  0.996668  1.285274
    Zn  Zn4  0.059505  0.574823  0.986534  1.296307
    O   O13  0.950270  0.544691  0.086638  -0.666643
    O   O14  0.042722  0.649772  0.075682  -0.717270
    O   O15  0.044755  0.457424  0.085594  -0.651424
    O   O16  0.140353  0.564531  0.079562  -0.631889
    C   C27  0.996615  0.625300  0.109664  0.782297
    C   C28  0.123253  0.513730  0.111435  0.527766
    O   O17  0.064094  0.089943  0.641888  -0.701596
    O   O18  0.952439  0.094196  0.547784  -0.602672
    C   C29  0.015075  0.124527  0.625041  0.726054
    O   O19  0.125173  0.067229  0.523014  -0.640992
    O   O20  0.011883  0.072781  0.432644  -0.644388
    C   C30  0.093249  0.093251  0.470294  0.689043
    Zn  Zn5  0.065988  0.990502  0.561220  1.270163
    Zn  Zn6  0.915836  0.991933  0.438085  1.284928
    O   O21  0.029151  0.888013  0.451497  -0.633033
    O   O22  0.918322  0.893277  0.357216  -0.700091
    O   O23  0.969973  0.910115  0.566909  -0.609795
    O   O24  0.856677  0.914278  0.475712  -0.636438
    C   C31  0.968146  0.859622  0.373886  0.669585
    C   C32  0.888414  0.888116  0.528584  0.537073
    C   C33  0.026522  0.267651  0.691707  -0.031814
    C   C34  0.029689  0.199207  0.696578  -0.138124
    H   H19  0.043928  0.197891  0.755970  0.148095
    C   C35  0.031422  0.335619  0.762085  -0.089517
    C   C36  0.996394  0.318807  0.808519  -0.243820
    H   H20  0.058208  0.399938  0.770902  0.135956
    H   H21  0.962865  0.253519  0.795487  0.140630
    C   C37  0.994237  0.742676  0.311516  -0.129296
    C   C38  0.958824  0.791439  0.300966  -0.123993
    H   H22  0.024675  0.747969  0.373856  0.139498
    H   H23  0.921564  0.780618  0.237288  0.140320
    C   C39  0.986661  0.676128  0.238251  -0.048201
    C   C40  0.998950  0.691254  0.178633  -0.198966
    H   H24  0.979052  0.616621  0.237701  0.120221
    H   H25  0.017075  0.754282  0.184383  0.136056
    C   C41  0.227602  0.067289  0.437800  0.370339
    H   H26  0.289481  0.071902  0.450237  0.010894
    O   O25  0.165452  0.996982  0.405230  -0.370384
    C   C42  0.282600  0.572562  0.196111  0.429163
    H   H27  0.289224  0.575108  0.142742  -0.008378
    O   O26  0.346084  0.615968  0.267559  -0.422541
    C   C43  0.736079  0.892070  0.535670  0.443357
    H   H28  0.669558  0.877583  0.509981  -0.008880
    O   O27  0.792847  0.966673  0.573864  -0.396072
    C   C44  0.864039  0.775933  0.572618  0.433443
    H   H29  0.909014  0.762151  0.556115  -0.005361
    O   O28  0.848263  0.755374  0.621946  -0.414150
    C   C45  0.026217  0.283517  0.621022  0.377563
    H   H30  0.008037  0.330001  0.612229  0.010629
    O   O29  0.054570  0.252896  0.578422  -0.382763
    C   C46  0.591113  0.477545  0.761840  0.487716
    H   H31  0.556787  0.510809  0.776209  -0.012874
    O   O30  0.559233  0.400978  0.738370  -0.497618
    C   C47  0.728083  0.505299  0.896576  0.412439
    H   H32  0.689536  0.437442  0.872970  0.014732
    O   O31  0.754801  0.556311  0.970527  -0.504049
