# Generated by REPEAT Assigner based on pymatgen
data_DB0-m3_o10_o11_f0_pcu.sym.53_sqe
_audit_creation_date              2022-05-24
_audit_creation_method            REPEAT_Assigner
_cell_length_a                    7.676034
_cell_length_b                    8.888496
_cell_length_c                    11.032866
_cell_angle_alpha                 89.991699
_cell_angle_beta                  84.065096
_cell_angle_gamma                 91.433945
_cell_volume                      748.482720
_symmetry_space_group_name_H-M    P1
_symmetry_Int_Tables_number       1
loop_
    _symmetry_equiv_pos_site_id
    _symmetry_equiv_pos_as_xyz
    1  x,y,z
loop_
    _atom_site_type_symbol
    _atom_site_label
    _atom_site_fract_x
    _atom_site_fract_y
    _atom_site_fract_z
    _atom_type_partial_charge
    O   O1   0.375082  0.761517  0.512018  -0.673711
    O   O2   0.675428  0.734689  0.490134  -0.692250
    C   C1   0.535650  0.817587  0.501329  0.806473
    O   O3   0.339837  0.529871  0.688544  -0.612418
    O   O4   0.640511  0.505072  0.667938  -0.675453
    C   C2   0.489169  0.514167  0.734513  0.791682
    Zn  Zn1  0.293553  0.542997  0.511482  1.016465
    Zn  Zn2  0.689448  0.507462  0.483863  1.062373
    O   O5   0.307535  0.315822  0.503725  -0.666560
    O   O6   0.607947  0.288877  0.484812  -0.655774
    O   O7   0.342787  0.547209  0.327586  -0.686770
    O   O8   0.642868  0.518075  0.306595  -0.711017
    C   C3   0.447344  0.232882  0.494013  0.794223
    C   C4   0.493420  0.535803  0.260877  0.857389
    C   C5   0.628814  0.498936  0.054477  -0.176870
    C   C6   0.493499  0.546469  0.128711  -0.238699
    H   H1   0.744138  0.460073  0.092855  0.153837
    H   H2   0.382990  0.597690  0.092754  0.130622
    C   C7   0.629652  0.508762  0.921314  0.091768
    C   C8   0.483257  0.493628  0.866329  -0.406914
    H   H3   0.752987  0.531280  0.866425  0.117233
    C   C9   0.560303  0.981195  0.497519  -0.212499
    H   H4   0.691500  0.030409  0.492277  0.132568
    C   C10  0.422632  0.069275  0.497848  -0.218514
    H   H5   0.291450  0.020051  0.502911  0.137096
    N   N1   0.949269  0.483842  0.465239  -0.104569
    H   H6   0.024941  0.413164  0.409167  0.266797
    N   N2   0.033737  0.566650  0.530133  -0.038129
    H   H7   0.958084  0.637438  0.586115  0.266501
    C   C11  0.318066  0.437609  0.931669  0.761652
    O   O9   0.181542  0.453542  0.886160  -0.494215
    O   O10  0.320268  0.354960  0.034219  -0.256241
    C   C12  0.170332  0.295326  0.096833  -0.054979
    H   H8   0.178340  0.170974  0.099198  0.064564
    H   H9   0.052523  0.326138  0.053207  0.052687
    H   H10  0.158344  0.338678  0.191501  0.071653
