# Generated by REPEAT Assigner based on pymatgen
data_DB0-m3_o7_o10_f0_pcu.sym.127
_audit_creation_date              2022-05-24
_audit_creation_method            REPEAT_Assigner
_cell_length_a                    8.926618
_cell_length_b                    17.774881
_cell_length_c                    16.600679
_cell_angle_alpha                 90.000462
_cell_angle_beta                  97.770276
_cell_angle_gamma                 90.004415
_cell_volume                      2609.837272
_symmetry_space_group_name_H-M    P1
_symmetry_Int_Tables_number       1
loop_
    _symmetry_equiv_pos_site_id
    _symmetry_equiv_pos_as_xyz
    1  x,y,z
loop_
    _atom_site_type_symbol
    _atom_site_label
    _atom_site_fract_x
    _atom_site_fract_y
    _atom_site_fract_z
    _atom_type_partial_charge
    O   O1   0.508134  0.384511  0.569513  -0.681503
    O   O2   0.505129  0.608908  0.431474  -0.646126
    O   O3   0.504940  0.384731  0.430288  -0.671990
    O   O4   0.508203  0.608687  0.570695  -0.655337
    C   C1   0.506526  0.349423  0.499850  0.736922
    C   C2   0.506682  0.643996  0.501136  0.664059
    O   O5   0.282900  0.496596  0.554613  -0.675206
    O   O6   0.730368  0.496778  0.446399  -0.714456
    O   O7   0.279849  0.496855  0.415323  -0.717841
    O   O8   0.733420  0.496579  0.585672  -0.743405
    C   C3   0.210910  0.496737  0.480309  0.842836
    C   C4   0.802364  0.496674  0.520695  0.941445
    Zn  Zn1  0.508429  0.496490  0.592278  1.075930
    Zn  Zn2  0.504844  0.496927  0.408718  1.060084
    C   C5   0.045248  0.496757  0.468743  -0.204706
    C   C6   0.968026  0.496655  0.532261  -0.349164
    H   H1   0.986498  0.496859  0.407202  0.109846
    H   H2   0.026774  0.496557  0.593803  0.193001
    C   C7   0.508084  0.843395  0.572867  -0.215117
    C   C8   0.504719  0.150028  0.428091  -0.235458
    H   H3   0.509300  0.873917  0.629275  0.131171
    H   H4   0.503415  0.119505  0.371678  0.136301
    C   C9   0.508171  0.765800  0.573150  -0.103662
    C   C10  0.504763  0.227622  0.427816  -0.054086
    H   H5   0.509459  0.736521  0.630284  0.107576
    H   H6   0.503477  0.256901  0.370683  0.094139
    C   C11  0.506627  0.726484  0.501124  -0.000550
    C   C12  0.506449  0.266937  0.499853  -0.091761
    C   C13  0.504994  0.765616  0.428968  -0.137081
    C   C14  0.508070  0.227806  0.572008  -0.036402
    H   H7   0.503764  0.736228  0.371904  0.148898
    H   H8   0.509403  0.257194  0.629079  0.085579
    C   C15  0.504912  0.843185  0.428967  -0.190148
    C   C16  0.508019  0.150238  0.572001  -0.242970
    H   H9   0.503639  0.873533  0.372448  0.127063
    H   H10  0.509306  0.119890  0.628520  0.136383
    C   C17  0.506455  0.882084  0.500835  0.297428
    C   C18  0.506352  0.111339  0.500124  0.313810
    C   C19  0.506394  0.962816  0.500606  -0.180168
    C   C20  0.506361  0.030608  0.500350  -0.173490
    C   C21  0.424620  0.442306  0.829240  0.318194
    C   C22  0.612411  0.539119  0.173481  0.333728
    C   C23  0.427901  0.443702  0.746207  -0.147589
    C   C24  0.608830  0.537965  0.256487  -0.174107
    H   H11  0.366257  0.401956  0.707622  0.216714
    H   H12  0.693110  0.568376  0.296718  0.228723
    N   N1   0.509902  0.495894  0.712804  -0.019914
    N   N2   0.503390  0.497522  0.288193  -0.006567
    C   C25  0.591354  0.547333  0.759417  -0.046233
    C   C26  0.399870  0.457075  0.239983  -0.044128
    H   H13  0.656403  0.588917  0.731640  0.157236
    H   H14  0.316186  0.424785  0.266411  0.148654
    C   C27  0.592566  0.547034  0.842525  -0.200861
    C   C28  0.401182  0.456017  0.157061  -0.213268
    H   H15  0.658241  0.588360  0.879829  0.150398
    H   H16  0.318399  0.423164  0.118518  0.153607
    C   C29  0.509513  0.494135  0.877912  0.130617
    C   C30  0.508469  0.496728  0.123440  0.121285
    C   C31  0.509179  0.495001  0.964398  -0.127208
    C   C32  0.508678  0.495721  0.036947  -0.119533
    N   N3   0.341187  0.386145  0.864018  -0.619795
    C   C33  0.190994  0.385455  0.838697  0.755837
    O   O9   0.137721  0.421781  0.779387  -0.545199
    C   C34  0.088766  0.341552  0.884885  -0.443975
    H   H17  0.373075  0.370327  0.923473  0.314835
    H   H18  0.098002  0.362889  0.948148  0.098780
    H   H19  0.121253  0.281310  0.885593  0.126511
    H   H20  0.970436  0.347731  0.855206  0.136609
    N   N4   0.726360  0.579947  0.140970  -0.620652
    C   C35  0.729095  0.654734  0.155205  0.757855
    O   O10  0.656014  0.681851  0.204962  -0.543298
    C   C36  0.818942  0.704922  0.108145  -0.466061
    H   H21  0.758593  0.563644  0.086389  0.313160
    H   H22  0.776672  0.700261  0.042370  0.115498
    H   H23  0.939657  0.688165  0.119043  0.126197
    H   H24  0.807472  0.763954  0.128051  0.152103
