# Generated by REPEAT Assigner based on pymatgen
data_DB0-m3_o153_o159_f0_fsc.sym.45_sqe
_audit_creation_date              2022-05-24
_audit_creation_method            REPEAT_Assigner
_cell_length_a                    8.531466
_cell_length_b                    13.037656
_cell_length_c                    13.488310
_cell_angle_alpha                 90.604207
_cell_angle_beta                  93.261415
_cell_angle_gamma                 86.460460
_cell_volume                      1494.984457
_symmetry_space_group_name_H-M    P1
_symmetry_Int_Tables_number       1
loop_
    _symmetry_equiv_pos_site_id
    _symmetry_equiv_pos_as_xyz
    1  x,y,z
loop_
    _atom_site_type_symbol
    _atom_site_label
    _atom_site_fract_x
    _atom_site_fract_y
    _atom_site_fract_z
    _atom_type_partial_charge
    C   C1   0.000791  0.871814  0.995560  0.173616
    C   C2   0.868603  0.814740  0.998682  0.014311
    C   C3   0.719769  0.863231  0.995517  -0.117859
    C   C4   0.700869  0.968517  0.993047  -0.367193
    C   C5   0.830013  0.026840  0.994558  0.342896
    C   C6   0.980487  0.979455  0.995456  -0.048751
    C   C7   0.806734  0.133038  0.995381  -0.398593
    C   C8   0.933379  0.193724  0.995530  0.101211
    C   C9   0.083620  0.146806  0.997541  0.282184
    C   C10  0.106915  0.041455  0.999297  -0.326181
    C   C11  0.914071  0.300353  0.991336  -0.125168
    C   C12  0.044169  0.355326  0.981311  -0.169824
    C   C13  0.193189  0.309299  0.988551  -0.010809
    C   C14  0.213544  0.204833  0.998170  -0.336903
    C   C15  0.148888  0.819134  0.991528  -0.294991
    C   C16  0.163883  0.713947  0.003513  -0.012972
    C   C17  0.033727  0.661702  0.018142  -0.283722
    C   C18  0.886496  0.709028  0.007679  0.121238
    H   H1   0.616025  0.819928  0.997022  0.145734
    H   H2   0.583678  0.005251  0.991915  0.164236
    H   H3   0.028169  0.436287  0.969447  0.121942
    H   H4   0.331225  0.168736  0.003129  0.131975
    H   H5   0.226810  0.011088  0.004329  0.161166
    H   H6   0.688611  0.168274  0.993899  0.149499
    H   H7   0.255246  0.856162  0.979797  0.132450
    H   H8   0.047526  0.581248  0.033283  0.127345
    O   O1   0.382928  0.403517  0.079384  -0.688197
    O   O2   0.373391  0.406415  0.906668  -0.706818
    C   C19  0.326965  0.373488  0.991511  0.840717
    O   O3   0.358338  0.619336  0.913333  -0.809615
    O   O4   0.376216  0.615617  0.083895  -0.769807
    C   C20  0.313561  0.652937  0.000010  1.042354
    O   O5   0.699411  0.611364  0.917695  -0.657442
    O   O6   0.708211  0.608820  0.087239  -0.637192
    C   C21  0.754064  0.643285  0.004139  0.754579
    O   O7   0.719619  0.395435  0.082573  -0.750305
    O   O8   0.700830  0.398594  0.910494  -0.732439
    C   C22  0.763397  0.361216  0.995060  0.907401
    Zn  Zn1  0.531546  0.511897  0.886672  1.038768
    Zn  Zn2  0.548849  0.504783  0.108948  1.004830
    C   C23  0.611014  0.582255  0.299424  -0.137189
    N   N1   0.557985  0.504276  0.239809  0.133940
    C   C24  0.513798  0.418749  0.284179  -0.099687
    C   C25  0.508085  0.412311  0.386479  -0.186931
    C   C26  0.567835  0.488370  0.447303  0.070117
    C   C27  0.635000  0.567072  0.401188  0.150792
    C   C28  0.491038  0.418262  0.605080  -0.202132
    C   C29  0.560009  0.491243  0.551344  0.087265
    C   C30  0.619619  0.572717  0.604199  0.143235
    C   C31  0.716231  0.636134  0.558126  -0.159747
    C   C32  0.726067  0.631899  0.457835  -0.189488
    C   C33  0.484560  0.428453  0.707113  -0.088661
    N   N2   0.525077  0.515130  0.755944  0.116006
    C   C34  0.585851  0.590518  0.702824  -0.127950
    H   H9   0.476323  0.354243  0.240341  0.166317
    H   H10  0.786182  0.690695  0.598092  0.154109
    H   H11  0.803721  0.682857  0.425462  0.158463
    H   H12  0.460956  0.344927  0.415698  0.154308
    H   H13  0.447748  0.349692  0.571187  0.158773
    H   H14  0.444073  0.364684  0.746476  0.165942
    C   C35  0.604603  0.698793  0.741306  0.674071
    F   F1   0.760359  0.712744  0.769577  -0.234854
    F   F2   0.511998  0.723927  0.818774  -0.211741
    F   F3   0.556011  0.767581  0.666694  -0.214810
    C   C36  0.632213  0.690908  0.264467  0.726756
    F   F4   0.538476  0.719487  0.182503  -0.251858
    F   F5   0.788237  0.702236  0.246504  -0.254278
    F   F6   0.587027  0.761009  0.336777  -0.214440
