# Generated by REPEAT Assigner based on pymatgen
data_DB0-m2_o2_o27_f0_nbo.sym.108
_audit_creation_date              2022-05-24
_audit_creation_method            REPEAT_Assigner
_cell_length_a                    30.022453
_cell_length_b                    30.022456
_cell_length_c                    38.275553
_cell_angle_alpha                 90.000000
_cell_angle_beta                  90.000000
_cell_angle_gamma                 90.000000
_cell_volume                      34499.583683
_symmetry_space_group_name_H-M    P1
_symmetry_Int_Tables_number       1
loop_
    _symmetry_equiv_pos_site_id
    _symmetry_equiv_pos_as_xyz
    1  x,y,z
loop_
    _atom_site_type_symbol
    _atom_site_label
    _atom_site_fract_x
    _atom_site_fract_y
    _atom_site_fract_z
    _atom_type_partial_charge
    C   C1    0.084357  0.499984  0.500064  0.657415
    C   C2    0.500000  0.000000  0.433796  0.657417
    C   C3    0.961565  0.656360  0.007758  -0.118897
    C   C4    0.656359  0.961562  0.992207  -0.119264
    C   C5    0.038467  0.656350  0.992311  -0.121635
    C   C6    0.343641  0.038438  0.992207  -0.119265
    C   C7    0.961533  0.343650  0.992311  -0.121655
    C   C8    0.133185  0.499983  0.500046  0.012318
    C   C9    0.500014  0.866815  0.499919  0.013225
    C   C10   0.866815  0.500018  0.500046  0.012195
    C   C11   0.499986  0.133185  0.499919  0.013269
    C   C12   0.633185  0.000014  0.999919  0.013237
    C   C13   0.000000  0.500000  0.566169  0.657533
    C   C14   0.999983  0.366815  0.000046  0.012284
    C   C15   0.366815  0.999986  0.999919  0.013273
    C   C16   0.000017  0.633185  0.000046  0.012259
    C   C17   0.225624  0.499984  0.500008  0.117831
    C   C18   0.500010  0.774376  0.499958  0.118966
    C   C19   0.774376  0.500016  0.500008  0.117903
    C   C20   0.499990  0.225624  0.499958  0.118957
    C   C21   0.725624  0.000011  0.999958  0.119025
    C   C22   0.999985  0.274376  0.000007  0.117941
    C   C23   0.274376  0.999989  0.999958  0.119027
    C   C24   0.500000  0.000000  0.566000  0.686270
    C   C25   0.000015  0.725624  0.000007  0.117916
    C   C26   0.297550  0.490005  0.469840  -0.136505
    C   C27   0.490028  0.702439  0.469814  -0.129363
    C   C28   0.702450  0.509995  0.469840  -0.136494
    C   C29   0.509972  0.297561  0.469814  -0.129349
    C   C30   0.297561  0.509966  0.530152  -0.129946
    C   C31   0.490012  0.297550  0.530126  -0.134962
    C   C32   0.702439  0.490034  0.530152  -0.129962
    C   C33   0.509988  0.702450  0.530126  -0.134966
    C   C34   0.797561  0.990029  0.969813  -0.129301
    C   C35   0.500000  0.000000  0.933796  0.657790
    C   C36   0.990005  0.202450  0.969839  -0.136491
    C   C37   0.202439  0.009971  0.969813  -0.129323
    C   C38   0.009994  0.797550  0.969839  -0.136464
    C   C39   0.797550  0.009989  0.030126  -0.134956
    C   C40   0.990034  0.797561  0.030152  -0.129969
    C   C41   0.202450  0.990011  0.030126  -0.134984
    C   C42   0.009966  0.202439  0.030152  -0.129945
    C   C43   0.343436  0.489887  0.469811  -0.081200
    C   C44   0.489902  0.656553  0.469797  -0.086654
    C   C45   0.656564  0.510113  0.469811  -0.081215
    C   C46   0.000000  0.500000  0.933965  0.686634
    C   C47   0.510098  0.343447  0.469797  -0.086660
    C   C48   0.343446  0.510092  0.530168  -0.086660
    C   C49   0.489893  0.343436  0.530154  -0.081672
    C   C50   0.656554  0.489908  0.530168  -0.086645
    C   C51   0.510107  0.656564  0.530154  -0.081676
    C   C52   0.843446  0.989903  0.969797  -0.086632
    C   C53   0.989887  0.156564  0.969811  -0.081215
    C   C54   0.156553  0.010097  0.969797  -0.086633
    C   C55   0.010113  0.843436  0.969811  -0.081234
    C   C56   0.843436  0.010107  0.030154  -0.081667
    C   C57   0.500000  0.000000  0.066000  0.686595
    C   C58   0.989908  0.843447  0.030168  -0.086654
    C   C59   0.156564  0.989893  0.030154  -0.081662
    C   C60   0.010092  0.156553  0.030168  -0.086659
    C   C61   0.366656  0.499992  0.499987  -0.070649
    C   C62   0.500002  0.633344  0.499979  -0.070642
    C   C63   0.633344  0.500008  0.499987  -0.070640
    C   C64   0.499998  0.366656  0.499979  -0.070652
    C   C65   0.866656  0.000003  0.999978  -0.070689
    C   C66   0.999992  0.133344  0.999987  -0.070635
    C   C67   0.133344  0.999997  0.999978  -0.070683
    C   C68   0.000000  0.500000  0.066169  0.657481
    C   C69   0.000007  0.866656  0.999987  -0.070632
    C   C70   0.274447  0.499984  0.499999  -0.012844
    C   C71   0.500010  0.725553  0.499967  -0.015598
    C   C72   0.725553  0.500016  0.499999  -0.012868
    C   C73   0.499990  0.274447  0.499967  -0.015590
    C   C74   0.774447  0.000010  0.999966  -0.015639
    C   C75   0.999985  0.225553  0.999999  -0.012880
    C   C76   0.225553  0.999990  0.999966  -0.015614
    C   C77   0.000015  0.774447  0.999999  -0.012860
    C   C78   0.499999  0.584534  0.499982  0.689774
    C   C79   0.022651  0.532592  0.377600  0.015439
    C   C80   0.584534  0.500003  0.499983  0.689478
    C   C81   0.500001  0.415466  0.499982  0.689796
    C   C82   0.415466  0.499997  0.499983  0.689504
    C   C83   0.999997  0.084534  0.999983  0.689489
    C   C84   0.084534  0.000001  0.999982  0.689811
    C   C85   0.000003  0.915466  0.999983  0.689493
    C   C86   0.915466  0.999999  0.999982  0.689807
    C   C87   0.046764  0.569551  0.323691  0.522673
    C   C88   0.564984  0.947102  0.323862  0.697800
    C   C89   0.953236  0.430449  0.323691  0.522699
    C   C90   0.532558  0.977342  0.377436  -0.154510
    C   C91   0.435016  0.052898  0.323862  0.697719
    C   C92   0.052890  0.435009  0.676104  0.696951
    C   C93   0.569571  0.046733  0.676276  0.523078
    C   C94   0.947110  0.564991  0.676104  0.696851
    C   C95   0.430429  0.953267  0.676276  0.523088
    C   C96   0.552908  0.064976  0.823862  0.697805
    C   C97   0.069549  0.453233  0.823691  0.522718
    C   C98   0.447092  0.935024  0.823862  0.697822
    C   C99   0.930451  0.546767  0.823691  0.522626
    C   C100  0.546746  0.930438  0.176275  0.522801
    C   C101  0.977349  0.467408  0.377600  0.015494
    C   C102  0.064990  0.552891  0.176104  0.696977
    C   C103  0.453254  0.069562  0.176275  0.522800
    C   C104  0.935010  0.447109  0.176104  0.697061
    C   C105  0.224855  0.581761  0.512801  0.829724
    C   C106  0.581786  0.775158  0.512757  0.837779
    C   C107  0.775145  0.418239  0.512801  0.829724
    C   C108  0.418214  0.224842  0.512757  0.837770
    C   C109  0.224841  0.418209  0.487209  0.838369
    C   C110  0.581766  0.224853  0.487164  0.830375
    C   C111  0.775159  0.581791  0.487209  0.838377
    C   C112  0.500013  0.915643  0.499902  0.656290
    C   C113  0.467442  0.022658  0.377436  -0.154622
    C   C114  0.418234  0.775147  0.487164  0.830321
    C   C115  0.724842  0.081786  0.012757  0.837754
    C   C116  0.081761  0.275145  0.012801  0.829742
    C   C117  0.275158  0.918213  0.012757  0.837766
    C   C118  0.918239  0.724855  0.012801  0.829818
    C   C119  0.724854  0.918234  0.987163  0.830348
    C   C120  0.081791  0.724841  0.987209  0.838401
    C   C121  0.275146  0.081766  0.987163  0.830364
    C   C122  0.918209  0.275159  0.987209  0.838385
    C   C123  0.022655  0.467440  0.622530  -0.154481
    C   C124  0.532601  0.022638  0.622366  0.014867
    C   C125  0.977345  0.532561  0.622530  -0.154523
    C   C126  0.467399  0.977362  0.622366  0.014849
    C   C127  0.522663  0.032555  0.877436  -0.154262
    C   C128  0.032591  0.477348  0.877599  0.015466
    C   C129  0.477337  0.967445  0.877436  -0.154303
    C   C130  0.967409  0.522652  0.877599  0.015437
    C   C131  0.522643  0.967403  0.122366  0.015152
    C   C132  0.915643  0.500016  0.500064  0.657438
    C   C133  0.032560  0.522655  0.122530  -0.154434
    C   C134  0.477357  0.032597  0.122366  0.015150
    C   C135  0.967440  0.477345  0.122530  -0.154419
    C   C136  0.022805  0.533053  0.341501  0.188419
    C   C137  0.532148  0.976019  0.341368  0.257899
    C   C138  0.977195  0.466947  0.341501  0.188339
    C   C139  0.467852  0.023981  0.341369  0.258100
    C   C140  0.023977  0.467850  0.658597  0.259218
    C   C141  0.533063  0.022791  0.658465  0.188503
    C   C142  0.976023  0.532150  0.658597  0.259288
    C   C143  0.499987  0.084357  0.499902  0.656186
    C   C144  0.466937  0.977209  0.658465  0.188498
    C   C145  0.523985  0.032144  0.841369  0.257704
    C   C146  0.033052  0.477194  0.841501  0.188337
    C   C147  0.476015  0.967856  0.841369  0.257692
    C   C148  0.966948  0.522806  0.841501  0.188409
    C   C149  0.522797  0.966941  0.158465  0.188861
    C   C150  0.032150  0.523977  0.158597  0.259094
    C   C151  0.477203  0.033059  0.158465  0.188876
    C   C152  0.967850  0.476023  0.158597  0.259053
    C   C153  0.000000  0.500000  0.323238  -0.800769
    C   C154  0.584357  0.000013  0.999902  0.656244
    C   C155  0.500000  0.000000  0.322987  -0.756048
    C   C156  0.000000  0.500000  0.676979  -0.758031
    C   C157  0.500000  0.000000  0.676727  -0.802597
    C   C158  0.500000  0.000000  0.822987  -0.755485
    C   C159  0.000000  0.500000  0.823238  -0.800693
    C   C160  0.500000  0.000000  0.176727  -0.802833
    C   C161  0.000000  0.500000  0.176979  -0.757879
    C   C162  0.000000  0.500000  0.395684  -0.139831
    C   C163  0.500000  0.000000  0.395526  0.022905
    C   C164  0.000000  0.500000  0.604440  0.022411
    C   C165  0.999985  0.415643  0.000064  0.657326
    C   C166  0.500000  0.000000  0.604282  -0.138814
    C   C167  0.500000  0.000000  0.895526  0.022430
    C   C168  0.000000  0.500000  0.895684  -0.139806
    C   C169  0.500000  0.000000  0.104282  -0.139416
    C   C170  0.000000  0.500000  0.104439  0.022373
    C   C171  0.000000  0.500000  0.215320  0.985111
    C   C172  0.500000  0.000000  0.214918  1.362862
    C   C173  0.000000  0.500000  0.785047  1.360068
    C   C174  0.500000  0.000000  0.784646  0.983675
    C   C175  0.500000  0.000000  0.714918  1.363734
    C   C176  0.415643  0.999987  0.999902  0.656238
    C   C177  0.000000  0.500000  0.715320  0.984747
    C   C178  0.500000  0.000000  0.284646  0.984432
    C   C179  0.000000  0.500000  0.285047  1.360187
    C   C180  0.202269  0.539007  0.506805  -0.185523
    C   C181  0.539034  0.797738  0.506739  -0.193575
    C   C182  0.797731  0.460993  0.506805  -0.185578
    C   C183  0.460966  0.202262  0.506739  -0.193560
    C   C184  0.202262  0.460961  0.493226  -0.193804
    C   C185  0.539012  0.202268  0.493160  -0.186125
    C   C186  0.797738  0.539039  0.493226  -0.193870
    C   C187  0.000015  0.584357  0.000064  0.657314
    C   C188  0.460988  0.797732  0.493160  -0.186070
    C   C189  0.702262  0.039034  0.006739  -0.193598
    C   C190  0.039007  0.297731  0.006805  -0.185604
    C   C191  0.297738  0.960966  0.006739  -0.193599
    C   C192  0.960993  0.702269  0.006805  -0.185621
    C   C193  0.702268  0.960989  0.993160  -0.186121
    C   C194  0.039039  0.702262  0.993226  -0.193889
    C   C195  0.297732  0.039011  0.993160  -0.186132
    C   C196  0.960961  0.297738  0.993226  -0.193893
    C   C197  0.156360  0.538434  0.507758  -0.118967
    C   C198  0.000000  0.500000  0.433965  0.686702
    C   C199  0.538464  0.843649  0.507655  -0.121975
    C   C200  0.843640  0.461566  0.507758  -0.118885
    C   C201  0.461536  0.156351  0.507655  -0.122009
    C   C202  0.156350  0.461532  0.492311  -0.121717
    C   C203  0.538438  0.156359  0.492207  -0.119232
    C   C204  0.843650  0.538468  0.492311  -0.121600
    C   C205  0.461562  0.843641  0.492207  -0.119293
    C   C206  0.656351  0.038464  0.007655  -0.121984
    C   C207  0.038434  0.343640  0.007758  -0.118905
    C   C208  0.343649  0.961536  0.007655  -0.122004
    Cu  Cu1   0.999990  0.456623  0.500071  0.961390
    Cu  Cu2   0.500000  0.500000  0.534051  0.944800
    Cu  Cu3   0.000000  0.000000  0.965914  0.944778
    Cu  Cu4   0.000000  0.000000  0.034051  0.944802
    Cu  Cu5   0.456623  0.999991  0.499895  0.961064
    Cu  Cu6   0.000010  0.543377  0.500071  0.961418
    Cu  Cu7   0.543377  0.000009  0.499895  0.961292
    Cu  Cu8   0.500009  0.956623  0.999895  0.961300
    Cu  Cu9   0.956623  0.500010  0.000071  0.961346
    Cu  Cu10  0.499991  0.043377  0.999895  0.961339
    Cu  Cu11  0.043377  0.499990  0.000071  0.961340
    Cu  Cu12  0.500000  0.500000  0.465914  0.944746
    H   H1    0.040053  0.558305  0.391818  0.075247
    H   H2    0.058304  0.459945  0.891818  0.075247
    H   H3    0.578621  0.744140  0.465851  0.301746
    H   H4    0.712961  0.400165  0.499000  0.325467
    H   H5    0.744177  0.421415  0.465876  0.301192
    H   H6    0.400135  0.287040  0.498998  0.325196
    H   H7    0.421379  0.255860  0.465851  0.301743
    H   H8    0.287038  0.400128  0.500967  0.325081
    H   H9    0.255858  0.421373  0.534115  0.301449
    H   H10   0.599842  0.287037  0.500964  0.325636
    H   H11   0.578591  0.255822  0.534089  0.301253
    H   H12   0.712962  0.599872  0.500967  0.325090
    H   H13   0.458402  0.942792  0.891616  0.139770
    H   H14   0.744142  0.578627  0.534115  0.301451
    H   H15   0.400158  0.712963  0.500965  0.325646
    H   H16   0.421409  0.744178  0.534089  0.301245
    H   H17   0.787040  0.099866  0.998998  0.325177
    H   H18   0.755859  0.078622  0.965851  0.301721
    H   H19   0.099836  0.212961  0.998999  0.325453
    H   H20   0.078586  0.244177  0.965876  0.301188
    H   H21   0.212960  0.900134  0.998997  0.325195
    H   H22   0.244140  0.921378  0.965851  0.301726
    H   H23   0.900164  0.787038  0.999000  0.325461
    H   H24   0.941696  0.540055  0.891818  0.075244
    H   H25   0.921414  0.755822  0.965876  0.301181
    H   H26   0.787038  0.900159  0.000964  0.325607
    H   H27   0.755823  0.921409  0.034089  0.301245
    H   H28   0.099871  0.787039  0.000967  0.325065
    H   H29   0.078626  0.755859  0.034114  0.301454
    H   H30   0.212963  0.099841  0.000963  0.325614
    H   H31   0.244178  0.078591  0.034089  0.301254
    H   H32   0.900129  0.212962  0.000966  0.325063
    H   H33   0.921374  0.244142  0.034114  0.301436
    H   H34   0.540039  0.941685  0.108149  0.075377
    H   H35   0.057218  0.541584  0.108351  0.139797
    H   H36   0.459961  0.058315  0.108149  0.075385
    H   H37   0.942782  0.458416  0.108351  0.139778
    H   H38   0.138803  0.569039  0.513284  0.154906
    H   H39   0.569068  0.861212  0.513168  0.158843
    H   H40   0.861197  0.430961  0.513284  0.154891
    H   H41   0.557214  0.958410  0.391615  0.139785
    H   H42   0.430932  0.138788  0.513168  0.158847
    H   H43   0.138786  0.430928  0.486798  0.158904
    H   H44   0.569043  0.138802  0.486681  0.155039
    H   H45   0.861214  0.569072  0.486798  0.158873
    H   H46   0.430957  0.861199  0.486681  0.155058
    H   H47   0.638788  0.069069  0.013168  0.158864
    H   H48   0.069039  0.361197  0.013284  0.154899
    H   H49   0.361213  0.930932  0.013168  0.158855
    H   H50   0.930961  0.638803  0.013284  0.154901
    H   H51   0.638801  0.930958  0.986681  0.155060
    H   H52   0.959947  0.441695  0.391818  0.075237
    H   H53   0.069072  0.638786  0.986798  0.158891
    H   H54   0.361198  0.069042  0.986681  0.155070
    H   H55   0.930928  0.361213  0.986798  0.158889
    H   H56   0.279673  0.482484  0.446050  0.098630
    H   H57   0.482510  0.720307  0.446019  0.098089
    H   H58   0.720327  0.517516  0.446050  0.098638
    H   H59   0.517490  0.279693  0.446019  0.098080
    H   H60   0.279693  0.517484  0.553946  0.098010
    H   H61   0.482491  0.279673  0.553916  0.098413
    H   H62   0.720307  0.482516  0.553946  0.098015
    H   H63   0.442786  0.041590  0.391615  0.139793
    H   H64   0.517510  0.720327  0.553916  0.098422
    H   H65   0.779693  0.982511  0.946019  0.098066
    H   H66   0.982484  0.220327  0.946050  0.098637
    H   H67   0.220307  0.017489  0.946019  0.098076
    H   H68   0.017516  0.779673  0.946050  0.098627
    H   H69   0.779673  0.017510  0.053915  0.098418
    H   H70   0.982515  0.779693  0.053946  0.098023
    H   H71   0.220327  0.982490  0.053915  0.098429
    H   H72   0.017485  0.220307  0.053946  0.098014
    H   H73   0.360715  0.482024  0.445837  0.127624
    H   H74   0.041583  0.442781  0.608351  0.139794
    H   H75   0.482036  0.639267  0.445826  0.129059
    H   H76   0.639285  0.517976  0.445837  0.127621
    H   H77   0.517964  0.360733  0.445826  0.129062
    H   H78   0.360732  0.517959  0.554139  0.129148
    H   H79   0.482029  0.360715  0.554129  0.127685
    H   H80   0.639268  0.482041  0.554139  0.129142
    H   H81   0.517971  0.639285  0.554129  0.127683
    H   H82   0.860732  0.982037  0.945826  0.129049
    H   H83   0.982024  0.139285  0.945836  0.127625
    H   H84   0.139267  0.017963  0.945826  0.129052
    H   H85   0.558322  0.040029  0.608149  0.075493
    H   H86   0.017976  0.860715  0.945836  0.127629
    H   H87   0.860715  0.017971  0.054129  0.127687
    H   H88   0.982041  0.860733  0.054139  0.129151
    H   H89   0.139285  0.982029  0.054129  0.127684
    H   H90   0.017959  0.139267  0.054139  0.129152
    H   H91   0.094769  0.615936  0.324067  0.334722
    H   H92   0.108155  0.567783  0.344272  0.273968
    H   H93   0.631653  0.948685  0.321509  0.380523
    H   H94   0.610244  0.905426  0.344206  0.378134
    H   H95   0.905231  0.384063  0.324067  0.334723
    H   H96   0.958417  0.557219  0.608351  0.139828
    H   H97   0.891845  0.432217  0.344272  0.273974
    H   H98   0.368347  0.051315  0.321509  0.380535
    H   H99   0.389756  0.094574  0.344206  0.378172
    H   H100  0.051301  0.368340  0.678456  0.380514
    H   H101  0.094561  0.389744  0.655761  0.378185
    H   H102  0.615972  0.094721  0.675903  0.334839
    H   H103  0.567820  0.108128  0.655703  0.274187
    H   H104  0.948699  0.631660  0.678456  0.380520
    H   H105  0.905439  0.610256  0.655761  0.378201
    H   H106  0.384028  0.905279  0.675903  0.334836
    H   H107  0.441678  0.959971  0.608149  0.075486
    H   H108  0.432180  0.891872  0.655703  0.274187
    H   H109  0.551336  0.131645  0.821509  0.380490
    H   H110  0.594590  0.110229  0.844206  0.378174
    H   H111  0.115932  0.405226  0.824067  0.334733
    H   H112  0.067778  0.391842  0.844272  0.273986
    H   H113  0.448664  0.868355  0.821509  0.380489
    H   H114  0.405409  0.889771  0.844206  0.378163
    H   H115  0.884068  0.594774  0.824067  0.334708
    H   H116  0.932222  0.608158  0.844273  0.273984
    H   H117  0.594740  0.884041  0.175900  0.334839
    H   H118  0.541598  0.057208  0.891616  0.139732
    H   H119  0.608138  0.932194  0.155696  0.274161
    H   H120  0.131659  0.551303  0.178455  0.380519
    H   H121  0.110254  0.594563  0.155760  0.378182
    H   H122  0.405260  0.115959  0.175900  0.334840
    H   H123  0.391862  0.067806  0.155696  0.274150
    H   H124  0.868341  0.448697  0.178455  0.380526
    H   H125  0.889746  0.405437  0.155760  0.378172
    H   H126  0.287039  0.599835  0.499000  0.325467
    H   H127  0.255823  0.578585  0.465876  0.301196
    H   H128  0.599866  0.712960  0.498998  0.325206
    N   N1    0.962934  0.511468  0.267478  -0.490306
    N   N2    0.011469  0.537066  0.767478  -0.490365
    N   N3    0.488415  0.037023  0.767008  -0.277306
    N   N4    0.988531  0.462934  0.767478  -0.490336
    N   N5    0.462932  0.988540  0.232488  -0.490726
    N   N6    0.962982  0.511600  0.232957  -0.277412
    N   N7    0.537068  0.011461  0.232488  -0.490732
    N   N8    0.037018  0.488400  0.232957  -0.277321
    N   N9    0.082882  0.591284  0.340890  -0.694203
    N   N10   0.607348  0.939591  0.339662  -0.983112
    N   N11   0.917118  0.408716  0.340890  -0.694212
    N   N12   0.462980  0.988407  0.267009  -0.277640
    N   N13   0.392652  0.060410  0.339662  -0.983165
    N   N14   0.060397  0.392645  0.660304  -0.983049
    N   N15   0.591314  0.082848  0.659080  -0.694663
    N   N16   0.939603  0.607355  0.660304  -0.983071
    N   N17   0.408686  0.917152  0.659080  -0.694662
    N   N18   0.560426  0.107339  0.839662  -0.983130
    N   N19   0.091280  0.417114  0.840890  -0.694252
    N   N20   0.439574  0.892661  0.839662  -0.983127
    N   N21   0.908720  0.582886  0.840890  -0.694198
    N   N22   0.582861  0.908698  0.159077  -0.694611
    N   N23   0.037066  0.488532  0.267478  -0.490364
    N   N24   0.107354  0.560399  0.160303  -0.983067
    N   N25   0.417139  0.091302  0.159077  -0.694598
    N   N26   0.892646  0.439601  0.160303  -0.983063
    N   N27   0.255389  0.599383  0.487709  -0.774082
    N   N28   0.599414  0.744598  0.487686  -0.774388
    N   N29   0.744611  0.400617  0.487709  -0.774076
    N   N30   0.400586  0.255402  0.487686  -0.774377
    N   N31   0.255400  0.400580  0.512279  -0.774240
    N   N32   0.599389  0.255387  0.512256  -0.774342
    N   N33   0.744600  0.599420  0.512279  -0.774250
    N   N34   0.537020  0.011593  0.267009  -0.277632
    N   N35   0.400611  0.744613  0.512256  -0.774330
    N   N36   0.755401  0.099415  0.987686  -0.774330
    N   N37   0.099383  0.244612  0.987709  -0.774066
    N   N38   0.244598  0.900585  0.987686  -0.774364
    N   N39   0.900617  0.755388  0.987709  -0.774085
    N   N40   0.755387  0.900612  0.012255  -0.774299
    N   N41   0.099419  0.755400  0.012279  -0.774239
    N   N42   0.244613  0.099388  0.012255  -0.774314
    N   N43   0.900580  0.244600  0.012279  -0.774212
    N   N44   0.011601  0.537017  0.732957  -0.277079
    N   N45   0.511452  0.962929  0.732488  -0.491133
    N   N46   0.988399  0.462983  0.732957  -0.277154
    N   N47   0.488548  0.037071  0.732488  -0.491150
    N   N48   0.511585  0.962977  0.767008  -0.277304
    O   O1    0.063396  0.463384  0.490200  -0.594537
    O   O2    0.963384  0.436604  0.990200  -0.594498
    O   O3    0.436588  0.036591  0.990025  -0.588856
    O   O4    0.036616  0.563396  0.990200  -0.594533
    O   O5    0.563397  0.036614  0.009766  -0.594082
    O   O6    0.963411  0.563413  0.009940  -0.588924
    O   O7    0.436603  0.963386  0.009766  -0.594088
    O   O8    0.036589  0.436587  0.009940  -0.588974
    O   O9    0.987262  0.463433  0.450388  -0.573670
    O   O10   0.463422  0.012722  0.450212  -0.580200
    O   O11   0.012738  0.536567  0.450388  -0.573665
    O   O12   0.463409  0.936588  0.490025  -0.588813
    O   O13   0.536578  0.987278  0.450212  -0.580231
    O   O14   0.987279  0.536578  0.549754  -0.580391
    O   O15   0.463432  0.987263  0.549578  -0.573494
    O   O16   0.012721  0.463422  0.549754  -0.580396
    O   O17   0.536568  0.012737  0.549578  -0.573520
    O   O18   0.487278  0.963422  0.950211  -0.580384
    O   O19   0.963433  0.512738  0.950388  -0.573635
    O   O20   0.512722  0.036578  0.950211  -0.580328
    O   O21   0.036567  0.487262  0.950388  -0.573669
    O   O22   0.487263  0.036568  0.049578  -0.573623
    O   O23   0.936604  0.536616  0.490200  -0.594520
    O   O24   0.963422  0.487279  0.049754  -0.580347
    O   O25   0.512737  0.963432  0.049578  -0.573620
    O   O26   0.036578  0.512721  0.049754  -0.580387
    O   O27   0.487672  0.563593  0.471215  -0.598100
    O   O28   0.563593  0.512328  0.471215  -0.598924
    O   O29   0.512328  0.436407  0.471215  -0.598099
    O   O30   0.436407  0.487672  0.471215  -0.598934
    O   O31   0.487674  0.436407  0.528751  -0.599018
    O   O32   0.563593  0.487674  0.528751  -0.598128
    O   O33   0.512326  0.563593  0.528751  -0.599006
    O   O34   0.536591  0.063412  0.490025  -0.588773
    O   O35   0.436407  0.512326  0.528751  -0.598142
    O   O36   0.987672  0.063593  0.971214  -0.598977
    O   O37   0.063593  0.012328  0.971214  -0.598148
    O   O38   0.012328  0.936407  0.971214  -0.598973
    O   O39   0.936407  0.987672  0.971214  -0.598148
    O   O40   0.987674  0.936407  0.028750  -0.598159
    O   O41   0.063593  0.987674  0.028750  -0.599047
    O   O42   0.012326  0.063593  0.028750  -0.598175
    O   O43   0.936406  0.012326  0.028750  -0.599024
    O   O44   0.034941  0.582949  0.295082  -0.443366
    O   O45   0.063413  0.536589  0.509940  -0.589000
    O   O46   0.555399  0.927083  0.297175  -0.504369
    O   O47   0.965059  0.417051  0.295082  -0.443349
    O   O48   0.444601  0.072917  0.297175  -0.504350
    O   O49   0.072909  0.444592  0.702792  -0.504102
    O   O50   0.582969  0.034898  0.704881  -0.443643
    O   O51   0.927091  0.555408  0.702792  -0.504058
    O   O52   0.417031  0.965102  0.704881  -0.443641
    O   O53   0.572926  0.055387  0.797176  -0.504334
    O   O54   0.082947  0.465055  0.795082  -0.443360
    O   O55   0.427074  0.944613  0.797176  -0.504334
    O   O56   0.463386  0.063397  0.509766  -0.593975
    O   O57   0.917053  0.534945  0.795082  -0.443320
    O   O58   0.534919  0.917041  0.204883  -0.443518
    O   O59   0.055407  0.572910  0.202792  -0.504091
    O   O60   0.465081  0.082959  0.204883  -0.443531
    O   O61   0.944593  0.427090  0.202792  -0.504144
    O   O62   0.214118  0.604515  0.537801  -0.549312
    O   O63   0.604533  0.785920  0.537753  -0.553892
    O   O64   0.785882  0.395485  0.537801  -0.549307
    O   O65   0.395467  0.214080  0.537753  -0.553886
    O   O66   0.214078  0.395461  0.462213  -0.554150
    O   O67   0.936587  0.463411  0.509940  -0.588990
    O   O68   0.604520  0.214116  0.462165  -0.549509
    O   O69   0.785922  0.604539  0.462213  -0.554152
    O   O70   0.395481  0.785884  0.462164  -0.549492
    O   O71   0.714080  0.104534  0.037753  -0.553886
    O   O72   0.104515  0.285882  0.037801  -0.549311
    O   O73   0.285920  0.895466  0.037753  -0.553879
    O   O74   0.895485  0.714118  0.037801  -0.549364
    O   O75   0.714116  0.895481  0.962164  -0.549497
    O   O76   0.104539  0.714078  0.962213  -0.554156
    O   O77   0.285884  0.104519  0.962164  -0.549509
    O   O78   0.536614  0.936603  0.509766  -0.594016
    O   O79   0.895461  0.285922  0.962213  -0.554151
    O   O80   0.563412  0.963409  0.990025  -0.588819
