data_DB0-m3_o12_o23_f0_pcu.sym.130_repeat
_audit_creation_date              2024-02-23
_audit_creation_method            'Materials Studio'
_symmetry_space_group_name_H-M    'P1'
_symmetry_Int_Tables_number       1
_symmetry_cell_setting            triclinic
loop_
_symmetry_equiv_pos_as_xyz
  x,y,z
_cell_length_a                    10.0057
_cell_length_b                    11.2482
_cell_length_c                    15.9587
_cell_angle_alpha                 89.9881
_cell_angle_beta                  80.7189
_cell_angle_gamma                 92.4467
loop_
_atom_site_label
_atom_site_type_symbol
_atom_site_fract_x
_atom_site_fract_y
_atom_site_fract_z
_atom_site_U_iso_or_equiv
_atom_site_adp_type
_atom_site_occupancy
O1     O     0.42417   0.69272   0.50756   0.00000  Uiso   1.00
O2     O     0.65385   0.66154   0.48316   0.00000  Uiso   1.00
C1     C     0.55126   0.73196   0.49410   0.00000  Uiso   1.00
O3     O     0.38614   0.51731   0.63622   0.00000  Uiso   1.00
O4     O     0.61594   0.48611   0.61192   0.00000  Uiso   1.00
C2     C     0.50146   0.50166   0.66292   0.00000  Uiso   1.00
Zn1    Zn    0.34753   0.52273   0.51555   0.00000  Uiso   1.00
Zn2    Zn    0.65032   0.48129   0.48334   0.00000  Uiso   1.00
O5     O     0.34400   0.34248   0.51574   0.00000  Uiso   1.00
O6     O     0.57369   0.31130   0.49134   0.00000  Uiso   1.00
O7     O     0.38192   0.51790   0.38697   0.00000  Uiso   1.00
O8     O     0.61171   0.48670   0.36267   0.00000  Uiso   1.00
C3     C     0.44659   0.27206   0.50479   0.00000  Uiso   1.00
C4     C     0.49639   0.50236   0.33597   0.00000  Uiso   1.00
C5     C     0.37900   0.56827   0.96305   0.00000  Uiso   1.00
C6     C     0.62873   0.56458   0.93974   0.00000  Uiso   1.00
C7     C     0.63569   0.54607   0.03297   0.00000  Uiso   1.00
H1     H     0.39864   0.67097   0.07497   0.00000  Uiso   1.00
H2     H     0.38088   0.65900   0.93554   0.00000  Uiso   1.00
H3     H     0.71828   0.52599   0.90086   0.00000  Uiso   1.00
H4     H     0.62821   0.66057   0.92416   0.00000  Uiso   1.00
H5     H     0.70839   0.47572   0.03808   0.00000  Uiso   1.00
C8     C     0.49566   0.50234   0.24613   0.00000  Uiso   1.00
C9     C     0.50002   0.50227   0.92015   0.00000  Uiso   1.00
C10    C     0.38406   0.57685   0.05720   0.00000  Uiso   1.00
C11    C     0.49702   0.50179   0.07881   0.00000  Uiso   1.00
C12    C     0.47154   0.37579   0.04969   0.00000  Uiso   1.00
C13    C     0.48994   0.37507   0.95344   0.00000  Uiso   1.00
C14    C     0.49595   0.50215   0.17060   0.00000  Uiso   1.00
C15    C     0.50161   0.50185   0.82833   0.00000  Uiso   1.00
C16    C     0.50213   0.50166   0.75277   0.00000  Uiso   1.00
H6     H     0.40218   0.32639   0.93290   0.00000  Uiso   1.00
H7     H     0.58389   0.32952   0.92782   0.00000  Uiso   1.00
H8     H     0.36675   0.34412   0.07618   0.00000  Uiso   1.00
H9     H     0.28408   0.51951   0.95329   0.00000  Uiso   1.00
H10    H     0.28565   0.54271   0.09303   0.00000  Uiso   1.00
H11    H     0.54375   0.31545   0.07173   0.00000  Uiso   1.00
H12    H     0.62110   0.09706   0.48659   0.00000  Uiso   1.00
H13    H     0.37675   0.90695   0.51229   0.00000  Uiso   1.00
C17    C     0.58112   0.86076   0.49094   0.00000  Uiso   1.00
C18    C     0.48221   0.93784   0.50124   0.00000  Uiso   1.00
H14    H     0.31182   0.11065   0.51896   0.00000  Uiso   1.00
C19    C     0.41673   0.14326   0.50794   0.00000  Uiso   1.00
C20    C     0.51564   0.06618   0.49764   0.00000  Uiso   1.00
H15    H     0.68603   0.89337   0.47992   0.00000  Uiso   1.00
H16    H     0.11593   0.43027   0.44564   0.00000  Uiso   1.00
H17    H     0.88191   0.57370   0.55328   0.00000  Uiso   1.00
N1     N     0.84900   0.45344   0.46182   0.00000  Uiso   1.00
C21    C     0.92572   0.51118   0.50605   0.00000  Uiso   1.00
H18    H     0.10133   0.60867   0.58072   0.00000  Uiso   1.00
N2     N     0.14883   0.55051   0.53711   0.00000  Uiso   1.00
C22    C     0.07212   0.49278   0.49287   0.00000  Uiso   1.00
H19    H     0.89651   0.39530   0.41820   0.00000  Uiso   1.00
C23    C     0.68816   0.65597   0.07203   0.00000  Uiso   1.00
H20    H     0.77888   0.65187   0.10082   0.00000  Uiso   1.00
O9     O     0.63283   0.75025   0.07043   0.00000  Uiso   1.00
