# Generated by REPEAT Assigner based on pymatgen
data_DB0-m2_o6_o24_f0_pcu.sym.80_sqe
_audit_creation_date              2022-05-24
_audit_creation_method            REPEAT_Assigner
_cell_length_a                    16.040277
_cell_length_b                    14.618630
_cell_length_c                    10.778572
_cell_angle_alpha                 90.000000
_cell_angle_beta                  90.000210
_cell_angle_gamma                 90.000000
_cell_volume                      2527.433691
_symmetry_space_group_name_H-M    P1
_symmetry_Int_Tables_number       1
loop_
    _symmetry_equiv_pos_site_id
    _symmetry_equiv_pos_as_xyz
    1  x,y,z
loop_
    _atom_site_type_symbol
    _atom_site_label
    _atom_site_fract_x
    _atom_site_fract_y
    _atom_site_fract_z
    _atom_type_partial_charge
    O   O1   0.379335  0.576846  0.502919  -0.593550
    O   O2   0.621330  0.419000  0.503859  -0.678451
    O   O3   0.621647  0.576189  0.503352  -0.601510
    O   O4   0.379033  0.419380  0.503273  -0.667052
    C   C1   0.340387  0.498172  0.499202  0.879701
    C   C2   0.660349  0.497491  0.500349  0.862489
    O   O5   0.498037  0.576072  0.318894  -0.507680
    O   O6   0.497398  0.419513  0.679915  -0.496588
    O   O7   0.497834  0.576756  0.679544  -0.493693
    O   O8   0.497714  0.419113  0.319360  -0.527648
    C   C3   0.499860  0.497433  0.260758  0.418967
    C   C4   0.500721  0.498146  0.737963  0.450257
    Cu  Cu1  0.500529  0.589398  0.499171  0.823967
    Cu  Cu2  0.500166  0.406316  0.499664  0.999953
    C   C5   0.250925  0.498207  0.499431  -0.240654
    C   C6   0.749805  0.497281  0.501858  -0.205876
    H   H1   0.632024  0.082325  0.476840  0.142041
    H   H2   0.368531  0.913373  0.522444  0.159598
    H   H3   0.368206  0.081646  0.523029  0.151400
    H   H4   0.632350  0.914057  0.476272  0.164076
    C   C7   0.574314  0.950873  0.486553  -0.167032
    C   C8   0.426245  0.044827  0.512789  -0.206268
    C   C9   0.426427  0.950494  0.512436  -0.150200
    C   C10  0.574131  0.045202  0.486895  -0.171754
    C   C11  0.500459  0.903517  0.499301  0.171296
    C   C12  0.500100  0.092183  0.500022  0.332552
    C   C13  0.457306  0.568563  0.039959  -0.024720
    C   C14  0.542239  0.426369  0.958636  0.011724
    C   C15  0.535211  0.573418  0.959610  0.033951
    C   C16  0.464586  0.421458  0.039241  -0.030705
    C   C17  0.423292  0.493385  0.957057  0.002228
    C   C18  0.576300  0.502183  0.041674  -0.073252
    C   C19  0.500971  0.498065  0.876970  0.111403
    C   C20  0.498614  0.497109  0.121757  0.209235
    C   C21  0.500638  0.805354  0.499007  0.123497
    C   C22  0.499935  0.190358  0.500112  0.123830
    N   N1   0.499885  0.269504  0.500080  -0.232979
    N   N2   0.500730  0.726208  0.498857  -0.170582
    C   C23  0.824930  0.497269  0.502430  -0.109496
    C   C24  0.175797  0.498060  0.499793  -0.075051
    H   H5   0.076762  0.643555  0.502015  0.147105
    H   H6   0.923965  0.351721  0.500917  0.138402
    H   H7   0.923413  0.643190  0.503421  0.151488
    H   H8   0.077319  0.352086  0.499501  0.136701
    C   C25  0.957227  0.579226  0.502677  -0.197023
    C   C26  0.043505  0.416048  0.500405  -0.187056
    C   C27  0.043194  0.579433  0.501812  -0.181484
    C   C28  0.957534  0.415842  0.501273  -0.185059
    C   C29  0.914394  0.497434  0.502397  0.268803
    C   C30  0.086335  0.497845  0.500597  0.255232
    C   C31  0.334509  0.484787  0.908338  -0.032621
    C   C32  0.310008  0.567050  0.835002  0.019280
    C   C33  0.232036  0.575816  0.794993  -0.453297
    H   H9   0.291035  0.476877  0.987526  0.006018
    H   H10  0.329666  0.423387  0.848337  0.057830
    H   H11  0.354953  0.620161  0.814335  0.098074
    H   H12  0.186340  0.523245  0.815179  0.165142
    H   H13  0.214047  0.635742  0.742151  0.144093
    C   C34  0.665329  0.502864  0.090959  0.021550
    C   C35  0.682085  0.586211  0.166844  -0.030136
    C   C36  0.757924  0.600552  0.212600  -0.438332
    H   H14  0.709673  0.500778  0.012166  0.000505
    H   H15  0.675422  0.441472  0.149513  0.042849
    H   H16  0.633158  0.635348  0.185355  0.106043
    H   H17  0.807514  0.551897  0.194842  0.162657
    H   H18  0.770250  0.661056  0.267771  0.143393
    C   C37  0.410936  0.653189  0.085256  -0.037181
    C   C38  0.337557  0.627304  0.162753  0.036485
    C   C39  0.288392  0.692024  0.209163  -0.480552
    H   H19  0.389508  0.694144  0.004909  0.011155
    H   H20  0.453754  0.696121  0.141214  0.047492
    H   H21  0.324215  0.556132  0.182500  0.084411
    H   H22  0.301322  0.763494  0.190468  0.170616
    H   H23  0.235247  0.673324  0.265871  0.143518
    C   C40  0.598364  0.348531  0.914605  -0.053033
    C   C41  0.549983  0.273711  0.853904  0.000807
    C   C42  0.588903  0.198196  0.816945  -0.438458
    H   H24  0.632344  0.319516  0.994976  0.032183
    H   H25  0.644782  0.375821  0.847920  0.060327
    H   H26  0.483469  0.280005  0.839415  0.100337
    H   H27  0.655530  0.190991  0.830695  0.155690
    H   H28  0.553908  0.143460  0.773544  0.106882
    C   C43  0.573381  0.663174  0.915592  -0.052703
    C   C44  0.649224  0.646294  0.838755  0.038389
    C   C45  0.692280  0.716544  0.793721  -0.477046
    H   H29  0.590422  0.705883  0.996584  0.016398
    H   H30  0.526938  0.701227  0.859539  0.048345
    H   H31  0.669300  0.577156  0.818344  0.089830
    H   H32  0.672604  0.786039  0.813061  0.167102
    H   H33  0.747193  0.704340  0.737486  0.144505
    C   C46  0.416588  0.336898  0.081607  -0.032953
    C   C47  0.472328  0.268006  0.141217  0.013730
    C   C48  0.441702  0.187334  0.175293  -0.455797
    H   H34  0.385897  0.304719  0.000529  0.026892
    H   H35  0.367544  0.357644  0.148465  0.054328
    H   H36  0.537546  0.282886  0.157292  0.099992
    H   H37  0.376459  0.171609  0.159978  0.157030
    H   H38  0.482150  0.136922  0.217826  0.113693
