# Generated by REPEAT Assigner based on pymatgen
data_DB0-m9_o7_o20_f0_sra.sym.6
_audit_creation_date              2022-05-24
_audit_creation_method            REPEAT_Assigner
_cell_length_a                    25.623329
_cell_length_b                    6.815779
_cell_length_c                    17.970816
_cell_angle_alpha                 90.000000
_cell_angle_beta                  99.159437
_cell_angle_gamma                 90.000000
_cell_volume                      3098.458088
_symmetry_space_group_name_H-M    P1
_symmetry_Int_Tables_number       1
loop_
    _symmetry_equiv_pos_site_id
    _symmetry_equiv_pos_as_xyz
    1  x,y,z
loop_
    _atom_site_type_symbol
    _atom_site_label
    _atom_site_fract_x
    _atom_site_fract_y
    _atom_site_fract_z
    _atom_type_partial_charge
    O  O1   0.289648  0.643131  0.173897  -0.412001
    O  O2   0.701497  0.359097  0.814522  -0.316668
    O  O3   0.210352  0.143131  0.326103  -0.412001
    O  O4   0.798503  0.859097  0.685478  -0.316639
    O  O5   0.182503  0.299965  0.183359  -0.530955
    O  O6   0.811394  0.702247  0.828715  -0.553775
    O  O7   0.317497  0.799965  0.316641  -0.530956
    O  O8   0.688606  0.202247  0.671285  -0.553767
    C  C1   0.159931  0.474058  0.173749  0.724033
    C  C2   0.833550  0.528365  0.842021  0.726613
    C  C3   0.340069  0.974058  0.326251  0.724031
    C  C4   0.666450  0.028365  0.657978  0.726582
    O  O9   0.287821  0.297879  0.164043  -0.438849
    O  O10  0.702590  0.704072  0.824699  -0.381599
    O  O11  0.212179  0.797879  0.335957  -0.438849
    O  O12  0.797410  0.204072  0.675301  -0.381578
    O  O13  0.318006  0.141588  0.301672  -0.510191
    O  O14  0.686606  0.860626  0.685536  -0.540057
    O  O15  0.181994  0.641588  0.198328  -0.510193
    O  O16  0.813394  0.360626  0.814464  -0.540073
    C  C5   0.299270  0.475205  0.143414  0.481349
    C  C6   0.687319  0.527292  0.840140  0.427137
    C  C7   0.200730  0.975205  0.356586  0.481350
    C  C8   0.812681  0.027292  0.659860  0.427067
    O  O17  0.260021  0.468954  0.295198  -0.485558
    O  O18  0.744680  0.533268  0.704180  -0.381964
    O  O19  0.239979  0.968954  0.204802  -0.485564
    O  O20  0.755320  0.033268  0.795820  -0.381957
    V  V1   0.248330  0.193580  0.241162  1.320981
    V  V2   0.750776  0.808637  0.758889  1.173159
    V  V3   0.251670  0.693580  0.258838  1.320915
    V  V4   0.749224  0.308637  0.741111  1.173084
    C  C9   0.925690  0.186405  0.573976  -0.208746
    C  C10  0.114651  0.821419  0.490151  -0.195223
    C  C11  0.574311  0.686405  0.926024  -0.208726
    C  C12  0.385349  0.321419  0.009849  -0.195254
    H  H1   0.944932  0.321233  0.561926  0.133066
    H  H2   0.098287  0.687170  0.508693  0.121655
    H  H3   0.555068  0.821233  0.938074  0.133051
    H  H4   0.401713  0.187170  0.991307  0.121667
    C  C13  0.877802  0.191343  0.598501  -0.153776
    C  C14  0.153184  0.814305  0.445494  -0.079211
    C  C15  0.622198  0.691343  0.901499  -0.153761
    C  C16  0.346816  0.314305  0.054506  -0.079190
    H  H5   0.859472  0.330312  0.607550  0.185533
    H  H6   0.167720  0.674499  0.429089  0.121426
    H  H7   0.640528  0.830312  0.892450  0.185541
    H  H8   0.332280  0.174499  0.070911  0.121418
    C  C17  0.855462  0.018799  0.617381  -0.093961
    C  C18  0.169324  0.985486  0.415792  -0.092938
    C  C19  0.644538  0.518799  0.882619  -0.094037
    C  C20  0.330676  0.485486  0.084208  -0.092946
    C  C21  0.878746  0.840723  0.608171  0.441018
    C  C22  0.150867  0.164701  0.434974  0.333445
    C  C23  0.621254  0.340723  0.891829  0.441073
    C  C24  0.349133  0.664701  0.065026  0.333455
    C  C25  0.926645  0.835711  0.583655  -0.401617
    C  C26  0.112370  0.171910  0.479665  -0.379343
    C  C27  0.573355  0.335711  0.916345  -0.401633
    C  C28  0.387630  0.671910  0.020335  -0.379360
    H  H9   0.946607  0.697529  0.579135  0.199607
    H  H10  0.094224  0.310341  0.490015  0.207341
    H  H11  0.553393  0.197529  0.920865  0.199611
    H  H12  0.405776  0.810341  0.009985  0.207343
    C  C29  0.950430  0.009112  0.569056  0.293481
    C  C30  0.093234  0.999633  0.504519  0.286227
    C  C31  0.549570  0.509112  0.930944  0.293484
    C  C32  0.406766  0.499633  0.995481  0.286247
    C  C33  0.001864  0.005612  0.550161  -0.141566
    C  C34  0.044629  0.003063  0.532087  -0.153363
    C  C35  0.498136  0.505612  0.949839  -0.141587
    C  C36  0.455371  0.503063  0.967913  -0.153349
    C  C37  0.616968  0.019778  0.604590  -0.192193
    C  C38  0.391485  0.983894  0.375162  -0.258923
    C  C39  0.883032  0.519778  0.895410  -0.192210
    C  C40  0.108515  0.483894  0.124838  -0.258921
    C  C41  0.575300  0.013109  0.560781  0.056747
    C  C42  0.434026  0.991147  0.416959  0.112900
    C  C43  0.924700  0.513109  0.939219  0.056759
    C  C44  0.065974  0.491147  0.083041  0.112893
    C  C45  0.525930  0.005512  0.509795  0.002294
    C  C46  0.483835  0.999043  0.466932  -0.046852
    C  C47  0.974070  0.505512  0.990205  0.002281
    C  C48  0.016165  0.499043  0.033068  -0.046840
    O  O21  0.856422  0.671534  0.629039  -0.362115
    C  C49  0.822404  0.612234  0.564585  0.017195
    H  H13  0.845535  0.542355  0.524603  0.022871
    H  H14  0.800919  0.741622  0.537665  0.013559
    H  H15  0.793417  0.505509  0.580475  0.055979
    O  O22  0.166932  0.332555  0.403781  -0.308140
    C  C50  0.132111  0.353683  0.336288  0.138877
    H  H16  0.095704  0.429016  0.347140  -0.016641
    H  H17  0.121925  0.206898  0.311532  0.005642
    H  H18  0.151252  0.441584  0.296232  0.034208
    O  O23  0.643578  0.171534  0.870961  -0.362121
    C  C51  0.677596  0.112234  0.935415  0.017166
    H  H19  0.654465  0.042355  0.975397  0.022872
    H  H20  0.699081  0.241622  0.962335  0.013566
    H  H21  0.706584  0.005509  0.919525  0.055994
    O  O24  0.333068  0.832555  0.096219  -0.308141
    C  C52  0.367889  0.853683  0.163712  0.138878
    H  H22  0.404296  0.929017  0.152860  -0.016642
    H  H23  0.378075  0.706898  0.188468  0.005641
    H  H24  0.348748  0.941584  0.203769  0.034209
