# Generated by REPEAT Assigner based on pymatgen
data_DB0-m3_o16_o1510_f0_fsc.sym.40
_audit_creation_date              2022-05-24
_audit_creation_method            REPEAT_Assigner
_cell_length_a                    18.626408
_cell_length_b                    8.553231
_cell_length_c                    12.117866
_cell_angle_alpha                 90.000000
_cell_angle_beta                  74.415806
_cell_angle_gamma                 90.000000
_cell_volume                      1859.595559
_symmetry_space_group_name_H-M    P1
_symmetry_Int_Tables_number       1
loop_
    _symmetry_equiv_pos_site_id
    _symmetry_equiv_pos_as_xyz
    1  x,y,z
loop_
    _atom_site_type_symbol
    _atom_site_label
    _atom_site_fract_x
    _atom_site_fract_y
    _atom_site_fract_z
    _atom_type_partial_charge
    H   H1   0.548862  0.998873  0.386212  0.164154
    C   C1   0.467347  0.859797  0.500145  -0.010611
    C   C2   0.467734  0.137952  0.500728  -0.002371
    C   C3   0.400826  0.858671  0.584478  -0.253880
    C   C4   0.402846  0.138537  0.588283  -0.260730
    H   H2   0.376020  0.747037  0.613486  0.113606
    H   H3   0.381761  0.249072  0.626443  0.114986
    C   C5   0.366226  0.998983  0.625912  0.189030
    C   C6   0.497642  0.998904  0.453679  -0.175675
    C   C7   0.043649  0.129690  0.987704  -0.113748
    C   C8   0.025476  0.872357  0.925222  -0.122420
    H   H4   0.079282  0.229590  0.987132  0.095969
    H   H5   0.045863  0.772039  0.871737  0.103876
    C   C9   0.972554  0.128670  0.059823  -0.221041
    C   C10  0.953150  0.873431  0.993630  -0.203926
    H   H6   0.955394  0.227457  0.116042  0.149908
    H   H7   0.918424  0.773740  0.990085  0.128977
    C   C11  0.926233  0.000906  0.063112  0.151363
    C   C12  0.070667  0.000725  0.921740  0.065882
    C   C13  0.816612  0.858649  0.185353  -0.288593
    C   C14  0.814598  0.138572  0.181449  -0.234530
    H   H8   0.841481  0.747033  0.156445  0.136660
    H   H9   0.835758  0.249075  0.143316  0.098660
    C   C15  0.750015  0.859714  0.269527  0.079456
    C   C16  0.749628  0.138113  0.268840  0.176565
    C   C17  0.719637  0.998966  0.315823  -0.313712
    H   H10  0.668365  0.998969  0.383186  0.123949
    C   C18  0.851223  0.998973  0.143947  0.084928
    C   C19  0.192054  0.872357  0.844816  -0.127076
    C   C20  0.173875  0.129768  0.782487  -0.158979
    H   H11  0.171673  0.771996  0.898257  0.100724
    H   H12  0.138244  0.229693  0.783132  0.112507
    C   C21  0.264363  0.873439  0.776345  -0.171695
    C   C22  0.244950  0.128759  0.710302  -0.116426
    H   H13  0.299079  0.773704  0.779807  0.123063
    H   H14  0.262092  0.227583  0.654116  0.103016
    C   C23  0.291264  0.000949  0.706889  0.039069
    C   C24  0.146866  0.000751  0.848397  0.075953
    O   O1   0.519826  0.329392  0.359657  -0.746964
    O   O2   0.519711  0.668304  0.359720  -0.759937
    O   O3   0.549104  0.335000  0.533164  -0.707382
    O   O4   0.549099  0.663052  0.533072  -0.721748
    C   C25  0.511066  0.279887  0.464992  0.829653
    C   C26  0.510810  0.717785  0.464933  0.859186
    O   O5   0.697591  0.329865  0.409937  -0.595787
    O   O6   0.697694  0.667867  0.409967  -0.617427
    O   O7   0.668712  0.336100  0.235995  -0.748591
    O   O8   0.668671  0.662120  0.236206  -0.734476
    C   C27  0.706407  0.280363  0.304513  0.751030
    C   C28  0.706629  0.717428  0.304690  0.822217
    Zn  Zn1  0.629805  0.498969  0.495893  0.960706
    Zn  Zn2  0.587669  0.498997  0.274464  1.108402
    C   C29  0.461990  0.499031  0.060228  -0.250882
    H   H15  0.448359  0.498898  0.239914  0.155479
    H   H16  0.425279  0.498888  0.868945  0.152821
    H   H17  0.402643  0.498850  0.069346  0.147204
    N   N1   0.561240  0.499073  0.146068  0.142659
    C   C30  0.731136  0.499818  0.612794  0.178918
    C   C31  0.759146  0.501846  0.706210  -0.196899
    C   C32  0.713007  0.501924  0.814441  -0.056426
    C   C33  0.636653  0.500113  0.830606  0.009769
    C   C34  0.608961  0.499299  0.733478  0.115662
    C   C35  0.587495  0.499605  0.941632  0.045329
    C   C36  0.511728  0.499240  0.953353  0.286431
    C   C37  0.484730  0.499097  0.858868  -0.281953
    C   C38  0.532205  0.498991  0.750782  -0.130306
    C   C39  0.611185  0.499260  0.042177  -0.223733
    C   C40  0.487655  0.499042  0.156103  -0.097149
    N   N2   0.656343  0.498998  0.624914  -0.009013
    H   H18  0.668798  0.498783  0.041886  0.174993
    H   H19  0.739924  0.503789  0.882298  0.135202
    H   H20  0.818810  0.503145  0.693934  0.116176
    H   H21  0.505687  0.498843  0.683245  0.208356
    S   S1   0.798991  0.498689  0.476526  -0.193231
    C   C41  0.825648  0.298500  0.495463  0.109481
    H   H22  0.837596  0.236220  0.412238  0.021091
    H   H23  0.779088  0.238499  0.557468  -0.001514
    H   H24  0.875838  0.297662  0.528149  -0.014231
