# Generated by REPEAT Assigner based on pymatgen
data_DB0-m3_o24_o27_f0_nbo.sym.160
_audit_creation_date              2022-05-24
_audit_creation_method            REPEAT_Assigner
_cell_length_a                    30.407451
_cell_length_b                    30.505524
_cell_length_c                    24.575857
_cell_angle_alpha                 90.000000
_cell_angle_beta                  128.209962
_cell_angle_gamma                 90.000000
_cell_volume                      17912.294378
_symmetry_space_group_name_H-M    P1
_symmetry_Int_Tables_number       1
loop_
    _symmetry_equiv_pos_site_id
    _symmetry_equiv_pos_as_xyz
    1  x,y,z
loop_
    _atom_site_type_symbol
    _atom_site_label
    _atom_site_fract_x
    _atom_site_fract_y
    _atom_site_fract_z
    _atom_type_partial_charge
    O   O1    0.823901  0.768937  0.498868  -0.696807
    O   O2    0.176099  0.768937  0.501132  -0.696818
    O   O3    0.323901  0.268937  0.498868  -0.696806
    O   O4    0.676099  0.268937  0.501132  -0.696812
    O   O5    0.772226  0.822054  0.503719  -0.713507
    O   O6    0.227774  0.822054  0.496281  -0.713486
    O   O7    0.272226  0.322054  0.503719  -0.713509
    O   O8    0.727774  0.322054  0.496281  -0.713484
    C   C1    0.812674  0.809962  0.501861  0.586340
    C   C2    0.187327  0.809962  0.498139  0.586228
    C   C3    0.312674  0.309962  0.501861  0.586394
    C   C4    0.687327  0.309962  0.498139  0.586222
    O   O9    0.727366  0.723470  0.396366  -0.722396
    O   O10   0.272634  0.723470  0.603634  -0.722414
    O   O11   0.227366  0.223470  0.396366  -0.722415
    O   O12   0.772634  0.223470  0.603634  -0.722410
    O   O13   0.673151  0.776004  0.397265  -0.683196
    O   O14   0.326850  0.776004  0.602735  -0.683200
    O   O15   0.173151  0.276004  0.397265  -0.683233
    O   O16   0.826850  0.276004  0.602735  -0.683199
    C   C5    0.684533  0.750363  0.364543  0.752548
    C   C6    0.315467  0.750363  0.635457  0.752714
    C   C7    0.184533  0.250363  0.364543  0.752737
    C   C8    0.815467  0.250363  0.635457  0.752710
    Zn  Zn1   0.785920  0.714745  0.499857  1.320776
    Zn  Zn2   0.214080  0.714745  0.500143  1.320787
    Zn  Zn3   0.285920  0.214745  0.499857  1.320763
    Zn  Zn4   0.714080  0.214745  0.500143  1.320782
    Zn  Zn5   0.715388  0.784765  0.500225  1.297498
    Zn  Zn6   0.284612  0.784765  0.499775  1.297500
    Zn  Zn7   0.215388  0.284765  0.500225  1.297496
    Zn  Zn8   0.784612  0.284765  0.499775  1.297504
    O   O17   0.729666  0.677432  0.497558  -0.694429
    O   O18   0.270334  0.677432  0.502442  -0.694334
    O   O19   0.229666  0.177432  0.497558  -0.694418
    O   O20   0.770334  0.177432  0.502442  -0.694338
    O   O21   0.676637  0.730586  0.499719  -0.693788
    O   O22   0.323363  0.730586  0.500281  -0.693694
    O   O23   0.176637  0.230586  0.499719  -0.693777
    O   O24   0.823363  0.230586  0.500281  -0.693700
    O   O25   0.828741  0.724131  0.602839  -0.726238
    O   O26   0.171259  0.724131  0.397161  -0.726274
    O   O27   0.328741  0.224131  0.602839  -0.726245
    O   O28   0.671259  0.224131  0.397161  -0.726276
    O   O29   0.773268  0.775367  0.603607  -0.656926
    O   O30   0.226732  0.775367  0.396393  -0.656952
    O   O31   0.273268  0.275367  0.603607  -0.656933
    O   O32   0.726732  0.275367  0.396393  -0.656954
    C   C9    0.688598  0.689550  0.498189  0.521712
    C   C10   0.311402  0.689550  0.501811  0.521213
    C   C11   0.188598  0.189550  0.498189  0.521628
    C   C12   0.811402  0.189550  0.501811  0.521225
    C   C13   0.817139  0.749529  0.635582  0.718651
    C   C14   0.182861  0.749529  0.364418  0.718773
    C   C15   0.317139  0.249529  0.635582  0.718692
    C   C16   0.682861  0.249529  0.364418  0.718781
    C   C17   0.625385  0.790660  0.252715  0.306731
    C   C18   0.374615  0.790660  0.747285  0.306813
    C   C19   0.125385  0.290660  0.252715  0.306884
    C   C20   0.874615  0.290660  0.747285  0.306815
    C   C21   0.589270  0.790211  0.181188  0.066160
    C   C22   0.410730  0.790211  0.818812  0.066128
    C   C23   0.089270  0.290211  0.181188  0.066109
    C   C24   0.910730  0.290211  0.818812  0.066134
    H   H1    0.573658  0.821088  0.153984  0.063910
    H   H2    0.426342  0.821088  0.846016  0.063910
    H   H3    0.073658  0.321088  0.153984  0.063908
    H   H4    0.926342  0.321088  0.846016  0.063908
    C   C25   0.574236  0.751132  0.145231  -0.527460
    C   C26   0.425764  0.751132  0.854769  -0.527404
    C   C27   0.074236  0.251132  0.145231  -0.527413
    C   C28   0.925764  0.251132  0.854769  -0.527408
    C   C29   0.596708  0.712331  0.181503  0.132214
    C   C30   0.403292  0.712331  0.818497  0.132165
    C   C31   0.096708  0.212331  0.181503  0.132170
    C   C32   0.903292  0.212331  0.818497  0.132159
    H   H5    0.586154  0.681307  0.154884  0.028530
    H   H6    0.413846  0.681307  0.845116  0.028536
    H   H7    0.086154  0.181307  0.154884  0.028533
    H   H8    0.913846  0.181307  0.845116  0.028538
    C   C33   0.633493  0.712682  0.252819  -0.234797
    C   C34   0.366507  0.712682  0.747181  -0.234700
    C   C35   0.133493  0.212682  0.252819  -0.234672
    C   C36   0.866507  0.212682  0.747181  -0.234693
    H   H9    0.650318  0.682030  0.280495  0.169334
    H   H10   0.349682  0.682030  0.719505  0.169312
    H   H11   0.150318  0.182030  0.280495  0.169301
    H   H12   0.849682  0.182030  0.719505  0.169310
    C   C37   0.647449  0.751541  0.288793  -0.045128
    C   C38   0.352551  0.751541  0.711207  -0.045324
    C   C39   0.147449  0.251541  0.288793  -0.045394
    C   C40   0.852551  0.251541  0.711207  -0.045327
    N   N1    0.517539  0.712910  0.034223  -0.346463
    N   N2    0.482461  0.712910  0.965777  -0.346444
    N   N3    0.017539  0.212910  0.034223  -0.346457
    N   N4    0.982461  0.212910  0.965777  -0.346447
    C   C41   0.464553  0.751026  0.930734  0.941253
    C   C42   0.535447  0.751026  0.069266  0.941296
    C   C43   0.964553  0.251026  0.930734  0.941261
    C   C44   0.035447  0.251026  0.069266  0.941272
    N   N5    0.482532  0.789116  0.965795  -0.343846
    N   N6    0.517468  0.789116  0.034205  -0.343864
    N   N7    0.982532  0.289116  0.965795  -0.343854
    N   N8    0.017468  0.289116  0.034205  -0.343852
    C   C45   0.859621  0.888918  0.537324  -0.082728
    C   C46   0.140379  0.888918  0.462676  -0.082830
    C   C47   0.359621  0.388918  0.537324  -0.082667
    C   C48   0.640379  0.388918  0.462676  -0.082826
    C   C49   0.845885  0.910472  0.472503  -0.130993
    C   C50   0.154115  0.910472  0.527497  -0.130935
    C   C51   0.345885  0.410472  0.472503  -0.130993
    C   C52   0.654115  0.410472  0.527497  -0.130938
    H   H13   0.820874  0.940760  0.447786  0.068118
    H   H14   0.179126  0.940760  0.552214  0.068107
    H   H15   0.320874  0.440760  0.447786  0.068115
    H   H16   0.679126  0.440760  0.552214  0.068106
    H   H17   0.844415  0.900068  0.566009  0.061799
    H   H18   0.155585  0.900068  0.433991  0.061815
    H   H19   0.344415  0.400068  0.566009  0.061787
    H   H20   0.655585  0.400068  0.433991  0.061813
    C   C53   0.906321  0.905305  0.501982  0.360442
    C   C54   0.093679  0.905305  0.498018  0.360397
    C   C55   0.406321  0.405305  0.501982  0.360403
    C   C56   0.593679  0.405305  0.498018  0.360425
    C   C57   0.920921  0.884476  0.567139  -0.210898
    C   C58   0.079080  0.884476  0.432861  -0.210805
    C   C59   0.420921  0.384476  0.567139  -0.210922
    C   C60   0.579080  0.384476  0.432861  -0.210811
    C   C61   0.906985  0.840817  0.531297  0.449041
    C   C62   0.093015  0.840817  0.468703  0.448923
    C   C63   0.406985  0.340817  0.531297  0.449125
    C   C64   0.593015  0.340817  0.468703  0.448922
    C   C65   0.894110  0.861275  0.467075  -0.184245
    C   C66   0.105890  0.861275  0.532925  -0.184194
    C   C67   0.394110  0.361275  0.467075  -0.184272
    C   C68   0.605890  0.361275  0.532925  -0.184197
    C   C69   0.833062  0.865899  0.437656  -0.141430
    C   C70   0.166938  0.865899  0.562344  -0.141520
    C   C71   0.333062  0.365899  0.437656  -0.141385
    C   C72   0.666938  0.365899  0.562344  -0.141527
    C   C73   0.847124  0.844744  0.502356  0.257485
    C   C74   0.152876  0.844744  0.497644  0.257695
    C   C75   0.347124  0.344744  0.502356  0.257341
    C   C76   0.652876  0.344744  0.497644  0.257696
    H   H21   0.958224  0.891806  0.620939  0.081813
    H   H22   0.041776  0.891806  0.379061  0.081793
    H   H23   0.458224  0.391806  0.620939  0.081818
    H   H24   0.541776  0.391806  0.379061  0.081796
    H   H25   0.909991  0.849833  0.439287  0.054344
    H   H26   0.090010  0.849833  0.560713  0.054343
    H   H27   0.409991  0.349833  0.439287  0.054350
    H   H28   0.590010  0.349833  0.560713  0.054346
    H   H29   0.795940  0.857914  0.384036  0.056742
    H   H30   0.204060  0.857914  0.615964  0.056762
    H   H31   0.295940  0.357914  0.384036  0.056737
    H   H32   0.704060  0.357914  0.615964  0.056764
    C   C77   0.837184  0.764433  0.747686  -0.193906
    C   C78   0.162816  0.764433  0.252314  -0.193859
    C   C79   0.337184  0.264433  0.747686  -0.193872
    C   C80   0.662816  0.264433  0.252314  -0.193860
    H   H33   0.794980  0.776427  0.720693  0.117894
    H   H34   0.205020  0.776427  0.279307  0.117894
    H   H35   0.294980  0.276427  0.720693  0.117894
    H   H36   0.705020  0.276427  0.279307  0.117892
    C   C81   0.872733  0.763658  0.819081  0.136506
    C   C82   0.127267  0.763658  0.180919  0.136342
    C   C83   0.372733  0.263658  0.819081  0.136368
    C   C84   0.627267  0.263658  0.180919  0.136369
    H   H37   0.857761  0.775592  0.846375  0.040902
    H   H38   0.142239  0.775592  0.153625  0.040948
    H   H39   0.357761  0.275592  0.846375  0.040944
    H   H40   0.642239  0.275592  0.153625  0.040941
    C   C85   0.927087  0.748910  0.854914  -0.520555
    C   C86   0.072913  0.748910  0.145086  -0.520171
    C   C87   0.427087  0.248910  0.854914  -0.520225
    C   C88   0.572913  0.248910  0.145086  -0.520223
    C   C89   0.945218  0.734217  0.818627  0.104924
    C   C90   0.054782  0.734217  0.181373  0.104756
    C   C91   0.445218  0.234217  0.818627  0.104739
    C   C92   0.554782  0.234217  0.181373  0.104737
    H   H41   0.987390  0.722177  0.845538  0.035521
    H   H42   0.012610  0.722177  0.154462  0.035556
    H   H43   0.487390  0.222177  0.845538  0.035550
    H   H44   0.512610  0.222177  0.154462  0.035549
    C   C93   0.909109  0.733681  0.747250  -0.180931
    C   C94   0.090891  0.733681  0.252750  -0.180884
    C   C95   0.409109  0.233681  0.747250  -0.180845
    C   C96   0.590891  0.233681  0.252750  -0.180840
    H   H45   0.924028  0.721717  0.719965  0.131294
    H   H46   0.075972  0.721717  0.280035  0.131312
    H   H47   0.424028  0.221717  0.719965  0.131292
    H   H48   0.575972  0.221717  0.280035  0.131303
    C   C97   0.855083  0.749159  0.711420  0.109209
    C   C98   0.144917  0.749159  0.288580  0.109112
    C   C99   0.355083  0.249159  0.711420  0.109133
    C   C100  0.644917  0.249159  0.288580  0.109092
    N   N9    0.020925  0.748733  0.965523  -0.344706
    N   N10   0.979075  0.748733  0.034477  -0.344649
    N   N11   0.520925  0.248733  0.965523  -0.344613
    N   N12   0.479075  0.248733  0.034477  -0.344616
    N   N13   0.055330  0.748992  0.033973  -0.393661
    N   N14   0.944670  0.748992  0.966027  -0.393701
    N   N15   0.555330  0.248992  0.033973  -0.393716
    N   N16   0.444670  0.248992  0.966027  -0.393714
    C   C101  0.034793  0.748866  0.069223  0.984294
    C   C102  0.965207  0.748866  0.930777  0.984621
    C   C103  0.534793  0.248866  0.069223  0.984383
    C   C104  0.465207  0.248866  0.930777  0.984379
    C   C105  0.594509  0.644568  0.436829  -0.102730
    C   C106  0.405491  0.644568  0.563171  -0.102795
    C   C107  0.094509  0.144568  0.436829  -0.102772
    C   C108  0.905491  0.144568  0.563171  -0.102785
    C   C109  0.579412  0.643656  0.485369  -0.128929
    C   C110  0.420588  0.643656  0.514631  -0.129025
    C   C111  0.079412  0.143656  0.485369  -0.128929
    C   C112  0.920588  0.143656  0.514631  -0.129025
    H   H49   0.541332  0.658021  0.474868  0.061881
    H   H50   0.458668  0.658021  0.525132  0.061898
    H   H51   0.041332  0.158021  0.474868  0.061881
    H   H52   0.958668  0.158021  0.525132  0.061899
    H   H53   0.570715  0.661371  0.385980  0.055129
    H   H54   0.429285  0.661371  0.614020  0.055142
    H   H55   0.070715  0.161371  0.385980  0.055138
    H   H56   0.929285  0.161371  0.614020  0.055142
    C   C113  0.594526  0.595720  0.498329  0.396483
    C   C114  0.405474  0.595720  0.501671  0.396669
    C   C115  0.094526  0.095720  0.498329  0.396496
    C   C116  0.905474  0.095720  0.501671  0.396628
    C   C117  0.609040  0.596007  0.449780  -0.171202
    C   C118  0.390960  0.596007  0.550220  -0.171264
    C   C119  0.109040  0.096007  0.449780  -0.171195
    C   C120  0.890960  0.096007  0.550220  -0.171270
    C   C121  0.669163  0.607035  0.510758  -0.101831
    C   C122  0.330837  0.607035  0.489242  -0.101951
    C   C123  0.169163  0.107035  0.510758  -0.101859
    C   C124  0.830837  0.107035  0.489242  -0.101929
    C   C125  0.654091  0.606180  0.559338  -0.132026
    C   C126  0.345909  0.606180  0.440662  -0.132040
    C   C127  0.154091  0.106180  0.559338  -0.132025
    C   C128  0.845909  0.106180  0.440662  -0.132035
    C   C129  0.639566  0.654644  0.546398  -0.146542
    C   C130  0.360434  0.654644  0.453602  -0.146645
    C   C131  0.139566  0.154644  0.546398  -0.146558
    C   C132  0.860434  0.154644  0.453602  -0.146636
    C   C133  0.654077  0.654972  0.497856  0.412607
    C   C134  0.345923  0.654972  0.502144  0.413121
    C   C135  0.154077  0.154972  0.497856  0.412711
    C   C136  0.845923  0.154972  0.502144  0.413105
    H   H57   0.595550  0.570873  0.409614  0.072692
    H   H58   0.404450  0.570873  0.590386  0.072704
    H   H59   0.095550  0.070873  0.409614  0.072693
    H   H60   0.904450  0.070873  0.590386  0.072708
    H   H61   0.707168  0.592396  0.521394  0.042150
    H   H62   0.292832  0.592396  0.478606  0.042166
    H   H63   0.207168  0.092396  0.521394  0.042156
    H   H64   0.792832  0.092396  0.478606  0.042163
    H   H65   0.678380  0.589600  0.610404  0.051958
    H   H66   0.321620  0.589600  0.389596  0.051966
    H   H67   0.178380  0.089600  0.610404  0.051958
    H   H68   0.821620  0.089600  0.389596  0.051956
    H   H69   0.653116  0.679794  0.586559  0.064338
    H   H70   0.346884  0.679794  0.413441  0.064361
    H   H71   0.153116  0.179794  0.586559  0.064340
    H   H72   0.846884  0.179794  0.413441  0.064360
    O   O33   0.421831  0.546170  0.440175  -0.698546
    O   O34   0.578170  0.546170  0.559825  -0.698510
    O   O35   0.921831  0.046170  0.440175  -0.698499
    O   O36   0.078170  0.046170  0.559825  -0.698504
    O   O37   0.485395  0.547850  0.559701  -0.738071
    O   O38   0.514605  0.547850  0.440299  -0.738073
    O   O39   0.985395  0.047850  0.559701  -0.738058
    O   O40   0.014605  0.047850  0.440299  -0.738065
    C   C137  0.439505  0.561397  0.500513  0.594321
    C   C138  0.560496  0.561397  0.499487  0.594390
    C   C139  0.939505  0.061397  0.500513  0.594315
    C   C140  0.060496  0.061397  0.499487  0.594366
    O   O41   0.922132  0.955165  0.440141  -0.697596
    O   O42   0.077868  0.955165  0.559859  -0.697592
    O   O43   0.422132  0.455165  0.440141  -0.697579
    O   O44   0.577868  0.455165  0.559859  -0.697585
    O   O45   0.985226  0.953996  0.559754  -0.711071
    O   O46   0.014774  0.953996  0.440246  -0.711063
    O   O47   0.485226  0.453996  0.559754  -0.711065
    O   O48   0.514774  0.453996  0.440246  -0.711068
    C   C141  0.939635  0.940172  0.500564  0.570633
    C   C142  0.060365  0.940172  0.499436  0.570620
    C   C143  0.439635  0.440172  0.500564  0.570655
    C   C144  0.560365  0.440172  0.499436  0.570598
    Zn  Zn9   0.959735  0.000820  0.421537  1.346590
    Zn  Zn10  0.040265  0.000820  0.578463  1.346597
    Zn  Zn11  0.459735  0.500820  0.421537  1.346601
    Zn  Zn12  0.540265  0.500820  0.578463  1.346594
    N   N17   0.643894  0.831373  0.287643  -0.730933
    C   C145  0.606253  0.853362  0.289307  0.908627
    O   O49   0.556882  0.843298  0.250429  -0.595159
    C   C146  0.625360  0.889569  0.340065  -0.584515
    H   H73   0.685011  0.834632  0.330919  0.342439
    H   H74   0.655730  0.876636  0.393440  0.140566
    H   H75   0.588838  0.903654  0.333779  0.157846
    H   H76   0.645695  0.915407  0.330792  0.139866
    N   N18   0.356106  0.831373  0.712357  -0.730928
    C   C147  0.393747  0.853362  0.710693  0.908614
    O   O50   0.443118  0.843298  0.749571  -0.595163
    C   C148  0.374640  0.889569  0.659935  -0.584480
    H   H77   0.314989  0.834632  0.669081  0.342413
    H   H78   0.344270  0.876636  0.606560  0.140552
    H   H79   0.411162  0.903654  0.666221  0.157840
    H   H80   0.354305  0.915407  0.669208  0.139861
    N   N19   0.143894  0.331373  0.287643  -0.730965
    C   C149  0.106253  0.353362  0.289307  0.908638
    O   O51   0.056882  0.343298  0.250429  -0.595165
    C   C150  0.125360  0.389569  0.340065  -0.584516
    H   H81   0.185011  0.334632  0.330919  0.342428
    H   H82   0.155730  0.376636  0.393440  0.140570
    H   H83   0.088838  0.403654  0.333779  0.157843
    H   H84   0.145695  0.415407  0.330792  0.139869
    N   N20   0.856106  0.331373  0.712357  -0.730933
    C   C151  0.893747  0.353362  0.710693  0.908615
    O   O52   0.943118  0.343298  0.749571  -0.595163
    C   C152  0.874640  0.389569  0.659935  -0.584484
    H   H85   0.814989  0.334632  0.669081  0.342415
    H   H86   0.844270  0.376636  0.606560  0.140553
    H   H87   0.911162  0.403654  0.666221  0.157840
    H   H88   0.854305  0.415407  0.669208  0.139864
    N   N21   0.940768  0.801929  0.562142  -0.844796
    C   C153  0.950496  0.785606  0.619804  0.875355
    O   O53   0.933270  0.804691  0.646865  -0.573553
    C   C154  0.981953  0.743727  0.650461  -0.525909
    H   H89   0.954467  0.785548  0.538542  0.358718
    H   H90   0.996879  0.731626  0.621904  0.095316
    H   H91   0.954004  0.718759  0.647386  0.168374
    H   H92   0.018391  0.749193  0.705453  0.140170
    N   N22   0.059232  0.801929  0.437858  -0.844877
    C   C155  0.049504  0.785606  0.380196  0.875468
    O   O54   0.066730  0.804691  0.353135  -0.573574
    C   C156  0.018047  0.743727  0.349539  -0.526042
    H   H93   0.045533  0.785548  0.461458  0.358777
    H   H94   0.003121  0.731626  0.378096  0.095364
    H   H95   0.045996  0.718759  0.352614  0.168392
    H   H96   0.981609  0.749193  0.294547  0.140185
    N   N23   0.440768  0.301929  0.562142  -0.844819
    C   C157  0.450496  0.285606  0.619804  0.875362
    O   O55   0.433270  0.304691  0.646865  -0.573566
    C   C158  0.481953  0.243727  0.650461  -0.525894
    H   H97   0.454467  0.285548  0.538542  0.358719
    H   H98   0.496879  0.231626  0.621904  0.095313
    H   H99   0.454004  0.218759  0.647386  0.168367
    H   H100  0.518391  0.249193  0.705453  0.140168
    N   N24   0.559232  0.301929  0.437858  -0.844881
    C   C159  0.549504  0.285606  0.380196  0.875478
    O   O56   0.566730  0.304691  0.353135  -0.573583
    C   C160  0.518047  0.243727  0.349539  -0.526041
    H   H101  0.545533  0.285548  0.461458  0.358777
    H   H102  0.503121  0.231626  0.378096  0.095362
    H   H103  0.545996  0.218759  0.352614  0.168392
    H   H104  0.481609  0.249193  0.294547  0.140186
