# Generated by REPEAT Assigner based on pymatgen
data_DB0-m2_o17_o22_f0_pcu.sym.89_sqe
_audit_creation_date              2022-05-24
_audit_creation_method            REPEAT_Assigner
_cell_length_a                    15.001824
_cell_length_b                    13.591148
_cell_length_c                    10.679087
_cell_angle_alpha                 90.000000
_cell_angle_beta                  89.997204
_cell_angle_gamma                 90.000000
_cell_volume                      2177.380378
_symmetry_space_group_name_H-M    P1
_symmetry_Int_Tables_number       1
loop_
    _symmetry_equiv_pos_site_id
    _symmetry_equiv_pos_as_xyz
    1  x,y,z
loop_
    _atom_site_type_symbol
    _atom_site_label
    _atom_site_fract_x
    _atom_site_fract_y
    _atom_site_fract_z
    _atom_type_partial_charge
    O   O1   0.374317  0.584901  0.506596  -0.605680
    O   O2   0.374334  0.415278  0.496801  -0.617618
    C   C1   0.332512  0.500042  0.503049  0.770520
    O   O3   0.500104  0.585455  0.319175  -0.637967
    O   O4   0.499588  0.416671  0.317368  -0.622391
    C   C2   0.501185  0.501418  0.259259  0.486383
    Cu  Cu1  0.504059  0.598605  0.501844  0.959949
    Cu  Cu2  0.503418  0.401388  0.497671  0.951285
    O   O5   0.633399  0.584379  0.505574  -0.548977
    O   O6   0.633432  0.415732  0.493744  -0.585083
    O   O7   0.501265  0.583689  0.683091  -0.604307
    O   O8   0.502149  0.414230  0.681320  -0.619207
    C   C3   0.675435  0.500068  0.501791  0.618157
    C   C4   0.503065  0.498673  0.740890  0.497325
    C   C5   0.464579  0.598348  0.068406  -0.102202
    C   C6   0.440125  0.419501  0.071558  -0.001495
    H   H1   0.501028  0.661694  0.107429  0.000320
    H   H2   0.468736  0.347103  0.096991  -0.026381
    H   H3   0.392826  0.605693  0.091698  0.015391
    H   H4   0.372762  0.426374  0.113490  0.011353
    C   C7   0.476488  0.600741  0.927853  -0.069350
    C   C8   0.432875  0.425502  0.930107  -0.164480
    H   H5   0.413212  0.625864  0.884574  0.026636
    H   H6   0.364899  0.450072  0.903707  0.019541
    H   H7   0.530511  0.653521  0.904869  0.006422
    H   H8   0.444825  0.351015  0.891114  0.046641
    H   H9   0.636158  0.549612  0.095091  0.011800
    H   H10  0.622740  0.418723  0.115149  0.011262
    H   H11  0.643688  0.519543  0.886890  -0.009410
    H   H12  0.607723  0.393811  0.907252  -0.021630
    C   C9   0.594034  0.485245  0.071094  -0.132898
    C   C10  0.499973  0.501507  0.118985  0.355407
    C   C11  0.501080  0.498721  0.880915  0.310641
    C   C12  0.592489  0.471589  0.930401  0.038532
    C   C13  0.820423  0.414437  0.486834  -0.198336
    C   C14  0.773439  0.500128  0.507920  -0.063298
    C   C15  0.819953  0.585262  0.536141  -0.132209
    C   C16  0.912140  0.585090  0.537711  0.093790
    C   C17  0.958204  0.499777  0.511687  0.040472
    C   C18  0.912196  0.414359  0.486995  0.108022
    C   C19  0.958422  0.670359  0.564233  -0.140707
    C   C20  0.050360  0.670371  0.562850  -0.268090
    C   C21  0.096388  0.585013  0.535754  0.228567
    C   C22  0.050189  0.499599  0.510759  -0.057742
    C   C23  0.096003  0.414069  0.484640  0.208170
    C   C24  0.049657  0.328563  0.459670  -0.274929
    C   C25  0.957870  0.328633  0.461389  -0.128996
    C   C26  0.188398  0.585266  0.533491  -0.222658
    C   C27  0.234641  0.499821  0.506563  -0.100322
    C   C28  0.188013  0.414013  0.483342  -0.187987
    H   H13  0.785847  0.347176  0.468832  0.152415
    H   H14  0.784875  0.652292  0.558515  0.127580
    H   H15  0.922908  0.737578  0.585268  0.115982
    H   H16  0.085885  0.737798  0.582587  0.140407
    H   H17  0.223752  0.652498  0.554052  0.115780
    H   H18  0.222965  0.346350  0.462640  0.105322
    H   H19  0.084772  0.261206  0.438393  0.142122
    H   H20  0.922008  0.261302  0.441795  0.114922
    C   C29  0.456809  0.796380  0.589843  -0.118058
    C   C30  0.457360  0.204326  0.585735  -0.094934
    N   N1   0.503967  0.746075  0.503000  -0.134150
    N   N2   0.504089  0.253825  0.498153  -0.099879
    C   C31  0.546858  0.795572  0.410435  0.262711
    C   C32  0.544866  0.203208  0.403870  0.201259
    C   C33  0.538697  0.897165  0.400302  -0.029107
    C   C34  0.536932  0.101216  0.396382  0.003581
    C   C35  0.495440  0.948956  0.492527  0.080060
    C   C36  0.495249  0.050733  0.491134  0.087831
    C   C37  0.455129  0.898427  0.588594  0.096360
    C   C38  0.455277  0.102479  0.586159  0.076693
    C   C39  0.574066  0.947828  0.299339  -0.136745
    C   C40  0.571522  0.048714  0.296298  -0.164139
    C   C41  0.412851  0.052123  0.681241  -0.171179
    C   C42  0.412706  0.950396  0.682536  -0.180865
    H   H21  0.422943  0.757094  0.664012  0.160784
    H   H22  0.423325  0.244079  0.659081  0.140884
    H   H23  0.604620  0.910848  0.220751  0.105016
    H   H24  0.599226  0.084595  0.214910  0.097019
    H   H25  0.380889  0.092216  0.756165  0.125618
    H   H26  0.380643  0.912053  0.758876  0.122350
    N   N3   0.606135  0.744820  0.330509  -0.471693
    C   C43  0.692997  0.763999  0.352830  0.782517
    O   O9   0.715637  0.800463  0.452125  -0.546332
    C   C44  0.761634  0.741868  0.255992  -0.523781
    H   H27  0.590078  0.741746  0.237178  0.286010
    H   H28  0.760510  0.662225  0.233004  0.131020
    H   H29  0.828108  0.761537  0.293823  0.140362
    H   H30  0.748696  0.785809  0.170279  0.123499
    N   N4   0.599372  0.253551  0.316919  -0.434134
    C   C45  0.686694  0.229335  0.322397  0.796708
    O   O10  0.716363  0.187640  0.414538  -0.554517
    C   C46  0.747070  0.250755  0.214700  -0.519721
    H   H31  0.574664  0.260522  0.227521  0.282255
    H   H32  0.751300  0.331334  0.199901  0.121032
    H   H33  0.722145  0.214569  0.128339  0.131373
    H   H34  0.814551  0.222163  0.236417  0.137522
