# Generated by REPEAT Assigner based on pymatgen
data_DB0-m3_o4_o15_f0_nbo.sym.118_sqe
_audit_creation_date              2022-05-24
_audit_creation_method            REPEAT_Assigner
_cell_length_a                    19.042955
_cell_length_b                    18.964634
_cell_length_c                    18.955419
_cell_angle_alpha                 109.394572
_cell_angle_beta                  109.565183
_cell_angle_gamma                 109.553538
_cell_volume                      5263.253041
_symmetry_space_group_name_H-M    P1
_symmetry_Int_Tables_number       1
loop_
    _symmetry_equiv_pos_site_id
    _symmetry_equiv_pos_as_xyz
    1  x,y,z
loop_
    _atom_site_type_symbol
    _atom_site_label
    _atom_site_fract_x
    _atom_site_fract_y
    _atom_site_fract_z
    _atom_type_partial_charge
    O   O1   0.393177  0.354624  0.437359  -0.680441
    O   O2   0.389921  0.459696  0.539131  -0.578608
    C   C1   0.364554  0.378703  0.490014  0.602099
    O   O3   0.575118  0.446327  0.521635  -0.681476
    O   O4   0.570994  0.548635  0.625490  -0.668811
    C   C2   0.602141  0.498233  0.602679  0.685046
    Zn  Zn1  0.479918  0.426088  0.414686  1.286672
    Zn  Zn2  0.479585  0.564916  0.551404  1.261772
    O   O5   0.570505  0.531343  0.427785  -0.671259
    O   O6   0.565093  0.636464  0.527744  -0.689248
    O   O7   0.389380  0.443046  0.340427  -0.703427
    O   O8   0.383603  0.543971  0.444517  -0.683950
    C   C3   0.594894  0.612221  0.476542  0.733323
    C   C4   0.357797  0.492574  0.363724  0.736697
    H   H1   0.521603  0.203895  0.538373  0.097625
    C   C5   0.756140  0.654312  0.744755  -0.144839
    C   C6   0.823333  0.730816  0.817365  -0.101480
    C   C7   0.876153  0.730090  0.886724  -0.054274
    C   C8   0.865336  0.652829  0.881538  -0.271642
    C   C9   0.800515  0.574713  0.806592  0.181236
    C   C10  0.741160  0.575463  0.740375  0.084809
    C   C11  0.794475  0.496522  0.797524  -0.215270
    C   C12  0.725245  0.419046  0.724531  0.177469
    C   C13  0.659441  0.419668  0.664701  0.113111
    C   C14  0.668557  0.497939  0.670565  -0.172979
    C   C15  0.721021  0.340318  0.709835  -0.260678
    C   C16  0.648820  0.263673  0.642532  -0.070849
    C   C17  0.579669  0.264156  0.589435  -0.112626
    C   C18  0.584774  0.341282  0.599931  -0.152716
    H   H2   0.717537  0.659074  0.691985  0.147752
    H   H3   0.833547  0.791569  0.820319  0.090530
    H   H4   0.927411  0.790266  0.944870  0.085649
    H   H5   0.908445  0.656371  0.938376  0.176671
    H   H6   0.773538  0.335701  0.748844  0.177038
    H   H7   0.645929  0.203032  0.632649  0.095522
    H   H8   0.527597  0.337288  0.557224  0.156694
    C   C19  0.237012  0.235136  0.418346  0.078921
    C   C20  0.300063  0.311909  0.492608  -0.029715
    C   C21  0.297649  0.321860  0.568232  -0.066839
    C   C22  0.234299  0.255318  0.565670  -0.145701
    H   H9   0.233355  0.263947  0.624588  0.124170
    C   C23  0.170194  0.180532  0.488096  -0.121661
    C   C24  0.174354  0.174320  0.415755  0.103775
    C   C25  0.129903  0.116695  0.320989  -0.183561
    C   C26  0.203258  0.188580  0.323875  -0.098445
    H   H10  0.132667  0.056197  0.303967  0.084658
    H   H11  0.065871  0.109724  0.286893  0.080633
    H   H12  0.246622  0.168026  0.307923  0.058998
    H   H13  0.180171  0.222037  0.291788  0.060900
    C   C27  0.299892  0.502081  0.231783  0.112603
    C   C28  0.290240  0.490153  0.296085  -0.100641
    C   C29  0.213085  0.475629  0.293957  -0.134797
    H   H14  0.201929  0.465072  0.342784  0.142149
    C   C30  0.148600  0.471759  0.227513  -0.220880
    H   H15  0.088220  0.458673  0.225870  0.198430
    C   C31  0.162389  0.487110  0.165345  -0.104793
    C   C32  0.240397  0.503029  0.171224  0.145562
    C   C33  0.291734  0.521448  0.129020  -0.210889
    C   C34  0.362019  0.520947  0.200757  -0.108245
    H   H16  0.262731  0.466547  0.063450  0.089635
    H   H17  0.311168  0.586213  0.135249  0.087395
    H   H18  0.372575  0.466031  0.175242  0.063999
    H   H19  0.420481  0.585543  0.247319  0.056512
    C   C35  0.737157  0.684604  0.491289  0.141398
    C   C36  0.658979  0.678455  0.473937  -0.111121
    C   C37  0.643744  0.737525  0.453183  -0.178290
    H   H20  0.582709  0.735093  0.438311  0.162882
    C   C38  0.706074  0.798933  0.449476  -0.178814
    H   H21  0.693025  0.844280  0.433004  0.145816
    C   C39  0.785570  0.804114  0.470261  -0.032616
    C   C40  0.797803  0.745262  0.491780  0.062144
    C   C41  0.861777  0.717802  0.518692  -0.130555
    C   C42  0.790347  0.646661  0.518522  -0.119529
    H   H22  0.876256  0.691158  0.467259  0.054239
    H   H23  0.917831  0.766809  0.584330  0.072704
    H   H24  0.765124  0.580332  0.467179  0.065654
    H   H25  0.806344  0.656305  0.584117  0.048422
    O   O9   0.925763  0.348580  0.891472  -0.695035
    O   O10  0.026707  0.450481  0.883872  -0.661537
    C   C43  0.974606  0.370254  0.858539  0.701757
    O   O11  0.838245  0.446041  0.895811  -0.687879
    O   O12  0.942427  0.544242  0.888255  -0.650345
    C   C44  0.861661  0.495801  0.864040  0.709763
    Zn  Zn3  0.910283  0.423980  0.982866  1.278319
    Zn  Zn4  0.048007  0.558150  0.979077  1.268394
    O   O13  0.931353  0.531706  0.077887  -0.618282
    O   O14  0.032692  0.633421  0.070656  -0.673797
    O   O15  0.015775  0.438012  0.073837  -0.708499
    O   O16  0.120195  0.536060  0.066045  -0.694795
    C   C45  0.983690  0.612011  0.103474  0.597504
    C   C46  0.096286  0.486386  0.097675  0.755810
    O   O17  0.023267  0.077856  0.623044  -0.673145
    O   O18  0.929156  0.085818  0.515306  -0.701118
    C   C47  0.975127  0.109832  0.596884  0.709067
    O   O19  0.120213  0.084985  0.538136  -0.681069
    O   O20  0.021156  0.083720  0.425854  -0.661158
    C   C48  0.100458  0.112984  0.483746  0.741319
    Zn  Zn5  0.043101  0.990197  0.548927  1.277573
    Zn  Zn6  0.912000  0.993958  0.407865  1.289219
    O   O21  0.027606  0.899829  0.441609  -0.699791
    O   O22  0.930114  0.904694  0.333517  -0.692301
    O   O23  0.934031  0.898662  0.529197  -0.658403
    O   O24  0.834730  0.900721  0.420229  -0.684483
    C   C49  0.979991  0.874434  0.359925  0.700433
    C   C50  0.854640  0.870930  0.472981  0.685341
    C   C51  0.970958  0.231364  0.792745  0.140751
    C   C52  0.970435  0.302199  0.789285  -0.076219
    C   C53  0.969883  0.308598  0.718251  -0.192891
    H   H26  0.969324  0.363089  0.712086  0.152581
    C   C54  0.968499  0.244442  0.653658  -0.178735
    H   H27  0.967432  0.250369  0.598579  0.153606
    C   C55  0.972541  0.175610  0.661775  -0.050101
    C   C56  0.974440  0.172847  0.733741  0.087333
    C   C57  0.978727  0.121783  0.778073  -0.152196
    C   C58  0.975486  0.191135  0.847910  -0.146721
    H   H28  0.920006  0.057180  0.740859  0.074313
    H   H29  0.041381  0.123647  0.802289  0.078309
    H   H30  0.915212  0.165213  0.850148  0.067935
    H   H31  0.036566  0.232023  0.910841  0.072103
    C   C59  0.952638  0.665370  0.221356  -0.039316
    C   C60  0.986462  0.680881  0.170884  0.050914
    C   C61  0.020830  0.764811  0.184970  -0.183169
    H   H32  0.047886  0.781150  0.147033  0.155494
    C   C62  0.018341  0.828461  0.246167  -0.229559
    H   H33  0.044372  0.893087  0.255628  0.153031
    C   C63  0.983125  0.809420  0.295175  0.045517
    C   C64  0.951183  0.726501  0.279858  0.040007
    C   C65  0.904227  0.668748  0.304737  -0.033824
    C   C66  0.905851  0.596521  0.236262  0.020867
    H   H34  0.944016  0.685895  0.372296  0.037101
    H   H35  0.838558  0.659202  0.285679  0.037051
    H   H36  0.841136  0.547821  0.179168  0.059750
    C   C67  0.959599  0.563862  0.278106  0.004755
    C   C68  0.921833  0.479651  0.263091  0.247195
    C   C69  0.827938  0.417042  0.201507  -0.374562
    C   C70  0.971331  0.453029  0.307149  -0.312813
    C   C71  0.057635  0.509190  0.366088  -0.067212
    C   C72  0.095500  0.592072  0.380555  -0.166708
    C   C73  0.047019  0.619457  0.337094  -0.087259
    H   H37  0.789568  0.442909  0.222091  0.092001
    H   H38  0.810440  0.354592  0.200354  0.103964
    H   H39  0.812340  0.405030  0.135297  0.095401
    H   H40  0.942746  0.388004  0.296390  0.146313
    H   H41  0.095749  0.487965  0.400546  0.101173
    H   H42  0.163371  0.636099  0.426713  0.109798
    H   H43  0.078820  0.685697  0.351931  0.092287
    C   C74  0.359846  0.401162  0.651755  0.149712
    C   C75  0.431506  0.408126  0.712424  0.188624
    C   C76  0.452363  0.337119  0.695195  -0.291781
    C   C77  0.484945  0.482274  0.792501  -0.216299
    C   C78  0.467728  0.549069  0.812411  -0.131817
    C   C79  0.396071  0.541641  0.752719  -0.128177
    C   C80  0.341898  0.467545  0.673055  -0.194438
    H   H44  0.419185  0.289988  0.625403  0.065880
    H   H45  0.434239  0.303195  0.729340  0.070343
    H   H46  0.522710  0.365622  0.720797  0.097993
    H   H47  0.540694  0.488113  0.840184  0.118132
    H   H48  0.510020  0.606937  0.875194  0.111564
    H   H49  0.381925  0.593579  0.768600  0.106280
    H   H50  0.284936  0.461331  0.626777  0.113209
