# Generated by REPEAT Assigner based on pymatgen
data_DB0-m3_o25_o81_f0_fsc.sym.14_sqe
_audit_creation_date              2022-05-24
_audit_creation_method            REPEAT_Assigner
_cell_length_a                    6.590429
_cell_length_b                    14.733085
_cell_length_c                    14.283853
_cell_angle_alpha                 90.207234
_cell_angle_beta                  90.685413
_cell_angle_gamma                 98.012934
_cell_volume                      1373.265304
_symmetry_space_group_name_H-M    P1
_symmetry_Int_Tables_number       1
loop_
    _symmetry_equiv_pos_site_id
    _symmetry_equiv_pos_as_xyz
    1  x,y,z
loop_
    _atom_site_type_symbol
    _atom_site_label
    _atom_site_fract_x
    _atom_site_fract_y
    _atom_site_fract_z
    _atom_type_partial_charge
    C   C1   0.907684  0.104698  0.993279  0.020256
    C   C2   0.035683  0.186207  0.009161  0.243152
    C   C3   0.238700  0.185228  0.032431  -0.324235
    C   C4   0.315412  0.103244  0.039900  -0.289573
    C   C5   0.189204  0.021690  0.024410  0.328457
    C   C6   0.984514  0.021750  0.001885  0.000139
    C   C7   0.268789  0.940031  0.031750  -0.481638
    C   C8   0.143900  0.857819  0.017871  0.267238
    C   C9   0.939906  0.857496  0.997114  0.153536
    C   C10  0.860080  0.938617  0.989079  -0.331562
    C   C11  0.222292  0.775949  0.024252  -0.263269
    C   C12  0.096065  0.693561  0.011395  -0.077958
    C   C13  0.889639  0.693614  0.992972  -0.107344
    C   C14  0.813169  0.775704  0.985375  -0.225545
    C   C15  0.706083  0.107853  0.966971  -0.124834
    C   C16  0.632719  0.190534  0.961548  -0.261054
    C   C17  0.758578  0.271182  0.980563  0.029872
    C   C18  0.963040  0.269501  0.001052  -0.275804
    H   H1   0.337303  0.249099  0.045739  0.244454
    H   H2   0.474623  0.102890  0.058671  0.175220
    H   H3   0.384120  0.776290  0.037722  0.154160
    H   H4   0.651369  0.775819  0.972187  0.136066
    H   H5   0.699031  0.934159  0.973602  0.159202
    H   H6   0.429243  0.940605  0.048690  0.173967
    H   H7   0.600979  0.047205  0.950598  0.116259
    H   H8   0.473768  0.191917  0.943139  0.183499
    O   O1   0.178469  0.384379  0.919213  -0.745910
    O   O2   0.194986  0.383831  0.080633  -0.737493
    C   C19  0.111425  0.353122  0.000811  0.913264
    O   O3   0.614904  0.381733  0.069738  -0.749311
    O   O4   0.599915  0.388044  0.908335  -0.727864
    C   C20  0.664560  0.354713  0.986366  0.833272
    O   O5   0.675377  0.579128  0.074438  -0.725226
    O   O6   0.658904  0.579711  0.912880  -0.739326
    C   C21  0.743001  0.609875  0.992902  0.913125
    O   O7   0.239289  0.582066  0.923706  -0.736199
    O   O8   0.254108  0.575855  0.085007  -0.713491
    C   C22  0.190472  0.609700  0.006802  0.867856
    Zn  Zn1  0.441324  0.479717  0.101076  1.087941
    Zn  Zn2  0.412369  0.483932  0.892434  1.117113
    C   C23  0.344001  0.554855  0.522424  -0.263373
    C   C24  0.540221  0.554525  0.468701  0.260357
    H   H9   0.278270  0.616465  0.545370  0.124860
    H   H10  0.766617  0.489169  0.566924  0.115254
    N   N1   0.457004  0.477676  0.223911  0.085444
    N   N2   0.396466  0.485951  0.769602  0.078571
    C   C25  0.240238  0.477726  0.459602  -0.155041
    C   C26  0.438076  0.478862  0.407016  0.703147
    C   C27  0.309624  0.406722  0.525529  -0.166604
    C   C28  0.413817  0.483659  0.586469  0.784424
    C   C29  0.507666  0.407874  0.471316  -0.164556
    C   C30  0.612127  0.484821  0.534166  -0.264905
    C   C31  0.450881  0.477987  0.304830  -0.315878
    C   C32  0.401984  0.485226  0.688674  -0.328870
    H   H11  0.574746  0.346724  0.448058  0.095916
    H   H12  0.212166  0.344853  0.551857  0.093449
    H   H13  0.086227  0.474071  0.426492  0.086625
    F   F1   0.661712  0.631734  0.436159  -0.249236
