# Generated by REPEAT Assigner based on pymatgen
data_DB0-m3_o8_o29_f0_pcu.sym.39
_audit_creation_date              2022-05-24
_audit_creation_method            REPEAT_Assigner
_cell_length_a                    16.058390
_cell_length_b                    17.115087
_cell_length_c                    27.634517
_cell_angle_alpha                 89.989781
_cell_angle_beta                  92.747508
_cell_angle_gamma                 89.112250
_cell_volume                      7585.446650
_symmetry_space_group_name_H-M    P1
_symmetry_Int_Tables_number       1
loop_
    _symmetry_equiv_pos_site_id
    _symmetry_equiv_pos_as_xyz
    1  x,y,z
loop_
    _atom_site_type_symbol
    _atom_site_label
    _atom_site_fract_x
    _atom_site_fract_y
    _atom_site_fract_z
    _atom_type_partial_charge
    O   O1   0.435562  0.611854  0.503826  -0.635265
    O   O2   0.585584  0.384087  0.497903  -0.714099
    O   O3   0.579656  0.616374  0.507157  -0.740371
    O   O4   0.442073  0.379734  0.493324  -0.668541
    C   C1   0.505643  0.650630  0.506363  0.833827
    C   C2   0.515829  0.345251  0.494566  0.869914
    O   O5   0.440880  0.485764  0.570371  -0.554726
    O   O6   0.580243  0.509209  0.430333  -0.704453
    O   O7   0.584617  0.492734  0.574335  -0.722070
    O   O8   0.436575  0.504371  0.426572  -0.718877
    C   C3   0.512756  0.486232  0.594961  0.727645
    C   C4   0.508021  0.510967  0.405831  0.888947
    Zn  Zn1  0.415499  0.495576  0.498062  0.974066
    Zn  Zn2  0.605834  0.500419  0.502744  1.093655
    C   C5   0.486056  0.562136  0.822302  0.456818
    C   C6   0.505592  0.446193  0.177573  0.462970
    O   O9   0.466051  0.626069  0.795724  -0.503408
    O   O10  0.505899  0.379801  0.203562  -0.502505
    N   N1   0.504620  0.494481  0.799981  -0.177621
    N   N2   0.503575  0.515712  0.200424  -0.197593
    C   C7   0.522271  0.429385  0.826203  0.440876
    C   C8   0.500663  0.582703  0.174686  0.434781
    C   C9   0.455581  0.440883  0.722285  -0.257648
    C   C10  0.442181  0.554990  0.275832  -0.297549
    C   C11  0.458865  0.435352  0.672531  -0.078008
    C   C12  0.443847  0.558385  0.325878  0.055294
    C   C13  0.560282  0.536162  0.674455  -0.028422
    C   C14  0.572140  0.485187  0.328579  -0.080846
    C   C15  0.558562  0.539454  0.724163  -0.255119
    C   C16  0.571266  0.484642  0.278783  -0.207089
    C   C17  0.506212  0.491693  0.748368  0.315565
    C   C18  0.505432  0.518122  0.252133  0.328896
    C   C19  0.502916  0.499718  0.899688  0.105441
    C   C20  0.502154  0.510439  0.100633  0.115022
    C   C21  0.485929  0.565700  0.872329  -0.124497
    C   C22  0.505845  0.442801  0.127574  -0.136093
    C   C23  0.467583  0.634819  0.895047  -0.035069
    C   C24  0.508510  0.371854  0.104421  -0.032200
    C   C25  0.520642  0.431057  0.876191  -0.107321
    C   C26  0.498912  0.580782  0.124581  -0.101299
    C   C27  0.512063  0.483570  0.648132  -0.022365
    C   C28  0.507767  0.519669  0.352769  -0.184200
    H   H1   0.597268  0.577735  0.656112  0.115640
    H   H2   0.623151  0.456244  0.348308  0.138955
    H   H3   0.598021  0.580224  0.743966  0.151258
    H   H4   0.622214  0.457016  0.260746  0.140442
    H   H5   0.452104  0.687255  0.874570  0.124134
    H   H6   0.509428  0.317644  0.124477  0.122030
    C   C29  0.494093  0.576466  0.023729  0.050636
    C   C30  0.515630  0.434345  0.976727  0.037598
    C   C31  0.509671  0.436366  0.027058  0.059593
    C   C32  0.488619  0.573074  0.973070  0.048645
    C   C33  0.501919  0.507754  0.050330  0.017160
    C   C34  0.502342  0.502383  0.949969  0.031038
    C   C35  0.492951  0.647159  0.048681  -0.185824
    C   C36  0.535673  0.365897  0.952331  -0.175918
    C   C37  0.495570  0.649083  0.098383  -0.043643
    C   C38  0.538281  0.364521  0.902787  -0.040704
    O   O11  0.501433  0.651701  0.197899  -0.511197
    O   O12  0.543395  0.362916  0.803650  -0.505090
    C   C39  0.469047  0.638695  0.944689  -0.181650
    C   C40  0.510561  0.368481  0.054889  -0.185313
    H   H7   0.391752  0.583200  0.254845  0.187833
    H   H8   0.413995  0.403740  0.741155  0.171480
    H   H9   0.494758  0.705305  0.116124  0.131897
    H   H10  0.554268  0.310091  0.885488  0.128629
    H   H11  0.493048  0.703197  0.031138  0.135807
    H   H12  0.552916  0.311984  0.970355  0.133523
    H   H13  0.451533  0.694355  0.959411  0.139123
    H   H14  0.510022  0.310704  0.039665  0.139777
    C   C41  0.500113  0.736385  0.505468  -0.224869
    C   C42  0.521484  0.259407  0.494776  -0.238556
    C   C43  0.570214  0.780828  0.500225  0.001706
    C   C44  0.451089  0.214477  0.497608  0.045906
    C   C45  0.564325  0.861376  0.498820  -0.205150
    C   C46  0.457295  0.133954  0.498591  -0.229287
    C   C47  0.487224  0.898352  0.501972  0.489958
    C   C48  0.534857  0.097326  0.497100  0.508204
    C   C49  0.417222  0.853768  0.505789  -0.385115
    C   C50  0.604990  0.142264  0.495207  -0.383123
    C   C51  0.423406  0.773508  0.507229  0.054549
    C   C52  0.598571  0.222561  0.494428  0.037605
    N   N3   0.477516  0.980634  0.500774  -0.225881
    N   N4   0.544769  0.015046  0.498193  -0.248185
    H   H15  0.390406  0.241433  0.500238  0.137403
    H   H16  0.630282  0.753270  0.496211  0.101837
    H   H17  0.400143  0.101901  0.500851  0.068345
    H   H18  0.621203  0.893189  0.494785  0.068014
    H   H19  0.356791  0.882056  0.507514  0.138059
    H   H20  0.665730  0.114248  0.494705  0.130673
    H   H21  0.367243  0.740468  0.509304  0.130823
    H   H22  0.654887  0.255813  0.494031  0.121656
    N   N5   0.731102  0.501495  0.504920  -0.125724
    N   N6   0.290307  0.494221  0.495552  -0.145729
    C   C53  0.779161  0.453640  0.477356  0.009387
    C   C54  0.241967  0.543595  0.521937  0.011075
    C   C55  0.864874  0.462794  0.477169  -0.153678
    C   C56  0.155671  0.539191  0.518471  -0.135645
    C   C57  0.903800  0.518691  0.505422  0.499533
    C   C58  0.116682  0.487034  0.487458  0.464963
    C   C59  0.856002  0.563779  0.534116  -0.319804
    C   C60  0.165132  0.440799  0.459756  -0.356115
    C   C61  0.771074  0.554204  0.534435  -0.021110
    C   C62  0.250728  0.444885  0.463500  0.092540
    N   N7   0.991421  0.527413  0.508524  -0.213013
    N   N8   0.028945  0.479533  0.483256  -0.176176
    H   H23  0.119757  0.576161  0.541411  0.041579
    H   H24  0.900335  0.426096  0.453846  0.031501
    H   H25  0.886080  0.604552  0.558900  0.120585
    H   H26  0.135760  0.400492  0.434386  0.141764
    C   C63  0.276528  0.605383  0.554112  0.662155
    O   O13  0.336987  0.592642  0.581156  -0.472448
    C   C64  0.233289  0.683050  0.557658  -0.483302
    H   H27  0.216155  0.705675  0.520845  0.087481
    H   H28  0.276016  0.724461  0.576655  0.143491
    H   H29  0.177011  0.678603  0.579132  0.164109
    C   C65  0.745320  0.387617  0.448530  0.607703
    O   O14  0.680396  0.394421  0.424551  -0.414630
    C   C66  0.792409  0.311758  0.445888  -0.460669
    H   H30  0.812614  0.292066  0.482910  0.118547
    H   H31  0.847021  0.317227  0.423161  0.149714
    H   H32  0.751007  0.267377  0.428737  0.139774
    C   C67  0.730676  0.593470  0.573986  0.888930
    O   O15  0.721991  0.557073  0.611191  -0.524395
    C   C68  0.727334  0.680383  0.575741  -0.476659
    H   H33  0.747909  0.704532  0.541152  0.105067
    H   H34  0.769571  0.700935  0.605850  0.125125
    H   H35  0.662820  0.700353  0.582182  0.131062
    C   C69  0.294579  0.395193  0.429654  0.832146
    O   O16  0.311719  0.327823  0.440734  -0.536485
    C   C70  0.291522  0.417010  0.377439  -0.622129
    H   H36  0.266477  0.477354  0.373179  0.143327
    H   H37  0.249895  0.376478  0.356863  0.167866
    H   H38  0.354816  0.412654  0.363265  0.184157
    C   C71  0.379125  0.606832  0.347797  0.635200
    O   O17  0.308120  0.606334  0.330099  -0.557404
    C   C72  0.400726  0.666543  0.385560  -0.351997
    H   H39  0.366582  0.654240  0.418548  0.074441
    H   H40  0.381244  0.725123  0.371659  0.115686
    H   H41  0.468802  0.666881  0.394218  0.050541
    C   C73  0.405622  0.377125  0.647909  0.706699
    O   O18  0.333331  0.371531  0.658904  -0.553281
    C   C74  0.440693  0.317680  0.614747  -0.417641
    H   H42  0.406889  0.322027  0.578987  0.098851
    H   H43  0.431600  0.258561  0.629838  0.117587
    H   H44  0.508304  0.326455  0.610967  0.068556
