# Generated by REPEAT Assigner based on pymatgen
data_DB0-m2_o4_o22_f0_nbo.sym.32
_audit_creation_date              2022-05-24
_audit_creation_method            REPEAT_Assigner
_cell_length_a                    18.258449
_cell_length_b                    18.879702
_cell_length_c                    18.887879
_cell_angle_alpha                 110.028030
_cell_angle_beta                  109.144155
_cell_angle_gamma                 108.526337
_cell_volume                      5055.198043
_symmetry_space_group_name_H-M    P1
_symmetry_Int_Tables_number       1
loop_
    _symmetry_equiv_pos_site_id
    _symmetry_equiv_pos_as_xyz
    1  x,y,z
loop_
    _atom_site_type_symbol
    _atom_site_label
    _atom_site_fract_x
    _atom_site_fract_y
    _atom_site_fract_z
    _atom_type_partial_charge
    O   O1   0.408897  0.344659  0.441902  -0.608038
    O   O2   0.396183  0.446032  0.541142  -0.598414
    C   C1   0.372888  0.366056  0.489889  0.809659
    O   O3   0.585960  0.434100  0.534222  -0.579471
    O   O4   0.578527  0.536762  0.636920  -0.576614
    C   C2   0.614177  0.488366  0.614882  0.437615
    Cu  Cu1  0.498965  0.428523  0.435841  0.982279
    Cu  Cu2  0.488474  0.545472  0.554576  0.985040
    O   O5   0.592776  0.528173  0.451105  -0.617383
    O   O6   0.576724  0.629032  0.546594  -0.661087
    O   O7   0.405979  0.434219  0.353347  -0.640399
    O   O8   0.394976  0.533462  0.456001  -0.588693
    C   C3   0.613956  0.607963  0.500037  0.796824
    C   C4   0.373727  0.485927  0.375702  0.778381
    C   C5   0.659198  0.396503  0.664570  -0.097099
    H   H1   0.645447  0.355748  0.598442  0.031121
    H   H2   0.599297  0.369041  0.670201  0.056930
    C   C6   0.735133  0.396022  0.728199  -0.170766
    H   H3   0.708278  0.356264  0.754399  0.043243
    H   H4   0.766402  0.367020  0.694461  0.073366
    H   H5   0.767989  0.487382  0.625850  -0.001857
    H   H6   0.884358  0.511529  0.740065  0.020851
    C   C7   0.771978  0.528730  0.686695  0.011960
    C   C8   0.693997  0.539596  0.771794  -0.102105
    C   C9   0.684080  0.488442  0.684032  0.299570
    H   H7   0.720523  0.608708  0.790684  0.017287
    H   H8   0.628990  0.515055  0.769616  0.029809
    C   C10  0.803435  0.487754  0.800164  0.214755
    C   C11  0.844770  0.537512  0.762717  -0.076607
    C   C12  0.757583  0.530222  0.838720  0.016716
    H   H9   0.720146  0.490062  0.858992  0.007400
    H   H10  0.807516  0.594754  0.895959  0.015479
    H   H11  0.787525  0.593301  0.693663  0.009747
    H   H12  0.888179  0.606672  0.812583  0.018360
    C   C13  0.308242  0.227966  0.487300  0.207120
    C   C14  0.302279  0.297822  0.485421  -0.269912
    C   C15  0.226713  0.302236  0.481716  -0.114044
    H   H13  0.218414  0.355849  0.479746  0.131239
    C   C16  0.160329  0.237120  0.478882  -0.089186
    H   H14  0.101783  0.241432  0.475614  0.122591
    C   C17  0.171164  0.169397  0.484499  -0.207895
    C   C18  0.247461  0.168606  0.489387  0.149537
    C   C19  0.295922  0.119303  0.496474  -0.155187
    C   C20  0.367844  0.189652  0.494760  -0.190813
    H   H15  0.318988  0.121331  0.559600  0.080853
    H   H16  0.260931  0.054945  0.437955  0.079475
    H   H17  0.430778  0.231200  0.557123  0.073661
    H   H18  0.373471  0.164582  0.435533  0.083242
    C   C21  0.310087  0.486334  0.238520  0.142097
    C   C22  0.303443  0.483181  0.307606  -0.166175
    C   C23  0.227399  0.479246  0.310808  -0.137631
    H   H19  0.218386  0.476258  0.363690  0.146230
    C   C24  0.161090  0.476842  0.244996  -0.109005
    H   H20  0.101959  0.472748  0.248212  0.145731
    C   C25  0.172334  0.483173  0.177747  -0.093830
    C   C26  0.249397  0.488929  0.178521  0.096569
    C   C27  0.298500  0.496502  0.130121  -0.252302
    C   C28  0.369976  0.494026  0.201128  -0.072314
    H   H21  0.263922  0.438337  0.065517  0.131005
    H   H22  0.321098  0.559413  0.132158  0.120467
    H   H23  0.379992  0.437297  0.177619  0.101204
    C   C29  0.756405  0.674641  0.503507  0.111060
    C   C30  0.681407  0.676486  0.501716  -0.120853
    C   C31  0.671547  0.745709  0.499532  -0.171818
    H   H24  0.613233  0.749999  0.497199  0.161057
    C   C32  0.734474  0.807919  0.496153  -0.064328
    H   H25  0.724645  0.860281  0.492277  0.114533
    C   C33  0.810123  0.803988  0.499513  -0.253129
    C   C34  0.818516  0.736226  0.504961  0.221031
    C   C35  0.875960  0.695548  0.506886  -0.142727
    C   C36  0.803173  0.623380  0.505903  -0.180405
    H   H26  0.880167  0.673056  0.446598  0.069831
    H   H27  0.939520  0.734098  0.568577  0.069054
    H   H28  0.767207  0.560582  0.445313  0.095073
    H   H29  0.825863  0.621880  0.567243  0.057216
    O   O9   0.931973  0.343044  0.902239  -0.641666
    O   O10  0.042072  0.442610  0.899652  -0.601007
    C   C37  0.990416  0.363285  0.876794  0.789126
    O   O11  0.845224  0.438338  0.900604  -0.579460
    O   O12  0.956635  0.539360  0.900467  -0.564079
    C   C38  0.872434  0.486397  0.868671  0.515252
    Cu  Cu3  0.924790  0.428131  0.990416  0.992776
    Cu  Cu4  0.053662  0.543277  0.988761  0.934224
    O   O13  0.930296  0.528735  0.073464  -0.608859
    O   O14  0.043541  0.628436  0.073788  -0.580835
    O   O15  0.021792  0.438423  0.084575  -0.619067
    O   O16  0.133140  0.536142  0.081560  -0.568274
    C   C39  0.989358  0.608147  0.103755  0.797113
    C   C40  0.105711  0.483996  0.109566  0.673745
    O   O17  0.052849  0.075172  0.634820  -0.594876
    O   O18  0.934581  0.071539  0.535953  -0.605025
    C   C41  0.994153  0.101097  0.615382  0.752250
    O   O19  0.134580  0.076499  0.540580  -0.590858
    O   O20  0.021225  0.073409  0.436522  -0.608357
    C   C42  0.105697  0.103256  0.487286  0.746915
    Cu  Cu5  0.056170  0.984614  0.548287  0.980159
    Cu  Cu6  0.925351  0.986627  0.433917  0.966367
    O   O21  0.046944  0.899732  0.446273  -0.628976
    O   O22  0.928680  0.896069  0.347353  -0.603792
    O   O23  0.960303  0.897855  0.545736  -0.634528
    O   O24  0.846977  0.894774  0.441650  -0.587301
    C   C43  0.987496  0.870276  0.366867  0.767689
    C   C44  0.875835  0.868188  0.495092  0.761545
    C   C45  0.916768  0.223501  0.743199  0.227929
    C   C46  0.992605  0.294498  0.813450  -0.268505
    C   C47  0.072455  0.300098  0.819981  -0.074721
    H   H30  0.134309  0.354797  0.874383  0.104686
    C   C48  0.073687  0.235146  0.757339  -0.117816
    H   H31  0.136469  0.240594  0.763406  0.131226
    C   C49  0.995006  0.166397  0.685265  -0.197872
    C   C50  0.917953  0.164190  0.681333  0.124271
    C   C51  0.820174  0.113920  0.626316  -0.149952
    C   C52  0.818868  0.184248  0.698902  -0.173918
    H   H32  0.797367  0.115221  0.564881  0.085729
    H   H33  0.792424  0.049814  0.621250  0.074572
    H   H34  0.795874  0.225031  0.677999  0.066657
    H   H35  0.789928  0.159440  0.734170  0.079285
    C   C53  0.913015  0.673308  0.167990  0.170584
    C   C54  0.989706  0.677760  0.168793  -0.257009
    C   C55  0.068429  0.750697  0.236062  -0.101376
    H   H36  0.130919  0.757195  0.240232  0.120830
    C   C56  0.067939  0.813713  0.301244  -0.080934
    H   H37  0.130070  0.868784  0.354801  0.121739
    C   C57  0.988505  0.806622  0.297300  -0.237173
    C   C58  0.912311  0.735488  0.227508  0.192306
    C   C59  0.814731  0.690476  0.190134  -0.201687
    C   C60  0.815446  0.617559  0.119554  -0.141204
    H   H38  0.794607  0.670755  0.232649  0.100234
    H   H39  0.783399  0.724354  0.164712  0.088693
    H   H40  0.795146  0.557119  0.122441  0.077424
    H   H41  0.785015  0.610949  0.054691  0.059368
    N   N1   0.451282  0.576046  0.256879  0.616887
    O   O25  0.449346  0.645765  0.298512  -0.371070
    O   O26  0.526992  0.578278  0.272025  -0.385570
