# Generated by REPEAT Assigner based on pymatgen
data_DB0-m3_o45_o159_f0_fsc.sym.86
_audit_creation_date              2022-05-24
_audit_creation_method            REPEAT_Assigner
_cell_length_a                    12.788754
_cell_length_b                    13.481553
_cell_length_c                    8.560253
_cell_angle_alpha                 90.000000
_cell_angle_beta                  93.298884
_cell_angle_gamma                 90.000000
_cell_volume                      1473.446847
_symmetry_space_group_name_H-M    P1
_symmetry_Int_Tables_number       1
loop_
    _symmetry_equiv_pos_site_id
    _symmetry_equiv_pos_as_xyz
    1  x,y,z
loop_
    _atom_site_type_symbol
    _atom_site_label
    _atom_site_fract_x
    _atom_site_fract_y
    _atom_site_fract_z
    _atom_type_partial_charge
    C   C1   0.701641  0.997995  0.155278  0.128277
    C   C2   0.808087  0.012461  0.169575  -0.393615
    H   H1   0.847214  0.020621  0.284176  0.174102
    C   C3   0.865705  0.010916  0.037957  0.497832
    C   C4   0.814533  0.006682  0.889822  -0.275125
    H   H2   0.856737  0.012696  0.784360  0.128292
    C   C5   0.706810  0.995247  0.877344  0.004589
    C   C6   0.653208  0.983756  0.010182  -0.342042
    N   N1   0.975950  0.014717  0.059006  -0.195477
    N   N2   0.020721  0.983999  0.943340  -0.273412
    C   C7   0.188818  0.988310  0.832974  -0.416789
    H   H3   0.149568  0.979760  0.718515  0.170637
    C   C8   0.295056  0.005190  0.846406  0.175845
    C   C9   0.343177  0.022072  0.991057  -0.402484
    C   C10  0.290782  0.007347  0.124294  0.129722
    C   C11  0.184028  0.990517  0.113342  -0.415906
    C   C12  0.131347  0.987766  0.965101  0.592658
    H   H4   0.570957  0.968052  0.999659  0.108117
    H   H5   0.424752  0.040756  0.000921  0.130668
    O   O1   0.600227  0.914976  0.338027  -0.753472
    O   O2   0.608030  0.087092  0.341873  -0.789618
    C   C13  0.637158  0.999973  0.289953  1.037532
    O   O3   0.392296  0.087992  0.328008  -0.716257
    O   O4   0.384601  0.917896  0.327430  -0.737726
    C   C14  0.353463  0.004476  0.272880  0.952702
    O   O5   0.396661  0.088126  0.663193  -0.749277
    O   O6   0.388992  0.915731  0.659593  -0.776590
    C   C15  0.359845  0.003038  0.711619  1.027836
    O   O7   0.604834  0.915150  0.674144  -0.745092
    O   O8   0.612362  0.084769  0.674984  -0.766896
    C   C16  0.644369  0.998342  0.728617  1.048653
    Zn  Zn1  0.502417  0.113708  0.502217  1.002483
    Zn  Zn2  0.495334  0.889244  0.499685  0.999217
    C   C17  0.404629  0.706582  0.493385  0.000776
    C   C18  0.412076  0.294155  0.497160  -0.116269
    N   N3   0.494336  0.759053  0.498792  0.104715
    N   N4   0.503420  0.243891  0.503388  0.122005
    C   C19  0.587324  0.711845  0.504847  -0.002653
    C   C20  0.594904  0.293162  0.509285  0.050527
    C   C21  0.592692  0.610167  0.505848  -0.182678
    C   C22  0.596916  0.395234  0.508811  -0.205216
    C   C23  0.502183  0.553530  0.500827  0.099439
    C   C24  0.504266  0.449480  0.502072  0.065719
    C   C25  0.407111  0.603304  0.494322  0.085083
    C   C26  0.410992  0.397219  0.496425  0.182689
    C   C27  0.316762  0.447923  0.489862  -0.201629
    C   C28  0.314849  0.549795  0.488897  -0.120352
    H   H6   0.242481  0.409657  0.485374  0.170704
    H   H7   0.239372  0.585927  0.483743  0.145686
    H   H8   0.670148  0.579374  0.510765  0.158043
    H   H9   0.673337  0.428292  0.513809  0.164759
    C   C29  0.132307  0.973568  0.255744  0.491071
    N   N5   0.090713  0.959930  0.370312  -0.468556
    C   C30  0.683510  0.766811  0.510728  0.357154
    N   N6   0.761096  0.811136  0.515483  -0.389390
    C   C31  0.692066  0.239701  0.515824  0.303321
    N   N7   0.770418  0.196593  0.521095  -0.349003
    C   C32  0.315327  0.239854  0.490818  0.376338
    N   N8   0.237368  0.196113  0.485694  -0.383210
    C   C33  0.306632  0.758883  0.486898  0.259717
    N   N9   0.227699  0.801030  0.481664  -0.278174
