# Generated by REPEAT Assigner based on pymatgen
data_DB0-m2_o20_o27_f0_nbo.sym.44_sqe
_audit_creation_date              2022-05-24
_audit_creation_method            REPEAT_Assigner
_cell_length_a                    28.877375
_cell_length_b                    28.879192
_cell_length_c                    38.417048
_cell_angle_alpha                 90.000000
_cell_angle_beta                  90.000000
_cell_angle_gamma                 90.000000
_cell_volume                      32038.099031
_symmetry_space_group_name_H-M    P1
_symmetry_Int_Tables_number       1
loop_
    _symmetry_equiv_pos_site_id
    _symmetry_equiv_pos_as_xyz
    1  x,y,z
loop_
    _atom_site_type_symbol
    _atom_site_label
    _atom_site_fract_x
    _atom_site_fract_y
    _atom_site_fract_z
    _atom_type_partial_charge
    C   C1    0.500048  0.910579  0.000126  0.726496
    C   C2    0.999960  0.500713  0.067500  0.726865
    C   C3    0.729124  0.500758  0.999767  -0.015391
    C   C4    0.999276  0.229711  0.499481  0.006905
    C   C5    0.771388  0.999263  0.499349  -0.040237
    C   C6    0.000351  0.771385  0.499412  -0.042198
    C   C7    0.229712  0.000211  0.499264  0.003740
    C   C8    0.499577  0.679768  0.999734  0.126597
    C   C9    0.319685  0.499544  0.999866  0.082413
    C   C10   0.500436  0.319199  0.999750  0.053208
    C   C11   0.680239  0.500411  0.999615  0.082301
    C   C12   0.999605  0.180824  0.499263  0.046301
    C   C13   0.499762  0.999407  0.933253  0.747574
    C   C14   0.820275  0.999616  0.499210  0.123805
    C   C15   0.000586  0.820274  0.499206  0.126094
    C   C16   0.180826  0.000482  0.499137  0.050154
    C   C17   0.499621  0.638052  0.999689  -0.258285
    C   C18   0.361405  0.499270  0.999851  -0.196881
    C   C19   0.500351  0.360915  0.999702  -0.156986
    C   C20   0.638520  0.500003  0.999528  -0.195968
    C   C21   0.000004  0.139104  0.499151  -0.148082
    C   C22   0.861995  0.000027  0.499142  -0.255258
    C   C23   0.000830  0.861995  0.499106  -0.256725
    C   C24   0.999944  0.500683  0.933734  0.770617
    C   C25   0.139105  0.000761  0.499083  -0.150984
    C   C26   0.411076  0.498871  0.999886  0.782508
    C   C27   0.500223  0.410579  0.999686  0.751860
    C   C28   0.588851  0.499383  0.999473  0.781354
    C   C29   0.499710  0.588388  0.999676  0.840674
    C   C30   0.911664  0.000645  0.499119  0.836726
    C   C31   0.001193  0.911668  0.499087  0.837096
    C   C32   0.089435  0.001167  0.499080  0.745568
    C   C33   0.000625  0.089433  0.499116  0.745426
    C   C34   0.450041  0.893921  0.108269  0.802588
    C   C35   0.999463  0.500589  0.567493  0.724375
    C   C36   0.418430  0.862041  0.089272  -0.547830
    C   C37   0.105556  0.450342  0.108836  0.786998
    C   C38   0.137461  0.418748  0.089847  -0.535632
    C   C39   0.550761  0.105170  0.108342  0.813973
    C   C40   0.582392  0.137068  0.089381  -0.558889
    C   C41   0.894301  0.551050  0.108706  0.787088
    C   C42   0.862432  0.582661  0.089699  -0.535896
    C   C43   0.544468  0.889772  0.890384  0.775817
    C   C44   0.574774  0.856209  0.908942  -0.522876
    C   C45   0.890180  0.456285  0.890895  0.797850
    C   C46   0.500487  0.999318  0.567025  0.727285
    C   C47   0.856553  0.426029  0.909433  -0.540190
    C   C48   0.455248  0.109003  0.890267  0.785077
    C   C49   0.424968  0.142620  0.908793  -0.534540
    C   C50   0.109601  0.545048  0.890716  0.795839
    C   C51   0.143284  0.575281  0.909218  -0.542138
    C   C52   0.949007  0.395062  0.608824  0.789714
    C   C53   0.917357  0.363203  0.589844  -0.540186
    C   C54   0.605944  0.948782  0.608450  0.785082
    C   C55   0.637817  0.917132  0.589484  -0.534081
    C   C56   0.049981  0.606185  0.608720  0.786850
    C   C57   0.999450  0.500505  0.433726  0.770921
    C   C58   0.081606  0.638020  0.589694  -0.535272
    C   C59   0.394853  0.049859  0.608163  0.790865
    C   C60   0.363060  0.081511  0.589122  -0.539792
    C   C61   0.043826  0.390773  0.390807  0.800254
    C   C62   0.074055  0.357110  0.409332  -0.542319
    C   C63   0.390896  0.954867  0.390351  0.797376
    C   C64   0.357264  0.924595  0.408870  -0.541628
    C   C65   0.955133  0.610209  0.390794  0.795108
    C   C66   0.924877  0.643874  0.409293  -0.539777
    C   C67   0.610257  0.043779  0.390304  0.800160
    C   C68   0.500588  0.999297  0.433258  0.769497
    C   C69   0.643897  0.074032  0.408832  -0.542728
    C   C70   0.394050  0.943579  0.170679  0.707504
    C   C71   0.364688  0.908054  0.187987  -0.478455
    C   C72   0.055780  0.394326  0.171164  0.710490
    C   C73   0.091270  0.364952  0.188499  -0.476256
    C   C74   0.606759  0.055427  0.170679  0.706981
    C   C75   0.636141  0.090921  0.188003  -0.476302
    C   C76   0.943892  0.607012  0.171155  0.710111
    C   C77   0.908346  0.636356  0.188455  -0.475529
    C   C78   0.603466  0.939689  0.830105  0.809288
    C   C79   0.470985  0.970379  0.122809  0.208565
    C   C80   0.632409  0.903968  0.812627  -0.521399
    C   C81   0.939892  0.397234  0.830547  0.812004
    C   C82   0.904079  0.368402  0.813070  -0.527315
    C   C83   0.396352  0.059093  0.829921  0.811009
    C   C84   0.367493  0.094832  0.812385  -0.523120
    C   C85   0.059730  0.604091  0.830435  0.811425
    C   C86   0.095499  0.632910  0.812896  -0.526518
    C   C87   0.893135  0.444835  0.671232  0.711064
    C   C88   0.863751  0.409357  0.688572  -0.476396
    C   C89   0.555982  0.892887  0.670762  0.709876
    C   C90   0.029070  0.471302  0.123302  0.198798
    C   C91   0.591401  0.863450  0.688121  -0.475885
    C   C92   0.105977  0.556438  0.671074  0.707465
    C   C93   0.135414  0.591917  0.688362  -0.472797
    C   C94   0.444514  0.105783  0.670596  0.709789
    C   C95   0.409008  0.135220  0.687854  -0.478681
    C   C96   0.102956  0.440574  0.330545  0.811466
    C   C97   0.131799  0.404788  0.313048  -0.528459
    C   C98   0.440684  0.895878  0.330000  0.811494
    C   C99   0.404898  0.867044  0.312494  -0.526432
    C   C100  0.896124  0.560471  0.330428  0.809164
    C   C101  0.529788  0.028695  0.122815  0.199808
    C   C102  0.867335  0.596279  0.312906  -0.522863
    C   C103  0.560360  0.102829  0.330038  0.813170
    C   C104  0.596108  0.131706  0.312528  -0.525818
    C   C105  0.088845  0.500634  0.000880  0.732972
    C   C106  0.970754  0.530108  0.123278  0.197760
    C   C107  0.526577  0.967715  0.877462  0.215016
    C   C108  0.968158  0.473989  0.877939  0.214793
    C   C109  0.473081  0.031032  0.877403  0.204615
    C   C110  0.031586  0.527353  0.877884  0.220932
    C   C111  0.970058  0.471510  0.623311  0.193345
    C   C112  0.529476  0.969880  0.622856  0.194617
    C   C113  0.028935  0.529753  0.623261  0.196023
    C   C114  0.471257  0.028780  0.622775  0.190548
    C   C115  0.026150  0.468773  0.377918  0.216672
    C   C116  0.500120  0.088392  0.000131  0.733757
    C   C117  0.468876  0.972608  0.377437  0.216051
    C   C118  0.972802  0.532214  0.377894  0.223018
    C   C119  0.532267  0.026017  0.377435  0.212452
    C   C120  0.469495  0.971664  0.158935  0.289219
    C   C121  0.027717  0.469779  0.159425  0.283396
    C   C122  0.531301  0.027372  0.158940  0.295666
    C   C123  0.972004  0.531580  0.159404  0.285484
    C   C124  0.528390  0.969113  0.841346  0.295733
    C   C125  0.969514  0.472222  0.841820  0.308043
    C   C126  0.471374  0.029604  0.841284  0.302700
    C   C127  0.911074  0.500764  0.000885  0.729533
    C   C128  0.030125  0.529111  0.841766  0.304255
    C   C129  0.968603  0.472828  0.659437  0.291673
    C   C130  0.528083  0.968386  0.658979  0.291266
    C   C131  0.030476  0.528461  0.659385  0.287686
    C   C132  0.472478  0.030284  0.658901  0.292584
    C   C133  0.027959  0.470194  0.341802  0.303477
    C   C134  0.470262  0.970873  0.341317  0.310633
    C   C135  0.971085  0.530820  0.341775  0.297894
    C   C136  0.530830  0.027808  0.341318  0.312293
    C   C137  0.500408  0.999504  0.177005  -0.549361
    C   C138  0.999354  0.411661  0.500888  0.729312
    C   C139  0.999832  0.500665  0.177481  -0.540414
    C   C140  0.499908  0.999351  0.823300  -0.578463
    C   C141  0.999791  0.500665  0.823776  -0.589520
    C   C142  0.999563  0.500648  0.677480  -0.548671
    C   C143  0.500237  0.999337  0.677009  -0.549541
    C   C144  0.999550  0.500518  0.323772  -0.579413
    C   C145  0.500532  0.999355  0.323301  -0.595615
    C   C146  0.500387  0.999540  0.105034  -0.173081
    C   C147  0.999936  0.500716  0.105512  -0.146696
    C   C148  0.499800  0.999378  0.895227  -0.185680
    C   C149  0.589433  0.999239  0.500439  0.728691
    C   C150  0.999898  0.500674  0.895707  -0.215015
    C   C151  0.999478  0.500624  0.605507  -0.143610
    C   C152  0.500409  0.999329  0.605037  -0.143491
    C   C153  0.999457  0.500489  0.395701  -0.217071
    C   C154  0.500584  0.999299  0.395231  -0.211152
    C   C155  0.500499  0.999392  0.285047  1.016836
    C   C156  0.999620  0.500554  0.285519  1.007750
    C   C157  0.500143  0.999340  0.715324  0.878685
    C   C158  0.999621  0.500652  0.715795  0.881544
    C   C159  0.999731  0.500661  0.785523  1.014643
    C   C160  0.999555  0.589433  0.500829  0.729720
    C   C161  0.499981  0.999346  0.785050  1.007219
    C   C162  0.999763  0.500626  0.215793  0.876201
    C   C163  0.500438  0.999467  0.215320  0.876852
    C   C164  0.499825  0.860938  0.000076  -0.136348
    C   C165  0.138492  0.500403  0.000520  -0.148726
    C   C166  0.500341  0.138032  0.000089  -0.157718
    C   C167  0.861427  0.500967  0.000498  -0.145664
    C   C168  0.999130  0.362014  0.500444  -0.149445
    C   C169  0.639081  0.999035  0.500061  -0.141021
    C   C170  0.999800  0.639081  0.500371  -0.141704
    C   C171  0.411660  0.999376  0.500368  0.730279
    C   C172  0.362014  0.999610  0.499973  -0.148890
    C   C173  0.499691  0.819233  0.000005  0.035821
    C   C174  0.180201  0.500218  0.000279  0.051035
    C   C175  0.500454  0.179737  0.000021  0.062290
    C   C176  0.819719  0.501021  0.000220  0.048189
    C   C177  0.999057  0.320306  0.500097  0.056620
    C   C178  0.680790  0.998986  0.499787  0.038237
    C   C179  0.999981  0.680789  0.500019  0.038915
    C   C180  0.320306  0.999796  0.499694  0.055647
    C   C181  0.499598  0.770364  0.999902  0.015734
    C   C182  0.500413  0.999524  0.067022  0.743052
    C   C183  0.229077  0.500007  0.000065  -0.004999
    C   C184  0.500507  0.228605  0.999920  -0.019703
    C   C185  0.770844  0.500941  0.999948  -0.003113
    C   C186  0.999112  0.271430  0.499733  -0.017792
    C   C187  0.729667  0.999073  0.499521  0.013451
    C   C188  0.000176  0.729665  0.499658  0.013973
    C   C189  0.271431  0.000011  0.499430  -0.015808
    C   C190  0.499566  0.728648  0.999817  -0.043223
    C   C191  0.270798  0.499810  0.999943  -0.014486
    C   C192  0.500498  0.270320  0.999835  0.004813
    Cu  Cu1   0.546195  0.999277  0.000131  1.012955
    Cu  Cu2   0.499993  0.499489  0.964956  1.007175
    Cu  Cu3   0.000552  0.000528  0.533832  1.009640
    Cu  Cu4   0.000526  0.000549  0.464366  1.007516
    Cu  Cu5   0.000131  0.546818  0.000593  1.014710
    Cu  Cu6   0.453977  0.999651  0.000126  1.012977
    Cu  Cu7   0.999788  0.454581  0.000604  1.015078
    Cu  Cu8   0.045575  0.500357  0.500588  1.013662
    Cu  Cu9   0.500720  0.045425  0.500119  1.014364
    Cu  Cu10  0.953334  0.500737  0.500593  1.013707
    Cu  Cu11  0.500372  0.953189  0.500127  1.014507
    Cu  Cu12  0.499934  0.499496  0.034403  1.007530
    H   H1    0.421306  0.868494  0.060898  0.163817
    H   H2    0.868903  0.579786  0.061327  0.158489
    H   H3    0.868673  0.618804  0.098247  0.149785
    H   H4    0.826069  0.572911  0.095378  0.168937
    H   H5    0.571140  0.861206  0.937430  0.158818
    H   H6    0.611308  0.862108  0.901234  0.140283
    H   H7    0.564449  0.820409  0.901971  0.167074
    H   H8    0.861586  0.429584  0.937922  0.167730
    H   H9    0.862348  0.389499  0.901675  0.141489
    H   H10   0.820771  0.436463  0.902495  0.168280
    H   H11   0.428573  0.137646  0.937286  0.164371
    H   H12   0.382283  0.868287  0.097816  0.151271
    H   H13   0.388433  0.136760  0.901070  0.142068
    H   H14   0.435343  0.178401  0.901809  0.168625
    H   H15   0.138330  0.571696  0.937714  0.169194
    H   H16   0.137474  0.611820  0.901490  0.142280
    H   H17   0.179045  0.564848  0.902218  0.169779
    H   H18   0.920256  0.369613  0.561465  0.159473
    H   H19   0.881217  0.369513  0.598375  0.150406
    H   H20   0.927053  0.326840  0.595567  0.169964
    H   H21   0.631474  0.920080  0.561100  0.158580
    H   H22   0.631454  0.880987  0.597976  0.149147
    H   H23   0.428180  0.825684  0.094964  0.169631
    H   H24   0.674179  0.926784  0.595261  0.168410
    H   H25   0.078647  0.631595  0.561320  0.157957
    H   H26   0.117761  0.631699  0.598184  0.150005
    H   H27   0.071939  0.674391  0.595415  0.167662
    H   H28   0.369542  0.078586  0.560754  0.159155
    H   H29   0.369370  0.117652  0.597645  0.150538
    H   H30   0.326674  0.071843  0.594795  0.168492
    H   H31   0.070466  0.362094  0.437824  0.167799
    H   H32   0.110598  0.362912  0.401606  0.142077
    H   H33   0.063623  0.321345  0.402352  0.168947
    H   H34   0.131074  0.421680  0.061467  0.158206
    H   H35   0.362275  0.928146  0.437362  0.168791
    H   H36   0.363076  0.888069  0.401110  0.141917
    H   H37   0.321484  0.935020  0.401919  0.169672
    H   H38   0.928392  0.638863  0.437787  0.168605
    H   H39   0.888351  0.638102  0.401511  0.141734
    H   H40   0.935350  0.679639  0.402345  0.169234
    H   H41   0.638929  0.070417  0.437324  0.168499
    H   H42   0.638053  0.110571  0.401120  0.142467
    H   H43   0.679673  0.063642  0.401839  0.168575
    H   H44   0.386840  0.885228  0.204163  0.125050
    H   H45   0.131174  0.382592  0.098346  0.149930
    H   H46   0.346765  0.887060  0.167920  0.153123
    H   H47   0.338707  0.925421  0.204759  0.169440
    H   H48   0.114064  0.387088  0.204713  0.124213
    H   H49   0.112307  0.347046  0.168449  0.152326
    H   H50   0.073866  0.338959  0.205239  0.168558
    H   H51   0.614003  0.113735  0.204200  0.124365
    H   H52   0.654061  0.111934  0.167945  0.152582
    H   H53   0.662123  0.073525  0.204756  0.169206
    H   H54   0.885510  0.614192  0.204615  0.123872
    H   H55   0.887361  0.654283  0.168384  0.152251
    H   H56   0.173813  0.428465  0.095595  0.167653
    H   H57   0.925696  0.662330  0.205242  0.168601
    H   H58   0.610125  0.882120  0.795802  0.135057
    H   H59   0.649352  0.882006  0.832589  0.160859
    H   H60   0.659189  0.921173  0.796484  0.170214
    H   H61   0.882270  0.390760  0.796271  0.136664
    H   H62   0.882092  0.351494  0.833033  0.161967
    H   H63   0.921202  0.341599  0.796900  0.171989
    H   H64   0.389843  0.116633  0.795574  0.135363
    H   H65   0.350535  0.116837  0.832313  0.161116
    H   H66   0.340726  0.077643  0.796218  0.170624
    H   H67   0.579479  0.130707  0.060997  0.169702
    H   H68   0.117253  0.610544  0.796063  0.136407
    H   H69   0.117548  0.649817  0.832821  0.161880
    H   H70   0.078335  0.659715  0.796752  0.171918
    H   H71   0.885892  0.386522  0.704749  0.124036
    H   H72   0.845789  0.388363  0.668524  0.152426
    H   H73   0.837802  0.426766  0.705347  0.168612
    H   H74   0.614232  0.885551  0.704332  0.123926
    H   H75   0.612412  0.845486  0.668085  0.152826
    H   H76   0.573933  0.837507  0.704866  0.168386
    H   H77   0.113317  0.614774  0.704555  0.123434
    H   H78   0.618539  0.130753  0.097894  0.152030
    H   H79   0.153342  0.612886  0.668283  0.151601
    H   H80   0.161390  0.574509  0.705114  0.167851
    H   H81   0.386102  0.113121  0.704008  0.124798
    H   H82   0.388091  0.153175  0.667758  0.153105
    H   H83   0.426392  0.161171  0.704642  0.169300
    H   H84   0.109453  0.383018  0.296212  0.136614
    H   H85   0.148683  0.382762  0.332998  0.162291
    H   H86   0.158626  0.421934  0.296912  0.172510
    H   H87   0.383095  0.889404  0.295693  0.136473
    H   H88   0.382901  0.850113  0.332440  0.161774
    H   H89   0.572691  0.173420  0.095141  0.170895
    H   H90   0.422047  0.840259  0.296322  0.171857
    H   H91   0.889729  0.618053  0.296109  0.135172
    H   H92   0.850412  0.618297  0.332842  0.161209
    H   H93   0.840540  0.579154  0.296727  0.171012
    H   H94   0.617902  0.109380  0.295694  0.136347
    H   H95   0.618122  0.148622  0.332471  0.161288
    H   H96   0.578925  0.158504  0.296389  0.171567
    N   N1    0.540366  0.004431  0.232985  -0.267124
    N   N2    0.495131  0.039253  0.732997  -0.265470
    N   N3    0.959732  0.495708  0.733511  -0.271634
    N   N4    0.505070  0.959429  0.733013  -0.265713
    N   N5    0.994678  0.540493  0.267882  -0.349886
    N   N6    0.540402  0.004422  0.267376  -0.355783
    N   N7    0.004636  0.460653  0.267847  -0.350510
    N   N8    0.460565  0.994400  0.267409  -0.355814
    N   N9    0.994775  0.540523  0.233491  -0.267534
    N   N10   0.460541  0.994464  0.233017  -0.268050
    N   N11   0.004679  0.460694  0.233456  -0.267223
    N   N12   0.495022  0.039262  0.767388  -0.351877
    N   N13   0.039626  0.505631  0.767832  -0.354521
    N   N14   0.505019  0.959426  0.767405  -0.351786
    N   N15   0.959781  0.495685  0.767903  -0.353701
    N   N16   0.039566  0.505599  0.733440  -0.271015
    O   O1    0.540006  0.931926  0.002166  -0.584239
    O   O2    0.568125  0.039276  0.499476  -0.587978
    O   O3    0.526653  0.875064  0.652267  -0.518482
    O   O4    0.059962  0.555808  0.677223  -0.319318
    O   O5    0.123798  0.527074  0.652609  -0.517910
    O   O6    0.445108  0.059765  0.676723  -0.321079
    O   O7    0.473928  0.123605  0.652177  -0.517948
    O   O8    0.057117  0.442597  0.323877  -0.371674
    O   O9    0.121146  0.468871  0.349733  -0.548374
    O   O10   0.442672  0.941727  0.323375  -0.374078
    O   O11   0.469015  0.877675  0.349154  -0.548525
    O   O12   0.941977  0.558435  0.323820  -0.369598
    O   O13   0.959507  0.568137  0.499898  -0.587689
    O   O14   0.877878  0.532166  0.349579  -0.547893
    O   O15   0.558388  0.056988  0.323380  -0.375908
    O   O16   0.532044  0.120992  0.349226  -0.548809
    O   O17   0.432967  0.959337  0.499428  -0.587472
    O   O18   0.959609  0.433381  0.498696  -0.598898
    O   O19   0.433365  0.039125  0.498175  -0.600486
    O   O20   0.039299  0.567710  0.498646  -0.600573
    O   O21   0.567731  0.959488  0.498237  -0.599516
    O   O22   0.540335  0.998130  0.050808  -0.572453
    O   O23   0.001255  0.540582  0.051247  -0.596580
    O   O24   0.460507  0.000843  0.050763  -0.594071
    O   O25   0.067538  0.540672  0.999922  -0.588585
    O   O26   0.998670  0.460838  0.051257  -0.596886
    O   O27   0.459922  0.002222  0.949482  -0.571886
    O   O28   0.002765  0.540567  0.949967  -0.573800
    O   O29   0.539587  0.996665  0.949528  -0.593164
    O   O30   0.997143  0.460807  0.949978  -0.573260
    O   O31   0.039333  0.499267  0.551242  -0.595323
    O   O32   0.501806  0.039186  0.550773  -0.596334
    O   O33   0.959587  0.501888  0.551247  -0.595450
    O   O34   0.499210  0.959443  0.550779  -0.596512
    O   O35   0.959569  0.503342  0.449966  -0.572884
    O   O36   0.460090  0.067052  0.999265  -0.583492
    O   O37   0.503392  0.039179  0.449494  -0.571774
    O   O38   0.039332  0.497691  0.449964  -0.572051
    O   O39   0.497772  0.959419  0.449499  -0.573407
    O   O40   0.432522  0.501083  0.029921  -0.583481
    O   O41   0.498172  0.432119  0.029674  -0.602596
    O   O42   0.567292  0.501370  0.029481  -0.602315
    O   O43   0.497882  0.566875  0.029740  -0.589771
    O   O44   0.567395  0.501463  0.969436  -0.582496
    O   O45   0.502141  0.432123  0.969692  -0.602500
    O   O46   0.432624  0.500979  0.969877  -0.601833
    O   O47   0.932382  0.460727  0.999938  -0.587643
    O   O48   0.501661  0.566882  0.969612  -0.589829
    O   O49   0.933166  0.998601  0.529174  -0.589316
    O   O50   0.999020  0.933139  0.529148  -0.589141
    O   O51   0.067935  0.998998  0.529075  -0.602347
    O   O52   0.998622  0.067900  0.529103  -0.602969
    O   O53   0.067914  0.999029  0.469092  -0.601064
    O   O54   0.999009  0.933154  0.469028  -0.588426
    O   O55   0.933141  0.998606  0.469052  -0.588196
    O   O56   0.998586  0.067920  0.469119  -0.601531
    O   O57   0.445166  0.940104  0.104499  -0.315835
    O   O58   0.460278  0.932301  0.998122  -0.603693
    O   O59   0.481120  0.878177  0.126199  -0.557260
    O   O60   0.059375  0.445496  0.105009  -0.307412
    O   O61   0.121280  0.481385  0.126811  -0.553773
    O   O62   0.555593  0.058991  0.104512  -0.317440
    O   O63   0.519706  0.120902  0.126304  -0.560529
    O   O64   0.940490  0.555929  0.104959  -0.307630
    O   O65   0.878543  0.519965  0.126624  -0.554578
    O   O66   0.550071  0.935595  0.895800  -0.307801
    O   O67   0.513684  0.875669  0.871421  -0.546805
    O   O68   0.935997  0.450549  0.896276  -0.314455
    O   O69   0.932774  0.540515  0.998678  -0.599516
    O   O70   0.876139  0.487145  0.871976  -0.552327
    O   O71   0.449564  0.063190  0.895685  -0.308399
    O   O72   0.486087  0.123052  0.871332  -0.549416
    O   O73   0.063800  0.550795  0.896166  -0.315589
    O   O74   0.123585  0.514196  0.871767  -0.552265
    O   O75   0.944191  0.441247  0.605028  -0.306940
    O   O76   0.980069  0.379296  0.626762  -0.555238
    O   O77   0.559759  0.944012  0.604593  -0.306906
    O   O78   0.621699  0.979803  0.626431  -0.553672
    O   O79   0.054769  0.559996  0.604933  -0.306696
    O   O80   0.539961  0.066676  0.000963  -0.603533
    O   O81   0.018965  0.621975  0.626690  -0.553652
    O   O82   0.441054  0.054639  0.604429  -0.306538
    O   O83   0.379020  0.018828  0.626096  -0.554574
    O   O84   0.049564  0.436576  0.396237  -0.315858
    O   O85   0.012985  0.376772  0.371853  -0.553249
    O   O86   0.436710  0.949139  0.395747  -0.315453
    O   O87   0.376859  0.985731  0.371435  -0.553095
    O   O88   0.949353  0.564405  0.396193  -0.316105
    O   O89   0.986031  0.624208  0.371891  -0.552178
    O   O90   0.564447  0.049471  0.395742  -0.316294
    O   O91   0.067143  0.460884  0.998682  -0.601306
    O   O92   0.624286  0.012960  0.371343  -0.552497
    O   O93   0.440071  0.944277  0.176795  -0.321706
    O   O94   0.376161  0.972918  0.152230  -0.517516
    O   O95   0.055070  0.440340  0.177301  -0.319230
    O   O96   0.026477  0.376455  0.152671  -0.518609
    O   O97   0.560740  0.054737  0.176806  -0.323819
    O   O98   0.624629  0.026105  0.152204  -0.517688
    O   O99   0.944595  0.560990  0.177259  -0.319513
    O   O100  0.973243  0.624914  0.152723  -0.518597
    O   O101  0.557622  0.941579  0.823434  -0.367098
    O   O102  0.039402  0.432957  0.499939  -0.586687
    O   O103  0.621575  0.968053  0.849280  -0.547816
    O   O104  0.941891  0.443077  0.823905  -0.374060
    O   O105  0.968232  0.379032  0.849694  -0.548406
    O   O106  0.442208  0.057137  0.823309  -0.369055
    O   O107  0.378163  0.030771  0.849089  -0.548552
    O   O108  0.057698  0.558246  0.823800  -0.372639
    O   O109  0.031451  0.622303  0.849627  -0.548477
    O   O110  0.939163  0.445490  0.677326  -0.321166
    O   O111  0.875263  0.474175  0.652775  -0.518931
    O   O112  0.555366  0.938906  0.676878  -0.320458
