# Generated by REPEAT Assigner based on pymatgen
data_DB0-m2_o11_o24_f0_pcu.sym.36
_audit_creation_date              2022-05-24
_audit_creation_method            REPEAT_Assigner
_cell_length_a                    10.663229
_cell_length_b                    11.094357
_cell_length_c                    9.592313
_cell_angle_alpha                 90.020595
_cell_angle_beta                  90.017299
_cell_angle_gamma                 90.009400
_cell_volume                      1134.786550
_symmetry_space_group_name_H-M    P1
_symmetry_Int_Tables_number       1
loop_
    _symmetry_equiv_pos_site_id
    _symmetry_equiv_pos_as_xyz
    1  x,y,z
loop_
    _atom_site_type_symbol
    _atom_site_label
    _atom_site_fract_x
    _atom_site_fract_y
    _atom_site_fract_z
    _atom_type_partial_charge
    O   O1   0.489350  0.319700  0.608393  -0.670298
    O   O2   0.503414  0.318139  0.368648  -0.629808
    C   C1   0.496311  0.262475  0.489332  0.838610
    O   O3   0.313233  0.501222  0.601612  -0.558964
    O   O4   0.318927  0.491633  0.362533  -0.603566
    C   C2   0.257623  0.496832  0.480903  0.565936
    Cu  Cu1  0.494475  0.494779  0.628135  1.080179
    Cu  Cu2  0.501868  0.493469  0.349168  0.926785
    O   O5   0.492503  0.670059  0.607457  -0.684752
    O   O6   0.508381  0.668381  0.369337  -0.561579
    O   O7   0.677423  0.497088  0.615132  -0.668730
    O   O8   0.683154  0.486798  0.375196  -0.645877
    C   C3   0.499494  0.726416  0.487295  0.741398
    C   C4   0.738601  0.491649  0.496320  0.615229
    C   C5   0.044094  0.500641  0.615658  0.000851
    C   C6   0.961336  0.399351  0.561378  -0.103054
    H   H1   0.928026  0.320848  0.622597  0.043583
    H   H2   0.084153  0.506204  0.722177  0.034086
    C   C7   0.877918  0.492797  0.495508  0.219772
    C   C8   0.958400  0.594063  0.549622  -0.143427
    C   C9   0.034866  0.589175  0.415789  -0.142604
    C   C10  0.952101  0.487886  0.361513  -0.031877
    C   C11  0.037802  0.394466  0.427543  -0.105570
    C   C12  0.118290  0.495733  0.481673  0.214406
    H   H3   0.922562  0.676596  0.601277  0.062873
    H   H4   0.068193  0.667652  0.354545  0.074634
    H   H5   0.912002  0.482382  0.255004  0.045381
    H   H6   0.073599  0.311915  0.375885  0.048903
    C   C13  0.496658  0.930534  0.372759  -0.078488
    C   C14  0.498910  0.859829  0.487865  -0.266981
    H   H7   0.505642  0.899950  0.590014  0.178081
    C   C15  0.505349  0.063886  0.378754  0.019189
    C   C16  0.493549  0.130224  0.494403  -0.394743
    H   H8   0.516205  0.110144  0.280100  0.081971
    H   H9   0.478610  0.089838  0.595430  0.208977
    C   C17  0.421518  0.425367  0.919484  0.043261
    N   N1   0.485762  0.495030  0.836904  -0.385768
    H   H10  0.520732  0.571189  0.883907  0.287687
    C   C18  0.416089  0.447755  0.071423  0.032520
    N   N2   0.507686  0.492998  0.140541  -0.208896
    H   H11  0.333566  0.417236  0.126421  0.112307
    H   H12  0.591058  0.501490  0.087610  0.225456
    C   C19  0.342932  0.323194  0.872701  0.722260
    O   O9   0.293172  0.321928  0.758830  -0.446872
    O   O10  0.312269  0.237252  0.965991  -0.458039
    C   C20  0.229833  0.147002  0.931886  0.457654
    C   C21  0.207671  0.068304  0.058290  -0.387062
    H   H13  0.269452  0.091477  0.846379  -0.047794
    H   H14  0.139007  0.186447  0.898721  -0.032467
    H   H15  0.298559  0.032665  0.095908  0.155566
    H   H16  0.145042  0.992391  0.029742  0.091973
    H   H17  0.163292  0.122580  0.141912  0.101774
    C   C22  0.485813  0.880620  0.231164  0.704201
    O   O11  0.397752  0.815512  0.200637  -0.526936
    O   O12  0.566066  0.917778  0.131453  -0.441673
    C   C23  0.557425  0.875470  0.997483  0.447474
    C   C24  0.661065  0.930625  0.910530  -0.277655
    H   H18  0.465325  0.900550  0.952209  -0.040788
    H   H19  0.568000  0.776050  0.997281  -0.048611
    H   H20  0.649710  0.029965  0.908111  0.066611
    H   H21  0.656321  0.894510  0.802887  0.058124
    H   H22  0.753259  0.907727  0.957034  0.085168
