# Generated by REPEAT Assigner based on pymatgen
data_DB0-m3_o153_o23_f0_fsc.sym.12_sqe
_audit_creation_date              2022-05-24
_audit_creation_method            REPEAT_Assigner
_cell_length_a                    8.529466
_cell_length_b                    12.998611
_cell_length_c                    14.194609
_cell_angle_alpha                 90.629652
_cell_angle_beta                  93.358120
_cell_angle_gamma                 86.450648
_cell_volume                      1568.014810
_symmetry_space_group_name_H-M    P1
_symmetry_Int_Tables_number       1
loop_
    _symmetry_equiv_pos_site_id
    _symmetry_equiv_pos_as_xyz
    1  x,y,z
loop_
    _atom_site_type_symbol
    _atom_site_label
    _atom_site_fract_x
    _atom_site_fract_y
    _atom_site_fract_z
    _atom_type_partial_charge
    C   C1   0.024451  0.866267  0.003682  0.219483
    C   C2   0.892323  0.809372  0.008358  0.106333
    C   C3   0.743421  0.858141  0.004004  -0.207120
    C   C4   0.724446  0.963548  0.998067  -0.295983
    C   C5   0.853524  0.021816  0.996754  0.289471
    C   C6   0.004020  0.974120  0.999237  -0.052604
    C   C7   0.830137  0.128257  0.992909  -0.399823
    C   C8   0.956702  0.188800  0.989502  0.138028
    C   C9   0.106756  0.141585  0.992912  0.310899
    C   C10  0.130319  0.036201  0.999539  -0.343642
    C   C11  0.937332  0.295467  0.981078  -0.111395
    C   C12  0.067294  0.350467  0.970095  -0.093992
    C   C13  0.216029  0.303825  0.978457  -0.042229
    C   C14  0.236367  0.199564  0.991251  -0.367677
    C   C15  0.172484  0.813130  0.001410  -0.334522
    C   C16  0.187845  0.707946  0.014977  -0.045678
    C   C17  0.057205  0.655288  0.028552  -0.101196
    C   C18  0.909868  0.703525  0.018849  -0.202487
    H   H1   0.639526  0.815106  0.007023  0.126137
    H   H2   0.607200  0.000461  0.995813  0.157999
    H   H3   0.052212  0.432318  0.959794  0.118556
    H   H4   0.354150  0.163634  0.998336  0.134067
    H   H5   0.250324  0.005959  0.005406  0.164834
    H   H6   0.711942  0.163628  0.990385  0.156160
    H   H7   0.278756  0.849705  0.988925  0.149112
    H   H8   0.070006  0.573601  0.040252  0.112208
    O   O1   0.406026  0.392516  0.069171  -0.745015
    O   O2   0.395537  0.406490  0.906744  -0.750864
    C   C19  0.349762  0.367726  0.984660  0.918589
    O   O3   0.382005  0.619759  0.924395  -0.714917
    O   O4   0.401876  0.605319  0.086622  -0.739379
    C   C20  0.337703  0.647267  0.008725  0.882049
    O   O5   0.720771  0.612658  0.927633  -0.751969
    O   O6   0.730871  0.598894  0.089766  -0.772139
    C   C21  0.776520  0.638286  0.012139  0.990107
    O   O7   0.744523  0.385151  0.071971  -0.635709
    O   O8   0.724314  0.399366  0.909960  -0.607658
    C   C22  0.787528  0.356455  0.987595  0.696171
    Zn  Zn1  0.553913  0.513361  0.893496  1.075473
    Zn  Zn2  0.572900  0.491731  0.103088  1.076434
    C   C23  0.652467  0.412777  0.564007  0.480631
    C   C24  0.632772  0.603565  0.548614  -0.098583
    C   C25  0.649348  0.589353  0.443645  -0.065133
    H   H9   0.557851  0.674585  0.561297  0.038499
    H   H10  0.750344  0.611470  0.584660  0.051555
    H   H11  0.775757  0.583535  0.428763  0.036509
    H   H12  0.591434  0.657042  0.405957  0.039896
    N   N1   0.581836  0.479248  0.226298  0.013989
    C   C26  0.556642  0.511469  0.586548  0.381728
    C   C27  0.655754  0.398784  0.457907  0.143410
    C   C28  0.571926  0.492389  0.410184  0.389749
    C   C29  0.400994  0.500144  0.435017  -0.168325
    C   C30  0.392088  0.506633  0.541146  -0.164056
    C   C31  0.578730  0.483420  0.307640  -0.134447
    C   C32  0.549015  0.521241  0.688997  -0.141202
    N   N2   0.545333  0.525861  0.770294  -0.028277
    H   H13  0.337330  0.437668  0.566473  0.045268
    H   H14  0.319351  0.576689  0.560003  0.086359
    H   H15  0.341707  0.431360  0.407792  0.064534
    H   H16  0.594663  0.347388  0.593878  -0.105756
    H   H17  0.592245  0.329376  0.437332  -0.046636
    H   H18  0.340695  0.570186  0.402508  0.074683
    O   O9   0.806143  0.418466  0.603249  -0.491274
    C   C33  0.850742  0.321611  0.641457  0.434262
    H   H19  0.828247  0.260039  0.588545  -0.053835
    H   H20  0.786763  0.309653  0.705968  -0.053692
    C   C34  0.025340  0.316619  0.668603  -0.324181
    H   H21  0.050796  0.377788  0.721383  0.096502
    H   H22  0.061592  0.240118  0.699295  0.063448
    H   H23  0.091501  0.328262  0.605002  0.087909
    O   O10  0.812396  0.388949  0.432715  -0.428183
    C   C35  0.828594  0.299935  0.376865  0.486104
    H   H24  0.743936  0.304593  0.314450  -0.075232
    H   H25  0.812121  0.230411  0.419000  -0.056109
    C   C36  0.993237  0.290813  0.341888  -0.317137
    H   H26  0.080335  0.285834  0.403066  0.077761
    H   H27  0.007439  0.220427  0.297581  0.069217
    H   H28  0.012542  0.359513  0.299403  0.083932
