# Generated by REPEAT Assigner based on pymatgen
data_DB0-m2_o22_o27_f0_nbo.sym.115
_audit_creation_date              2022-05-24
_audit_creation_method            REPEAT_Assigner
_cell_length_a                    30.053629
_cell_length_b                    30.286239
_cell_length_c                    24.384450
_cell_angle_alpha                 90.000000
_cell_angle_beta                  128.039995
_cell_angle_gamma                 90.000000
_cell_volume                      17480.359827
_symmetry_space_group_name_H-M    P1
_symmetry_Int_Tables_number       1
loop_
    _symmetry_equiv_pos_site_id
    _symmetry_equiv_pos_as_xyz
    1  x,y,z
loop_
    _atom_site_type_symbol
    _atom_site_label
    _atom_site_fract_x
    _atom_site_fract_y
    _atom_site_fract_z
    _atom_type_partial_charge
    O   O1    0.820923  0.768322  0.496091  -0.644134
    O   O2    0.179077  0.768322  0.503909  -0.644145
    O   O3    0.320923  0.268322  0.496091  -0.644149
    O   O4    0.679077  0.268322  0.503909  -0.644150
    O   O5    0.769247  0.822029  0.501039  -0.600215
    O   O6    0.230753  0.822029  0.498961  -0.600207
    O   O7    0.269247  0.322029  0.501039  -0.600209
    O   O8    0.730753  0.322029  0.498961  -0.600213
    C   C1    0.811815  0.809646  0.502553  0.558393
    C   C2    0.188185  0.809646  0.497447  0.558376
    C   C3    0.311815  0.309646  0.502553  0.558287
    C   C4    0.688185  0.309646  0.497447  0.558321
    O   O9    0.724949  0.720676  0.399090  -0.604736
    O   O10   0.275051  0.720676  0.600909  -0.604750
    O   O11   0.224949  0.220676  0.399090  -0.604749
    O   O12   0.775051  0.220676  0.600909  -0.604748
    O   O13   0.675572  0.779038  0.399203  -0.593309
    O   O14   0.324428  0.779038  0.600797  -0.593287
    O   O15   0.175572  0.279038  0.399203  -0.593294
    O   O16   0.824428  0.279038  0.600797  -0.593295
    C   C5    0.683999  0.749901  0.366572  0.704633
    C   C6    0.316001  0.749901  0.633428  0.704610
    C   C7    0.183999  0.249901  0.366572  0.704645
    C   C8    0.816001  0.249901  0.633428  0.704639
    Cu  Cu1   0.781879  0.718467  0.500241  0.996082
    Cu  Cu2   0.218121  0.718467  0.499759  0.996031
    Cu  Cu3   0.281879  0.218467  0.500241  0.996066
    Cu  Cu4   0.718121  0.218467  0.499759  0.996072
    Cu  Cu5   0.719105  0.780572  0.500282  0.975732
    Cu  Cu6   0.280894  0.780572  0.499718  0.975768
    Cu  Cu7   0.219105  0.280572  0.500282  0.975767
    Cu  Cu8   0.780894  0.280572  0.499718  0.975779
    O   O17   0.731740  0.677046  0.499511  -0.624960
    O   O18   0.268259  0.677046  0.500489  -0.624954
    O   O19   0.231740  0.177046  0.499511  -0.624939
    O   O20   0.768259  0.177046  0.500489  -0.624922
    O   O21   0.675100  0.730767  0.494517  -0.646032
    O   O22   0.324900  0.730767  0.505482  -0.646003
    O   O23   0.175100  0.230767  0.494517  -0.645976
    O   O24   0.824900  0.230767  0.505482  -0.645957
    O   O25   0.827785  0.722166  0.601482  -0.616853
    O   O26   0.172215  0.722166  0.398518  -0.616866
    O   O27   0.327785  0.222166  0.601482  -0.616866
    O   O28   0.672215  0.222166  0.398518  -0.616858
    O   O29   0.773779  0.776154  0.601528  -0.603437
    O   O30   0.226221  0.776154  0.398472  -0.603423
    O   O31   0.273779  0.276154  0.601528  -0.603440
    O   O32   0.726221  0.276154  0.398472  -0.603439
    C   C9    0.689989  0.689346  0.499660  0.615901
    C   C10   0.310011  0.689346  0.500340  0.615878
    C   C11   0.189989  0.189346  0.499660  0.615706
    C   C12   0.810011  0.189346  0.500340  0.615704
    C   C13   0.816957  0.749055  0.634036  0.649816
    C   C14   0.183043  0.749055  0.365964  0.649815
    C   C15   0.316957  0.249055  0.634036  0.649908
    C   C16   0.683043  0.249055  0.365964  0.649905
    C   C17   0.614185  0.786929  0.254101  -0.087989
    C   C18   0.385815  0.786929  0.745899  -0.088001
    C   C19   0.114185  0.286929  0.254101  -0.088009
    C   C20   0.885815  0.286929  0.745898  -0.088036
    H   H1    0.617610  0.816403  0.281454  0.112762
    H   H2    0.382390  0.816403  0.718546  0.112762
    H   H3    0.117610  0.316403  0.281454  0.112765
    H   H4    0.882390  0.316403  0.718546  0.112773
    C   C21   0.578695  0.787087  0.182304  0.093440
    C   C22   0.421305  0.787087  0.817695  0.093458
    C   C23   0.078695  0.287087  0.182304  0.093455
    C   C24   0.921305  0.287087  0.817695  0.093486
    H   H5    0.554629  0.816545  0.155149  0.036611
    H   H6    0.445371  0.816545  0.844851  0.036608
    H   H7    0.054629  0.316545  0.155149  0.036609
    H   H8    0.945371  0.316545  0.844851  0.036598
    C   C25   0.573239  0.749757  0.145986  -0.485962
    C   C26   0.426761  0.749757  0.854014  -0.485990
    C   C27   0.073239  0.249757  0.145986  -0.485953
    C   C28   0.926761  0.249757  0.854014  -0.485996
    C   C29   0.604237  0.712470  0.182286  0.084955
    C   C30   0.395762  0.712470  0.817714  0.084985
    C   C31   0.104237  0.212470  0.182286  0.084951
    C   C32   0.895762  0.212470  0.817714  0.085004
    H   H9    0.600969  0.682959  0.155111  0.041586
    H   H10   0.399031  0.682959  0.844889  0.041580
    H   H11   0.100969  0.182959  0.155111  0.041589
    H   H12   0.899031  0.182959  0.844889  0.041579
    C   C33   0.640909  0.712747  0.254079  -0.090830
    C   C34   0.359091  0.712747  0.745921  -0.090863
    C   C35   0.140909  0.212747  0.254079  -0.090863
    C   C36   0.859091  0.212747  0.745921  -0.090909
    H   H13   0.664888  0.683288  0.281418  0.118152
    H   H14   0.335112  0.683288  0.718582  0.118158
    H   H15   0.164888  0.183288  0.281418  0.118163
    H   H16   0.835112  0.183288  0.718582  0.118169
    C   C37   0.645790  0.749882  0.290324  -0.070553
    C   C38   0.354210  0.749882  0.709676  -0.070524
    C   C39   0.145790  0.249882  0.290324  -0.070536
    C   C40   0.854210  0.249882  0.709676  -0.070500
    N   N1    0.517374  0.711337  0.034418  -0.353521
    N   N2    0.482626  0.711337  0.965582  -0.353510
    N   N3    0.017374  0.211337  0.034418  -0.353521
    N   N4    0.982626  0.211337  0.965582  -0.353513
    C   C41   0.465071  0.749737  0.930360  0.942441
    C   C42   0.534929  0.749737  0.069640  0.942437
    C   C43   0.965071  0.249737  0.930360  0.942437
    C   C44   0.034929  0.249737  0.069640  0.942442
    N   N5    0.482847  0.788133  0.965584  -0.351945
    N   N6    0.517152  0.788133  0.034416  -0.351944
    N   N7    0.982847  0.288133  0.965584  -0.351930
    N   N8    0.017152  0.288133  0.034416  -0.351958
    C   C45   0.909324  0.832716  0.554640  -0.201466
    C   C46   0.090676  0.832716  0.445360  -0.201487
    C   C47   0.409324  0.332716  0.554640  -0.201517
    C   C48   0.590676  0.332716  0.445360  -0.201554
    H   H17   0.917343  0.799007  0.544838  0.050432
    H   H18   0.082657  0.799007  0.455162  0.050432
    H   H19   0.417343  0.299007  0.544838  0.050435
    H   H20   0.582657  0.299007  0.455162  0.050445
    H   H21   0.922498  0.834277  0.608250  0.022672
    H   H22   0.077502  0.834277  0.391750  0.022674
    H   H23   0.422498  0.334277  0.608250  0.022675
    H   H24   0.577502  0.334277  0.391750  0.022677
    C   C49   0.943850  0.865187  0.547476  0.033735
    C   C50   0.056150  0.865187  0.452524  0.033767
    C   C51   0.443850  0.365187  0.547476  0.033743
    C   C52   0.556150  0.365187  0.452524  0.033786
    H   H25   0.979918  0.876704  0.600090  0.020214
    H   H26   0.020082  0.876704  0.399910  0.020197
    H   H27   0.479918  0.376704  0.600090  0.020212
    H   H28   0.520082  0.376704  0.399910  0.020200
    H   H29   0.960309  0.848640  0.522674  0.017738
    H   H30   0.039691  0.848640  0.477325  0.017733
    H   H31   0.460309  0.348640  0.522674  0.017739
    H   H32   0.539691  0.348640  0.477325  0.017727
    H   H33   0.844311  0.817454  0.418890  0.020293
    H   H34   0.155689  0.817454  0.581110  0.020261
    H   H35   0.344311  0.317454  0.418890  0.020241
    H   H36   0.655689  0.317454  0.581110  0.020245
    H   H37   0.880822  0.876818  0.404296  0.018514
    H   H38   0.119178  0.876818  0.595703  0.018497
    H   H39   0.380822  0.376818  0.404296  0.018505
    H   H40   0.619178  0.376818  0.595703  0.018501
    C   C53   0.831361  0.847942  0.430880  -0.102458
    C   C54   0.168639  0.847942  0.569120  -0.102314
    C   C55   0.331361  0.347942  0.430880  -0.102290
    C   C56   0.668639  0.347942  0.569120  -0.102291
    C   C57   0.836809  0.888696  0.522543  -0.252023
    C   C58   0.163191  0.888696  0.477457  -0.251969
    C   C59   0.336809  0.388696  0.522543  -0.251976
    C   C60   0.663191  0.388696  0.477457  -0.251964
    C   C61   0.847059  0.844426  0.502785  0.448009
    C   C62   0.152941  0.844426  0.497215  0.447995
    C   C63   0.347059  0.344426  0.502785  0.448146
    C   C64   0.652941  0.344426  0.497215  0.448131
    H   H41   0.793243  0.900242  0.480739  0.050253
    H   H42   0.206757  0.900242  0.519261  0.050239
    H   H43   0.293243  0.400242  0.480739  0.050246
    H   H44   0.706757  0.400242  0.519261  0.050236
    H   H45   0.842845  0.885773  0.572094  0.032273
    H   H46   0.157155  0.885773  0.427906  0.032261
    H   H47   0.342845  0.385773  0.572094  0.032255
    H   H48   0.657155  0.385773  0.427906  0.032252
    C   C65   0.906529  0.903672  0.502587  -0.010244
    C   C66   0.093471  0.903672  0.497413  -0.010113
    C   C67   0.406529  0.403672  0.502587  -0.010183
    C   C68   0.593471  0.403672  0.497413  -0.010109
    C   C69   0.861381  0.887260  0.428847  -0.013602
    C   C70   0.138619  0.887260  0.571152  -0.013687
    C   C71   0.361381  0.387260  0.428847  -0.013695
    C   C72   0.638619  0.387260  0.571152  -0.013715
    C   C73   0.878419  0.922164  0.532014  0.104343
    C   C74   0.121581  0.922164  0.467986  0.104277
    C   C75   0.378419  0.422164  0.532014  0.104238
    C   C76   0.621581  0.422164  0.467986  0.104259
    H   H49   0.910942  0.928941  0.588315  0.031349
    H   H50   0.089058  0.928941  0.411685  0.031349
    H   H51   0.410942  0.428941  0.588315  0.031373
    H   H52   0.589058  0.428941  0.411685  0.031353
    H   H53   0.855854  0.953170  0.504611  0.013413
    H   H54   0.144146  0.953170  0.495389  0.013423
    H   H55   0.355854  0.453170  0.504611  0.013427
    H   H56   0.644146  0.453170  0.495389  0.013418
    H   H57   0.785043  0.852289  0.391487  0.012703
    H   H58   0.214957  0.852289  0.608513  0.012667
    H   H59   0.285043  0.352289  0.391487  0.012665
    H   H60   0.714957  0.352289  0.608513  0.012659
    H   H61   0.830101  0.913813  0.397292  0.018968
    H   H62   0.169898  0.913813  0.602708  0.018973
    H   H63   0.330101  0.413813  0.397292  0.018952
    H   H64   0.669898  0.413813  0.602708  0.018967
    C   C77   0.836566  0.764473  0.746343  -0.105769
    C   C78   0.163433  0.764473  0.253657  -0.105753
    C   C79   0.336566  0.264473  0.746343  -0.105722
    C   C80   0.663433  0.264473  0.253657  -0.105697
    H   H65   0.793925  0.776564  0.718970  0.112966
    H   H66   0.206075  0.776564  0.281030  0.112959
    H   H67   0.293925  0.276564  0.718970  0.112951
    H   H68   0.706075  0.276564  0.281030  0.112943
    C   C81   0.872165  0.763762  0.818094  0.085321
    C   C82   0.127835  0.763762  0.181906  0.085303
    C   C83   0.372165  0.263762  0.818094  0.085320
    C   C84   0.627835  0.263762  0.181905  0.085280
    H   H69   0.856859  0.775891  0.845405  0.043209
    H   H70   0.143141  0.775891  0.154595  0.043214
    H   H71   0.356859  0.275891  0.845405  0.043206
    H   H72   0.643141  0.275891  0.154595  0.043222
    C   C85   0.927011  0.748807  0.854247  -0.494825
    C   C86   0.072989  0.748807  0.145753  -0.494793
    C   C87   0.427011  0.248807  0.854247  -0.494844
    C   C88   0.572989  0.248807  0.145753  -0.494792
    C   C89   0.945636  0.733878  0.818012  0.076661
    C   C90   0.054363  0.733878  0.181988  0.076611
    C   C91   0.445636  0.233878  0.818012  0.076667
    C   C92   0.554363  0.233878  0.181988  0.076607
    H   H73   0.988233  0.721729  0.845245  0.046580
    H   H74   0.011766  0.721729  0.154755  0.046597
    H   H75   0.488233  0.221729  0.845245  0.046572
    H   H76   0.511766  0.221729  0.154755  0.046592
    C   C93   0.909467  0.733272  0.746271  -0.098737
    C   C94   0.090533  0.733272  0.253729  -0.098700
    C   C95   0.409467  0.233272  0.746271  -0.098704
    C   C96   0.590533  0.233272  0.253729  -0.098659
    H   H77   0.924732  0.721258  0.718856  0.112404
    H   H78   0.075268  0.721258  0.281144  0.112391
    H   H79   0.424732  0.221258  0.718856  0.112394
    H   H80   0.575268  0.221258  0.281144  0.112382
    C   C97   0.854945  0.748908  0.710163  0.003137
    C   C98   0.145054  0.748908  0.289837  0.003123
    C   C99   0.354945  0.248908  0.710163  0.003041
    C   C100  0.645054  0.248908  0.289837  0.003022
    N   N9    0.021438  0.748677  0.965518  -0.365338
    N   N10   0.978562  0.748677  0.034482  -0.365339
    N   N11   0.521438  0.248677  0.965518  -0.365353
    N   N12   0.478562  0.248677  0.034482  -0.365359
    N   N13   0.055901  0.748938  0.034327  -0.368179
    N   N14   0.944099  0.748938  0.965673  -0.368179
    N   N15   0.555901  0.248938  0.034327  -0.368190
    N   N16   0.444099  0.248938  0.965673  -0.368184
    C   C101  0.034837  0.748806  0.069558  0.977945
    C   C102  0.965163  0.748806  0.930442  0.977955
    C   C103  0.534837  0.248806  0.069558  0.977981
    C   C104  0.465163  0.248806  0.930442  0.977994
    C   C105  0.639124  0.620326  0.443345  -0.058695
    C   C106  0.360876  0.620326  0.556655  -0.058718
    C   C107  0.139124  0.120326  0.443345  -0.058795
    C   C108  0.860876  0.120326  0.556655  -0.058829
    H   H81   0.677982  0.606062  0.454723  0.032427
    H   H82   0.322017  0.606062  0.545277  0.032429
    H   H83   0.177982  0.106062  0.454723  0.032452
    H   H84   0.822017  0.106062  0.545277  0.032471
    H   H85   0.615724  0.636719  0.392159  0.012511
    H   H86   0.384276  0.636719  0.607841  0.012517
    H   H87   0.115724  0.136719  0.392159  0.012554
    H   H88   0.884276  0.136719  0.607841  0.012562
    C   C109  0.607118  0.582741  0.446099  -0.185330
    C   C110  0.392882  0.582741  0.553901  -0.185303
    C   C111  0.107118  0.082741  0.446099  -0.185286
    C   C112  0.892882  0.082741  0.553901  -0.185442
    H   H89   0.637509  0.555050  0.470850  0.124458
    H   H90   0.362491  0.555050  0.529150  0.124443
    H   H91   0.137509  0.055050  0.470850  0.124440
    H   H92   0.862491  0.055050  0.529150  0.124485
    H   H93   0.725437  0.615390  0.579899  0.025565
    H   H94   0.274562  0.615390  0.420101  0.025572
    H   H95   0.225437  0.115390  0.579899  0.025543
    H   H96   0.774562  0.115390  0.420101  0.025560
    H   H97   0.673399  0.565565  0.585999  0.010377
    H   H98   0.326600  0.565565  0.414001  0.010386
    H   H99   0.173399  0.065565  0.585999  0.010406
    H   H100  0.826600  0.065565  0.414001  0.010422
    C   C113  0.687686  0.631854  0.568746  -0.134082
    C   C114  0.312313  0.631854  0.431254  -0.134097
    C   C115  0.187686  0.131854  0.568746  -0.133981
    C   C116  0.812313  0.131854  0.431254  -0.134035
    C   C117  0.600773  0.674151  0.481408  -0.144207
    C   C118  0.399226  0.674151  0.518592  -0.144225
    C   C119  0.100773  0.174151  0.481408  -0.144186
    C   C120  0.899226  0.174151  0.518592  -0.144184
    C   C121  0.654449  0.654243  0.498229  0.294325
    C   C122  0.345551  0.654243  0.501771  0.294344
    C   C123  0.154449  0.154243  0.498229  0.294428
    C   C124  0.845551  0.154243  0.501771  0.294448
    H   H101  0.611709  0.698818  0.521619  0.049915
    H   H102  0.388291  0.698818  0.478381  0.049916
    H   H103  0.111709  0.198818  0.521619  0.049902
    H   H104  0.888291  0.198818  0.478381  0.049901
    H   H105  0.575924  0.690489  0.429764  0.033889
    H   H106  0.424076  0.690489  0.570236  0.033894
    H   H107  0.075924  0.190489  0.429764  0.033883
    H   H108  0.924076  0.190489  0.570236  0.033887
    C   C125  0.594496  0.594029  0.496813  0.129870
    C   C126  0.405504  0.594029  0.503187  0.129910
    C   C127  0.094496  0.094029  0.496813  0.129889
    C   C128  0.905504  0.094029  0.503187  0.129976
    C   C129  0.651021  0.597754  0.569246  0.019459
    C   C130  0.348979  0.597754  0.430754  0.019437
    C   C131  0.151021  0.097754  0.569246  0.019338
    C   C132  0.848979  0.097754  0.430754  0.019327
    C   C133  0.565220  0.638310  0.480836  0.009143
    C   C134  0.434779  0.638310  0.519163  0.009176
    C   C135  0.065220  0.138310  0.480836  0.009137
    C   C136  0.934779  0.138310  0.519163  0.009138
    H   H109  0.522084  0.637717  0.430780  0.006564
    H   H110  0.477915  0.637717  0.569220  0.006547
    H   H111  0.022084  0.137717  0.430780  0.006564
    H   H112  0.977915  0.137717  0.569220  0.006558
    H   H113  0.560799  0.645894  0.521757  0.006894
    H   H114  0.439201  0.645894  0.478243  0.006884
    H   H115  0.060799  0.145894  0.521757  0.006893
    H   H116  0.939201  0.145894  0.478243  0.006885
    H   H117  0.701616  0.656854  0.609673  0.014536
    H   H118  0.298383  0.656854  0.390327  0.014539
    H   H119  0.201616  0.156854  0.609673  0.014520
    H   H120  0.798383  0.156854  0.390327  0.014531
    H   H121  0.644581  0.608302  0.607470  0.029364
    H   H122  0.355418  0.608302  0.392529  0.029364
    H   H123  0.144581  0.108302  0.607470  0.029383
    H   H124  0.855418  0.108302  0.392529  0.029389
    O   O33   0.076180  0.954029  0.558646  -0.594188
    O   O34   0.923819  0.954029  0.441354  -0.594350
    O   O35   0.576180  0.454029  0.558646  -0.594205
    O   O36   0.423819  0.454029  0.441354  -0.594180
    O   O37   0.013855  0.953694  0.438599  -0.646616
    O   O38   0.986144  0.953694  0.561401  -0.646683
    O   O39   0.513855  0.453694  0.438599  -0.646644
    O   O40   0.486144  0.453694  0.561401  -0.646661
    C   C137  0.059119  0.938896  0.498151  0.619708
    C   C138  0.940881  0.938896  0.501849  0.619951
    C   C139  0.559119  0.438896  0.498151  0.619722
    C   C140  0.440881  0.438896  0.501849  0.619794
    Cu  Cu9   0.535795  0.499331  0.569270  0.975014
    Cu  Cu10  0.464205  0.499331  0.430730  0.975094
    Cu  Cu11  0.035795  0.999331  0.569270  0.975027
    Cu  Cu12  0.964205  0.999331  0.430730  0.974998
    O   O41   0.488140  0.546974  0.560863  -0.580423
    O   O42   0.511859  0.546974  0.439137  -0.580423
    O   O43   0.988140  0.046974  0.560863  -0.580440
    O   O44   0.011859  0.046974  0.439137  -0.580457
    O   O45   0.421724  0.542243  0.441762  -0.631929
    O   O46   0.578276  0.542243  0.558238  -0.631938
    O   O47   0.921724  0.042243  0.441762  -0.631953
    O   O48   0.078276  0.042243  0.558238  -0.631899
    C   C141  0.440050  0.558850  0.502113  0.573170
    C   C142  0.559950  0.558850  0.497887  0.573168
    C   C143  0.940050  0.058850  0.502113  0.573229
    C   C144  0.059950  0.058850  0.497887  0.573194
    N   N17   0.557815  0.568838  0.377192  0.028743
    C   C145  0.516304  0.598931  0.323530  -0.047343
    C   C146  0.516848  0.597117  0.261734  0.191089
    O   O49   0.509221  0.553766  0.237586  -0.404399
    C   C147  0.556999  0.530041  0.290281  0.203746
    C   C148  0.557752  0.525598  0.352557  0.052586
    H   H125  0.523896  0.633347  0.341992  0.053067
    H   H126  0.473850  0.588942  0.305963  0.037501
    H   H127  0.556457  0.611351  0.275238  -0.007504
    H   H128  0.481454  0.617622  0.219417  0.025865
    H   H129  0.596370  0.546068  0.305647  -0.013045
    H   H130  0.555076  0.496528  0.270615  0.024160
    H   H131  0.595230  0.506133  0.392985  -0.052634
    H   H132  0.519345  0.507542  0.336616  0.019717
    N   N18   0.442185  0.568838  0.622808  0.028984
    C   C149  0.483696  0.598931  0.676469  -0.047352
    C   C150  0.483151  0.597117  0.738266  0.191097
    O   O50   0.490778  0.553766  0.762414  -0.404388
    C   C151  0.443000  0.530041  0.709718  0.203748
    C   C152  0.442248  0.525598  0.647443  0.052605
    H   H133  0.476104  0.633347  0.658008  0.053068
    H   H134  0.526150  0.588942  0.694037  0.037511
    H   H135  0.443543  0.611351  0.724762  -0.007491
    H   H136  0.518545  0.617622  0.780583  0.025858
    H   H137  0.403629  0.546068  0.694353  -0.013042
    H   H138  0.444924  0.496528  0.729384  0.024160
    H   H139  0.404770  0.506133  0.607015  -0.052645
    H   H140  0.480654  0.507542  0.663384  0.019729
    N   N19   0.057815  0.068838  0.377192  0.028837
    C   C153  0.016304  0.098931  0.323530  -0.047361
    C   C154  0.016848  0.097117  0.261734  0.191080
    O   O51   0.009221  0.053766  0.237586  -0.404402
    C   C155  0.056999  0.030041  0.290281  0.203783
    C   C156  0.057752  0.025598  0.352557  0.052577
    H   H141  0.023896  0.133347  0.341992  0.053063
    H   H142  0.973850  0.088942  0.305963  0.037507
    H   H143  0.056457  0.111351  0.275238  -0.007501
    H   H144  0.981454  0.117622  0.219417  0.025869
    H   H145  0.096370  0.046068  0.305647  -0.013056
    H   H146  0.055076  0.996528  0.270615  0.024148
    H   H147  0.095230  0.006133  0.392985  -0.052642
    H   H148  0.019345  0.007542  0.336616  0.019712
    N   N20   0.942185  0.068838  0.622808  0.028827
    C   C157  0.983696  0.098931  0.676469  -0.047292
    C   C158  0.983151  0.097117  0.738266  0.190995
    O   O52   0.990778  0.053766  0.762414  -0.404427
    C   C159  0.943000  0.030041  0.709718  0.203966
    C   C160  0.942248  0.025598  0.647443  0.052834
    H   H149  0.976104  0.133347  0.658008  0.053066
    H   H150  0.026150  0.088942  0.694037  0.037483
    H   H151  0.943543  0.111351  0.724762  -0.007473
    H   H152  0.018545  0.117622  0.780583  0.025879
    H   H153  0.903629  0.046068  0.694353  -0.013114
    H   H154  0.944924  0.996528  0.729384  0.024064
    H   H155  0.904770  0.006133  0.607015  -0.052749
    H   H156  0.980654  0.007542  0.663384  0.019663
