# Generated by REPEAT Assigner based on pymatgen
data_DB0-m29_o91_o52_f0_pts.sym.95
_audit_creation_date              2022-05-24
_audit_creation_method            REPEAT_Assigner
_cell_length_a                    9.413061
_cell_length_b                    20.155565
_cell_length_c                    19.163342
_cell_angle_alpha                 108.792395
_cell_angle_beta                  85.592008
_cell_angle_gamma                 85.103268
_cell_volume                      3408.344244
_symmetry_space_group_name_H-M    P1
_symmetry_Int_Tables_number       1
loop_
    _symmetry_equiv_pos_site_id
    _symmetry_equiv_pos_as_xyz
    1  x,y,z
loop_
    _atom_site_type_symbol
    _atom_site_label
    _atom_site_fract_x
    _atom_site_fract_y
    _atom_site_fract_z
    _atom_type_partial_charge
    H   H1   0.968110  0.013472  0.657735  0.212069
    C   C1   0.107348  0.010242  0.740413  -0.324785
    C   C2   0.113697  0.004882  0.811139  0.714830
    C   C3   0.988015  0.000194  0.852501  -0.601544
    C   C4   0.860625  0.995814  0.820946  0.095300
    H   H2   0.763047  0.990964  0.851478  0.022098
    C   C5   0.854265  0.001298  0.751621  0.014101
    C   C6   0.975842  0.010341  0.712532  -0.066421
    N   N1   0.873855  0.978521  0.961151  -0.150990
    N   N2   0.870635  0.978814  0.030436  -0.307890
    C   C7   0.979165  0.001461  0.070264  0.757579
    N   N3   0.089116  0.024831  0.039568  -0.242435
    N   N4   0.091748  0.024904  0.970622  -0.257236
    C   C8   0.985631  0.000524  0.929828  0.800209
    C   C9   0.112253  0.001742  0.175352  -0.075669
    H   H3   0.207938  0.008719  0.144860  0.092566
    C   C10  0.122753  0.992975  0.243033  0.134207
    C   C11  0.003134  0.982650  0.282582  -0.176975
    H   H4   0.012453  0.977800  0.336596  0.208820
    C   C12  0.871407  0.982414  0.255286  0.040038
    C   C13  0.862009  0.988295  0.185567  0.010448
    H   H5   0.759891  0.986869  0.163265  0.090573
    C   C14  0.983238  0.997486  0.145226  -0.299607
    O   O1   0.614550  0.984207  0.281720  -0.513936
    C   C15  0.743613  0.978383  0.302223  0.555484
    O   O2   0.579815  0.846187  0.299629  -0.551040
    O   O3   0.757187  0.973288  0.368006  -0.497331
    O   O4   0.494632  0.914942  0.416079  -0.522278
    C   C16  0.550427  0.853087  0.369843  0.640181
    Fe  Fe1  0.472351  0.984477  0.363467  1.439892
    O   O5   0.287696  0.962440  0.320111  -0.607964
    O   O6   0.352621  0.035785  0.257600  -0.492853
    C   C17  0.260028  0.996447  0.273822  0.563416
    O   O7   0.484644  0.079641  0.437864  -0.566921
    O   O8   0.241505  0.084569  0.442977  -0.471851
    C   C18  0.356492  0.112162  0.467821  0.630326
    C   C19  0.926150  0.591618  0.407284  0.390991
    N   N5   0.807448  0.628150  0.451486  -0.085393
    C   C20  0.760837  0.612345  0.511939  0.393122
    C   C21  0.834421  0.558396  0.529416  -0.039542
    C   C22  0.955541  0.520488  0.484588  0.003072
    C   C23  0.001539  0.537215  0.423199  -0.033291
    C   C24  0.787189  0.541943  0.591202  -0.068389
    C   C25  0.861364  0.488224  0.608014  -0.048983
    C   C26  0.983363  0.450503  0.563243  -0.123665
    C   C27  0.030333  0.466402  0.501216  0.175928
    C   C28  0.151878  0.428144  0.456201  -0.273728
    C   C29  0.196232  0.444363  0.392954  0.383495
    C   C30  0.122252  0.499308  0.377820  -0.208409
    C   C31  0.057911  0.396617  0.580020  0.429720
    N   N6   0.177665  0.360384  0.536879  -0.140703
    C   C32  0.226681  0.375499  0.476346  0.525326
    O   O9   0.973008  0.609319  0.348373  -0.422725
    O   O10  0.640529  0.648199  0.554368  -0.476647
    H   H6   0.692458  0.570653  0.627280  0.134572
    H   H7   0.822251  0.476622  0.656810  0.119483
    O   O11  0.009612  0.379233  0.638910  -0.423772
    O   O12  0.351245  0.340705  0.437815  -0.468185
    H   H8   0.158990  0.510990  0.328711  0.129205
    C   C33  0.272545  0.237021  0.505671  -0.276631
    H   H9   0.232361  0.226053  0.452226  0.201314
    C   C34  0.341543  0.182514  0.523619  0.076300
    C   C35  0.386261  0.194956  0.594130  -0.213621
    C   C36  0.370862  0.264119  0.643014  0.497359
    C   C37  0.305541  0.318271  0.622911  -0.378644
    H   H10  0.296618  0.371941  0.660501  0.201715
    C   C38  0.252757  0.304747  0.555292  0.258215
    C   C39  0.711628  0.751644  0.483895  -0.300125
    H   H11  0.752852  0.762434  0.537074  0.188250
    C   C40  0.641414  0.806250  0.466523  0.090351
    C   C41  0.595276  0.794006  0.396343  -0.201913
    C   C42  0.610668  0.725013  0.347172  0.479729
    C   C43  0.677035  0.670759  0.366700  -0.372341
    H   H12  0.685762  0.617173  0.328924  0.197292
    C   C44  0.731270  0.684043  0.433939  0.278758
    O   O13  0.692108  0.027253  0.670377  -0.629521
    O   O14  0.627352  0.955828  0.735038  -0.493371
    C   C45  0.718930  0.995463  0.718690  0.587766
    O   O15  0.497581  0.908676  0.552343  -0.572617
    O   O16  0.740579  0.904160  0.547912  -0.468027
    C   C46  0.625997  0.876502  0.522534  0.625576
    O   O17  0.403671  0.143304  0.691326  -0.580349
    O   O18  0.366479  0.003284  0.708647  -0.606758
    C   C47  0.235444  0.012455  0.691508  0.756581
    O   O19  0.483227  0.073595  0.574465  -0.525547
    C   C48  0.430598  0.135909  0.620842  0.663822
    O   O20  0.218685  0.020229  0.627123  -0.537949
    Fe  Fe2  0.507812  0.004054  0.626926  1.450932
    N   N7   0.431237  0.281177  0.711076  -0.695344
    C   C49  0.336980  0.303714  0.772968  0.828818
    O   O21  0.210678  0.320204  0.769570  -0.523002
    C   C50  0.386968  0.307314  0.845854  -0.488933
    H   H13  0.526772  0.253968  0.714282  0.342990
    H   H14  0.432222  0.253994  0.843807  0.141559
    H   H15  0.295063  0.326991  0.889828  0.135329
    H   H16  0.470496  0.343774  0.858456  0.123764
    N   N8   0.549231  0.708258  0.279407  -0.695198
    C   C51  0.642622  0.685824  0.217182  0.810373
    O   O22  0.769092  0.669128  0.219996  -0.516383
    C   C52  0.591463  0.682626  0.144638  -0.476992
    H   H17  0.453698  0.735738  0.276659  0.344389
    H   H18  0.546231  0.736071  0.147073  0.148752
    H   H19  0.507648  0.646310  0.132253  0.117766
    H   H20  0.682760  0.662982  0.100311  0.137352
    N   N9   0.246244  0.002942  0.840776  -0.854158
    C   C53  0.300826  0.939289  0.842300  1.039126
    O   O23  0.230934  0.889403  0.824563  -0.619744
    C   C54  0.444810  0.929734  0.867528  -0.626491
    H   H21  0.312831  0.041428  0.843616  0.387037
    H   H22  0.493965  0.979794  0.881808  0.160141
    H   H23  0.515087  0.888061  0.822948  0.184003
    H   H24  0.432820  0.913197  0.917339  0.147831
    N   N10  0.315031  0.405662  0.342530  -0.546703
    C   C55  0.283199  0.345789  0.292767  0.805377
    O   O24  0.176975  0.319182  0.305583  -0.575116
    C   C56  0.377526  0.312166  0.221690  -0.460105
    H   H25  0.378238  0.434032  0.319363  0.291214
    H   H26  0.487667  0.298545  0.233569  0.137841
    H   H27  0.380096  0.349148  0.189606  0.094189
    H   H28  0.334959  0.263450  0.188752  0.137878
