# Generated by REPEAT Assigner based on pymatgen
data_DB0-m2_o1_o25_f0_nbo.sym.138_sqe
_audit_creation_date              2022-05-24
_audit_creation_method            REPEAT_Assigner
_cell_length_a                    38.091043
_cell_length_b                    21.652494
_cell_length_c                    21.551801
_cell_angle_alpha                 90.000000
_cell_angle_beta                  56.760372
_cell_angle_gamma                 90.000000
_cell_volume                      14866.913273
_symmetry_space_group_name_H-M    P1
_symmetry_Int_Tables_number       1
loop_
    _symmetry_equiv_pos_site_id
    _symmetry_equiv_pos_as_xyz
    1  x,y,z
loop_
    _atom_site_type_symbol
    _atom_site_label
    _atom_site_fract_x
    _atom_site_fract_y
    _atom_site_fract_z
    _atom_type_partial_charge
    C   C1    0.001411  0.501241  0.380891  0.619664
    C   C2    0.264309  0.472016  0.290835  -0.173226
    C   C3    0.035111  0.781420  0.986495  -0.017720
    C   C4    0.965261  0.717566  0.013013  -0.031301
    C   C5    0.034739  0.717566  0.986987  -0.031324
    C   C6    0.465261  0.217566  0.013013  -0.031320
    C   C7    0.534739  0.217566  0.986987  -0.031353
    C   C8    0.000000  0.685508  0.000000  -0.106652
    C   C9    0.500000  0.185508  0.000000  -0.106589
    C   C10   0.500000  0.313635  0.000000  -0.094412
    C   C11   0.000000  0.813635  0.000000  -0.094436
    C   C12   0.501839  0.718568  0.053283  -0.213542
    C   C13   0.235690  0.972016  0.709165  -0.173058
    C   C14   0.498161  0.718568  0.946718  -0.213520
    C   C15   0.001839  0.218568  0.053283  -0.213545
    C   C16   0.998161  0.218568  0.946718  -0.213519
    C   C17   0.002798  0.282269  0.052843  0.049882
    C   C18   0.997202  0.282269  0.947157  0.049884
    C   C19   0.502798  0.782269  0.052843  0.049899
    C   C20   0.497202  0.782269  0.947157  0.049882
    C   C21   0.000000  0.315121  0.000000  -0.091990
    C   C22   0.500000  0.815121  0.000000  -0.091969
    C   C23   0.500000  0.686393  0.000000  0.147054
    C   C24   0.764309  0.972016  0.290835  -0.173137
    C   C25   0.000000  0.186393  0.000000  0.147075
    C   C26   0.776016  0.561478  0.610519  0.401064
    C   C27   0.223984  0.561478  0.389481  0.401112
    C   C28   0.276016  0.061478  0.610519  0.401095
    C   C29   0.723984  0.061478  0.389481  0.401152
    C   C30   0.943650  0.425694  0.373587  0.481344
    C   C31   0.056350  0.425694  0.626413  0.481230
    C   C32   0.443650  0.925694  0.373587  0.481322
    C   C33   0.556350  0.925694  0.626413  0.481243
    C   C34   0.426441  0.313849  0.031102  0.473609
    C   C35   0.763181  0.528991  0.680899  -0.075715
    C   C36   0.573559  0.313849  0.968898  0.473566
    C   C37   0.926441  0.813849  0.031102  0.473599
    C   C38   0.073559  0.813849  0.968898  0.473529
    C   C39   0.007940  0.312106  0.108603  0.350907
    C   C40   0.992060  0.312106  0.891397  0.350716
    C   C41   0.507940  0.812106  0.108603  0.350886
    C   C42   0.492060  0.812106  0.891397  0.350771
    C   C43   0.720578  0.438610  0.667606  0.309632
    C   C44   0.279422  0.438610  0.332394  0.309461
    C   C45   0.220578  0.938610  0.667606  0.309573
    C   C46   0.236819  0.528991  0.319102  -0.075686
    C   C47   0.779422  0.938610  0.332394  0.309411
    C   C48   0.722563  0.623305  0.771264  0.364965
    C   C49   0.277437  0.623305  0.228736  0.364900
    C   C50   0.222563  0.123305  0.771264  0.364936
    C   C51   0.777437  0.123305  0.228736  0.364872
    C   C52   0.780058  0.563270  0.819575  0.349838
    C   C53   0.219942  0.563270  0.180425  0.349926
    C   C54   0.280058  0.063270  0.819575  0.349870
    C   C55   0.719942  0.063270  0.180425  0.349966
    C   C56   0.778164  0.378295  0.715609  0.393271
    C   C57   0.263181  0.028991  0.680899  -0.075818
    C   C58   0.221836  0.378295  0.284391  0.393447
    C   C59   0.278164  0.878295  0.715609  0.393320
    C   C60   0.721836  0.878295  0.284391  0.393491
    C   C61   0.060092  0.576149  0.256673  0.352246
    C   C62   0.939908  0.576149  0.743327  0.352416
    C   C63   0.560092  0.076149  0.256673  0.352207
    C   C64   0.439908  0.076149  0.743327  0.352388
    C   C65   0.059374  0.574308  0.123956  0.346259
    C   C66   0.940626  0.574308  0.876044  0.346218
    C   C67   0.559374  0.074308  0.123956  0.346231
    C   C68   0.736819  0.028991  0.319102  -0.075809
    C   C69   0.440626  0.074308  0.876044  0.346168
    C   C70   0.937928  0.432541  0.244368  0.379070
    C   C71   0.062072  0.432541  0.755632  0.379098
    C   C72   0.437928  0.932541  0.244368  0.379036
    C   C73   0.562072  0.932541  0.755632  0.379238
    C   C74   0.875376  0.500928  0.618770  -0.052106
    C   C75   0.124624  0.500928  0.381230  -0.052118
    C   C76   0.375376  0.000928  0.618770  -0.052127
    C   C77   0.998589  0.501241  0.619109  0.619741
    C   C78   0.624624  0.000928  0.381230  -0.052023
    C   C79   0.625512  0.499985  0.871352  -0.086328
    C   C80   0.374488  0.499985  0.128648  -0.086312
    C   C81   0.125512  0.999985  0.871352  -0.086325
    C   C82   0.874488  0.999985  0.128648  -0.086257
    C   C83   0.764015  0.443916  0.730372  0.068923
    C   C84   0.235984  0.443916  0.269628  0.068860
    C   C85   0.264015  0.943916  0.730372  0.068824
    C   C86   0.735984  0.943916  0.269628  0.068752
    C   C87   0.791563  0.500795  0.702015  0.522236
    C   C88   0.501411  0.001241  0.380891  0.619739
    C   C89   0.208437  0.500795  0.297985  0.522448
    C   C90   0.291563  0.000795  0.702015  0.522342
    C   C91   0.708437  0.000795  0.297985  0.522625
    C   C92   0.737284  0.472006  0.807631  -0.448079
    C   C93   0.262716  0.472006  0.192369  -0.448018
    C   C94   0.237284  0.972006  0.807631  -0.448027
    C   C95   0.762716  0.972006  0.192369  -0.447965
    C   C96   0.709253  0.500644  0.785379  0.794596
    C   C97   0.290747  0.500644  0.214621  0.794475
    C   C98   0.209253  0.000644  0.785379  0.794514
    C   C99   0.498589  0.001241  0.619109  0.619771
    C   C100  0.790747  0.000644  0.214621  0.794430
    C   C101  0.764911  0.529366  0.778350  0.123296
    C   C102  0.235089  0.529366  0.221650  0.123189
    C   C103  0.264911  0.029366  0.778350  0.123216
    C   C104  0.735089  0.029366  0.221650  0.123084
    C   C105  0.736599  0.557630  0.757227  -0.245006
    C   C106  0.263401  0.557630  0.242773  -0.244971
    C   C107  0.236599  0.057630  0.757227  -0.244916
    C   C108  0.763401  0.057630  0.242773  -0.244881
    C   C109  0.837549  0.500804  0.656081  -0.327008
    C   C110  0.920423  0.501235  0.575050  0.784819
    C   C111  0.162451  0.500804  0.343919  -0.327075
    C   C112  0.337549  0.000804  0.656081  -0.327012
    C   C113  0.662451  0.000804  0.343919  -0.327168
    C   C114  0.663314  0.500303  0.832492  -0.390091
    C   C115  0.336686  0.500303  0.167508  -0.390078
    C   C116  0.163314  0.000303  0.832492  -0.390081
    C   C117  0.836686  0.000303  0.167508  -0.390112
    C   C118  0.029907  0.536897  0.252574  -0.073099
    C   C119  0.970093  0.536897  0.747426  -0.073268
    C   C120  0.529907  0.036897  0.252574  -0.073113
    C   C121  0.079577  0.501235  0.424951  0.784859
    C   C122  0.470093  0.036897  0.747426  -0.073312
    C   C123  0.029373  0.536571  0.188698  0.005592
    C   C124  0.970627  0.536571  0.811302  0.005800
    C   C125  0.529373  0.036571  0.188698  0.005662
    C   C126  0.470627  0.036571  0.811302  0.005896
    C   C127  0.999809  0.501466  0.185965  -0.155801
    C   C128  0.000191  0.501466  0.814035  -0.155848
    C   C129  0.499809  0.001466  0.185965  -0.155815
    C   C130  0.500191  0.001466  0.814035  -0.155937
    C   C131  0.970646  0.466626  0.246874  0.045102
    C   C132  0.420423  0.001235  0.575050  0.784849
    C   C133  0.029354  0.466626  0.753126  0.045059
    C   C134  0.470646  0.966626  0.246874  0.045093
    C   C135  0.529354  0.966626  0.753126  0.045049
    C   C136  0.972229  0.465235  0.309816  -0.119921
    C   C137  0.027771  0.465235  0.690184  -0.119860
    C   C138  0.472229  0.965235  0.309816  -0.119906
    C   C139  0.527771  0.965235  0.690184  -0.119916
    C   C140  0.001471  0.500901  0.312821  0.045166
    C   C141  0.998529  0.500901  0.687179  0.045211
    C   C142  0.501471  0.000901  0.312821  0.045144
    C   C143  0.579577  0.001235  0.424951  0.784780
    C   C144  0.498529  0.000901  0.687179  0.045278
    C   C145  0.500000  0.381251  0.000000  0.554961
    C   C146  0.000000  0.881251  0.000000  0.555002
    C   C147  0.580494  0.499493  0.917679  0.834227
    C   C148  0.419506  0.499493  0.082321  0.834200
    C   C149  0.080494  0.999493  0.917679  0.834236
    C   C150  0.919506  0.999493  0.082321  0.834149
    C   C151  0.500000  0.618635  0.000000  0.574341
    C   C152  0.000000  0.118635  0.000000  0.574352
    C   C153  0.000000  0.383168  0.000000  0.729634
    C   C154  0.735690  0.472016  0.709165  -0.173166
    C   C155  0.500000  0.883168  0.000000  0.729508
    C   C156  0.999769  0.501054  0.117955  0.706218
    C   C157  0.000231  0.501054  0.882045  0.705859
    C   C158  0.499769  0.001054  0.117955  0.706150
    C   C159  0.500231  0.001054  0.882045  0.705916
    C   C160  0.000000  0.617740  0.000000  0.608225
    C   C161  0.500000  0.117740  0.000000  0.608137
    C   C162  0.464889  0.281420  0.013505  -0.017793
    C   C163  0.535111  0.281420  0.986495  -0.017737
    C   C164  0.964889  0.781420  0.013505  -0.017789
    Cu  Cu1   0.000000  0.440769  0.500000  0.970796
    Cu  Cu2   0.958973  0.500508  0.039569  0.933316
    Cu  Cu3   0.541026  0.000508  0.960432  0.933069
    Cu  Cu4   0.458973  0.000508  0.039569  0.933279
    Cu  Cu5   0.500000  0.940769  0.500000  0.970806
    Cu  Cu6   0.000000  0.561748  0.500000  1.050881
    Cu  Cu7   0.500000  0.061748  0.500000  1.050850
    Cu  Cu8   0.498312  0.499878  0.939884  0.990784
    Cu  Cu9   0.501688  0.499878  0.060116  0.990759
    Cu  Cu10  0.998312  0.999878  0.939884  0.990832
    Cu  Cu11  0.001688  0.999878  0.060116  0.990808
    Cu  Cu12  0.041026  0.500508  0.960432  0.933096
    H   H1    0.726658  0.448080  0.860606  0.150421
    H   H2    0.496166  0.694165  0.905040  0.147209
    H   H3    0.003834  0.194165  0.094960  0.147279
    H   H4    0.996166  0.194165  0.905040  0.147214
    H   H5    0.752217  0.579615  0.602604  0.037002
    H   H6    0.247783  0.579615  0.397396  0.036998
    H   H7    0.252217  0.079615  0.602604  0.036996
    H   H8    0.747783  0.079615  0.397396  0.036992
    H   H9    0.929621  0.442596  0.429645  0.004535
    H   H10   0.070379  0.442596  0.570355  0.004564
    H   H11   0.429621  0.942596  0.429645  0.004518
    H   H12   0.273342  0.448080  0.139394  0.150424
    H   H13   0.570379  0.942596  0.570355  0.004560
    H   H14   0.423112  0.363325  0.039352  -0.004166
    H   H15   0.576888  0.363325  0.960648  -0.004155
    H   H16   0.923112  0.863325  0.039352  -0.004151
    H   H17   0.076888  0.863325  0.960648  -0.004139
    H   H18   0.999477  0.286881  0.158399  0.026982
    H   H19   0.000523  0.286881  0.841601  0.027073
    H   H20   0.499477  0.786881  0.158399  0.026982
    H   H21   0.500523  0.786881  0.841601  0.027055
    H   H22   0.743111  0.420009  0.613063  0.048791
    H   H23   0.226658  0.948080  0.860606  0.150414
    H   H24   0.256889  0.420009  0.386937  0.048841
    H   H25   0.243111  0.920009  0.613063  0.048805
    H   H26   0.756889  0.920009  0.386937  0.048853
    H   H27   0.745701  0.659985  0.747771  0.029793
    H   H28   0.254299  0.659985  0.252229  0.029794
    H   H29   0.245701  0.159985  0.747771  0.029798
    H   H30   0.754299  0.159985  0.252229  0.029799
    H   H31   0.757525  0.581899  0.874099  0.021103
    H   H32   0.242475  0.581899  0.125901  0.021091
    H   H33   0.257525  0.081899  0.874099  0.021098
    H   H34   0.773342  0.948080  0.139394  0.150417
    H   H35   0.742475  0.081899  0.125901  0.021085
    H   H36   0.755085  0.341537  0.739047  0.015482
    H   H37   0.244914  0.341537  0.260953  0.015410
    H   H38   0.255085  0.841537  0.739047  0.015471
    H   H39   0.744914  0.841537  0.260953  0.015401
    H   H40   0.066469  0.622626  0.234343  0.030128
    H   H41   0.933531  0.622626  0.765657  0.030081
    H   H42   0.566469  0.122626  0.234343  0.030138
    H   H43   0.433531  0.122626  0.765657  0.030092
    H   H44   0.049360  0.597666  0.091756  0.011419
    H   H45   0.937979  0.692525  0.023645  0.149336
    H   H46   0.950640  0.597666  0.908244  0.011436
    H   H47   0.549360  0.097666  0.091756  0.011427
    H   H48   0.450640  0.097666  0.908244  0.011447
    H   H49   0.944978  0.410897  0.193496  0.044709
    H   H50   0.055022  0.410897  0.806504  0.044684
    H   H51   0.444977  0.910897  0.193496  0.044733
    H   H52   0.555022  0.910897  0.806504  0.044577
    H   H53   0.062021  0.692525  0.976355  0.149329
    H   H54   0.437979  0.192525  0.023645  0.149335
    H   H55   0.562021  0.192525  0.976355  0.149330
    H   H56   0.503834  0.694165  0.094960  0.147277
    O   O1    0.012079  0.450060  0.399919  -0.561623
    O   O2    0.059788  0.450058  0.459902  -0.565791
    O   O3    0.440212  0.950058  0.540098  -0.565788
    O   O4    0.559788  0.950058  0.459902  -0.565796
    O   O5    0.939829  0.552435  0.572943  -0.599783
    O   O6    0.060171  0.552435  0.427057  -0.599724
    O   O7    0.439829  0.052435  0.572943  -0.599779
    O   O8    0.560171  0.052435  0.427057  -0.599715
    O   O9    0.496702  0.410111  0.949935  -0.565845
    O   O10   0.503298  0.410111  0.050065  -0.565838
    O   O11   0.996702  0.910111  0.949935  -0.565867
    O   O12   0.987921  0.450060  0.600081  -0.561620
    O   O13   0.003298  0.910111  0.050065  -0.565859
    O   O14   0.559505  0.502013  0.885734  -0.605954
    O   O15   0.440495  0.502013  0.114266  -0.605928
    O   O16   0.059505  0.002013  0.885734  -0.605965
    O   O17   0.940495  0.002013  0.114266  -0.605928
    O   O18   0.562469  0.502428  0.989747  -0.614816
    O   O19   0.437531  0.502428  0.010253  -0.614821
    O   O20   0.062469  0.002428  0.989747  -0.614831
    O   O21   0.937531  0.002428  0.010253  -0.614828
    O   O22   0.496920  0.589662  0.949658  -0.548564
    O   O23   0.512079  0.950060  0.399919  -0.561643
    O   O24   0.503080  0.589662  0.050342  -0.548568
    O   O25   0.996920  0.089662  0.949658  -0.548604
    O   O26   0.003080  0.089662  0.050342  -0.548596
    O   O27   0.034706  0.412289  0.949732  -0.587085
    O   O28   0.965294  0.412289  0.050268  -0.587174
    O   O29   0.534706  0.912289  0.949732  -0.587021
    O   O30   0.465294  0.912289  0.050268  -0.587121
    O   O31   0.034437  0.483982  0.055370  -0.490880
    O   O32   0.965563  0.483982  0.944630  -0.490853
    O   O33   0.534437  0.983982  0.055370  -0.490858
    O   O34   0.487921  0.950060  0.600081  -0.561660
    O   O35   0.465563  0.983982  0.944630  -0.490837
    O   O36   0.965075  0.517277  0.122298  -0.590941
    O   O37   0.034925  0.517277  0.877702  -0.590744
    O   O38   0.465075  0.017277  0.122298  -0.590900
    O   O39   0.534925  0.017277  0.877702  -0.590753
    O   O40   0.034604  0.588664  0.983386  -0.545499
    O   O41   0.965396  0.588664  0.016614  -0.545530
    O   O42   0.534604  0.088664  0.983386  -0.545459
    O   O43   0.465396  0.088664  0.016614  -0.545492
    O   O44   0.813046  0.567725  0.561896  -0.422702
    O   O45   0.990125  0.552450  0.420634  -0.612210
    O   O46   0.186954  0.567725  0.438104  -0.422717
    O   O47   0.313046  0.067725  0.561896  -0.422706
    O   O48   0.686954  0.067725  0.438104  -0.422726
    O   O49   0.937247  0.372363  0.364209  -0.409079
    O   O50   0.062753  0.372363  0.635791  -0.409056
    O   O51   0.437247  0.872363  0.364209  -0.409071
    O   O52   0.562753  0.872363  0.635791  -0.409060
    O   O53   0.397030  0.284822  0.038170  -0.469337
    O   O54   0.602970  0.284822  0.961830  -0.469321
    O   O55   0.897030  0.784822  0.038170  -0.469340
    O   O56   0.009875  0.552450  0.579366  -0.612256
    O   O57   0.102970  0.784822  0.961830  -0.469312
    O   O58   0.025765  0.361536  0.096548  -0.375820
    O   O59   0.974235  0.361536  0.903452  -0.375694
    O   O60   0.525765  0.861536  0.096548  -0.375814
    O   O61   0.474235  0.861536  0.903452  -0.375703
    O   O62   0.683110  0.432129  0.694515  -0.380024
    O   O63   0.316890  0.432129  0.305485  -0.379974
    O   O64   0.183110  0.932129  0.694515  -0.380007
    O   O65   0.816890  0.932129  0.305485  -0.379958
    O   O66   0.685304  0.635985  0.808881  -0.386561
    O   O67   0.490125  0.052450  0.420634  -0.612200
    O   O68   0.314696  0.635985  0.191119  -0.386525
    O   O69   0.185304  0.135985  0.808881  -0.386557
    O   O70   0.814696  0.135985  0.191119  -0.386520
    O   O71   0.817516  0.570212  0.792422  -0.394044
    O   O72   0.182484  0.570212  0.207578  -0.394079
    O   O73   0.317516  0.070212  0.792422  -0.394049
    O   O74   0.682484  0.070212  0.207578  -0.394087
    O   O75   0.815430  0.365737  0.677369  -0.416046
    O   O76   0.184570  0.365737  0.322631  -0.416069
    O   O77   0.315430  0.865737  0.677369  -0.416061
    O   O78   0.509875  0.052450  0.579366  -0.612253
    O   O79   0.684570  0.865737  0.322631  -0.416079
    O   O80   0.080554  0.555486  0.279870  -0.285860
    O   O81   0.919446  0.555486  0.720131  -0.285902
    O   O82   0.580554  0.055486  0.279870  -0.285857
    O   O83   0.419446  0.055486  0.720131  -0.285907
    O   O84   0.096262  0.576963  0.103129  -0.365115
    O   O85   0.903738  0.576963  0.896871  -0.365103
    O   O86   0.596262  0.076963  0.103129  -0.365106
    O   O87   0.403738  0.076963  0.896871  -0.365089
    O   O88   0.901757  0.431915  0.297936  -0.407568
    O   O89   0.940212  0.450058  0.540098  -0.565800
    O   O90   0.098243  0.431915  0.702064  -0.407544
    O   O91   0.401757  0.931915  0.297936  -0.407543
    O   O92   0.598243  0.931915  0.702064  -0.407565
