# Generated by REPEAT Assigner based on pymatgen
data_DB0-m3_o530_o6_f0_fsc.sym.47
_audit_creation_date              2022-05-24
_audit_creation_method            REPEAT_Assigner
_cell_length_a                    18.927946
_cell_length_b                    8.537464
_cell_length_c                    14.420454
_cell_angle_alpha                 90.000000
_cell_angle_beta                  102.080784
_cell_angle_gamma                 90.000000
_cell_volume                      2278.689133
_symmetry_space_group_name_H-M    P1
_symmetry_Int_Tables_number       1
loop_
    _symmetry_equiv_pos_site_id
    _symmetry_equiv_pos_as_xyz
    1  x,y,z
loop_
    _atom_site_type_symbol
    _atom_site_label
    _atom_site_fract_x
    _atom_site_fract_y
    _atom_site_fract_z
    _atom_type_partial_charge
    C   C1   0.842692  0.916298  0.951168  0.440286
    C   C2   0.157387  0.088359  0.048868  0.411167
    C   C3   0.129229  0.913403  0.921146  0.453427
    C   C4   0.870832  0.091278  0.078882  0.453475
    N   N1   0.822247  0.003562  0.019014  -0.181943
    N   N2   0.177820  0.001081  0.981018  -0.168600
    C   C5   0.942614  0.092059  0.072123  -0.116010
    C   C6   0.057454  0.912654  0.927912  -0.110580
    C   C7   0.085940  0.090249  0.057324  -0.063518
    C   C8   0.914137  0.914448  0.942715  -0.095626
    C   C9   0.964295  0.002792  0.003710  0.101059
    C   C10  0.035778  0.001914  0.996331  0.083611
    C   C11  0.992901  0.180322  0.133807  -0.041181
    C   C12  0.007169  0.824423  0.866219  -0.054308
    C   C13  0.064369  0.179407  0.126457  -0.105005
    C   C14  0.935708  0.825319  0.873573  -0.071485
    O   O1   0.793044  0.834379  0.889920  -0.473428
    O   O2   0.207048  0.170258  0.110106  -0.462367
    O   O3   0.150459  0.830101  0.852782  -0.481743
    O   O4   0.849590  0.174596  0.147230  -0.479846
    H   H1   0.977141  0.250985  0.188252  0.121509
    H   H2   0.022927  0.753783  0.811767  0.124704
    H   H3   0.102763  0.249543  0.175263  0.134488
    H   H4   0.897323  0.755182  0.824759  0.119292
    C   C15  0.287115  0.861695  0.966760  -0.272275
    C   C16  0.712928  0.142934  0.033221  -0.270898
    C   C17  0.712450  0.862441  0.030822  -0.291418
    C   C18  0.287600  0.142175  0.969157  -0.290710
    H   H5   0.261258  0.751803  0.976519  0.146644
    H   H6   0.738802  0.252829  0.023514  0.144445
    H   H7   0.738765  0.752044  0.023842  0.154236
    H   H8   0.261306  0.252576  0.976187  0.155400
    C   C19  0.357297  0.862195  0.953985  0.016158
    C   C20  0.642726  0.142426  0.045937  0.017656
    C   C21  0.642434  0.862789  0.044307  -0.025915
    C   C22  0.357597  0.141820  0.955622  -0.023736
    C   C23  0.391144  0.002133  0.944804  -0.155157
    C   C24  0.608872  0.002481  0.055067  -0.155914
    C   C25  0.251273  0.001856  0.971324  0.329650
    C   C26  0.748781  0.002772  0.028676  0.335395
    H   H9   0.447086  0.002185  0.938954  0.137723
    H   H10  0.552915  0.002430  0.060842  0.137850
    O   O5   0.423612  0.671121  0.055073  -0.716234
    O   O6   0.576401  0.333509  0.944855  -0.714048
    O   O7   0.576242  0.670471  0.944060  -0.678400
    O   O8   0.423764  0.334157  0.055879  -0.674939
    O   O9   0.426245  0.665665  0.895767  -0.724329
    O   O10  0.573762  0.338948  0.104182  -0.721591
    O   O11  0.573594  0.667088  0.103391  -0.713695
    O   O12  0.426420  0.337526  0.896547  -0.715961
    C   C27  0.401392  0.720636  0.967734  0.838994
    C   C28  0.598620  0.283986  0.032201  0.835571
    C   C29  0.598406  0.721126  0.031157  0.837911
    C   C30  0.401618  0.283480  0.968782  0.835561
    Zn  Zn1  0.503092  0.501657  0.897322  1.101942
    Zn  Zn2  0.496915  0.502968  0.102617  1.093893
    C   C31  0.562842  0.504162  0.466218  -0.258322
    C   C32  0.436951  0.503377  0.533691  -0.251469
    H   H11  0.610221  0.503559  0.435871  0.179856
    H   H12  0.389592  0.502106  0.564064  0.183545
    C   C33  0.496705  0.504777  0.403983  0.166671
    C   C34  0.503087  0.503092  0.595912  0.158871
    C   C35  0.433129  0.505507  0.436604  0.047855
    C   C36  0.566647  0.504428  0.563304  0.069393
    C   C37  0.494662  0.504194  0.303920  0.091901
    C   C38  0.505207  0.501682  0.695987  0.094487
    N   N3   0.506220  0.500922  0.776480  -0.100256
    N   N4   0.493770  0.503745  0.223455  -0.097726
    C   C39  0.636321  0.502862  0.636103  -0.267125
    C   C40  0.704579  0.511318  0.596061  0.618742
    C   C41  0.714671  0.675920  0.560702  -0.406662
    C   C42  0.769173  0.471311  0.674093  -0.475782
    H   H13  0.637959  0.393610  0.678102  0.074756
    H   H14  0.636568  0.603654  0.684706  0.097852
    H   H15  0.702909  0.424017  0.538883  -0.093497
    H   H16  0.730657  0.756115  0.622005  0.101677
    H   H17  0.664052  0.720471  0.515566  0.068087
    H   H18  0.757857  0.674986  0.519252  0.075207
    H   H19  0.770028  0.547677  0.736535  0.119711
    H   H20  0.819612  0.488723  0.647752  0.105638
    H   H21  0.765907  0.347086  0.695321  0.080269
    C   C43  0.363401  0.505341  0.363868  -0.210639
    C   C44  0.295204  0.513936  0.404080  0.535145
    C   C45  0.285744  0.677958  0.440775  -0.372741
    C   C46  0.230374  0.476255  0.325868  -0.379706
    H   H22  0.361460  0.396626  0.321315  0.071689
    H   H23  0.363364  0.606714  0.315756  0.082486
    H   H24  0.296595  0.425503  0.460585  -0.089840
    H   H25  0.269964  0.759549  0.380138  0.083127
    H   H26  0.336539  0.721110  0.486170  0.064224
    H   H27  0.242625  0.676659  0.482331  0.078896
    H   H28  0.229605  0.554085  0.264090  0.074526
    H   H29  0.180078  0.493454  0.352580  0.079098
    H   H30  0.233198  0.352513  0.303501  0.088870
