data_DB0-m29_o96_o1490_f0_pts.sym.84_repeat
_audit_creation_date              2024-02-23
_audit_creation_method            'Materials Studio'
_symmetry_space_group_name_H-M    'P1'
_symmetry_Int_Tables_number       1
_symmetry_cell_setting            triclinic
loop_
_symmetry_equiv_pos_as_xyz
  x,y,z
_cell_length_a                    17.3733
_cell_length_b                    11.9600
_cell_length_c                    19.0631
_cell_angle_alpha                 88.7727
_cell_angle_beta                  90.6177
_cell_angle_gamma                 108.7848
loop_
_atom_site_label
_atom_site_type_symbol
_atom_site_fract_x
_atom_site_fract_y
_atom_site_fract_z
_atom_site_U_iso_or_equiv
_atom_site_adp_type
_atom_site_occupancy
C1     C     0.22509   0.99795   0.11017   0.00000  Uiso   1.00
C2     C     0.16998   0.95909   0.16286   0.00000  Uiso   1.00
C3     C     0.09482   0.95328   0.13633   0.00000  Uiso   1.00
N1     N     0.10110   0.98310   0.06753   0.00000  Uiso   1.00
C4     C     0.18052   0.00871   0.05074   0.00000  Uiso   1.00
C5     C     0.02701   0.92803   0.17442   0.00000  Uiso   1.00
C6     C     0.95058   0.94434   0.14991   0.00000  Uiso   1.00
C7     C     0.89492   0.97193   0.19208   0.00000  Uiso   1.00
C8     C     0.83073   0.97192   0.15042   0.00000  Uiso   1.00
C9     C     0.84877   0.94683   0.08310   0.00000  Uiso   1.00
N2     N     0.92166   0.92839   0.08358   0.00000  Uiso   1.00
C10    C     0.79709   0.94343   0.02066   0.00000  Uiso   1.00
C11    C     0.82641   0.96734   0.95543   0.00000  Uiso   1.00
C12    C     0.78229   0.98082   0.89683   0.00000  Uiso   1.00
C13    C     0.83611   0.01599   0.84318   0.00000  Uiso   1.00
C14    C     0.91105   0.01829   0.86879   0.00000  Uiso   1.00
N3     N     0.90532   0.98963   0.93791   0.00000  Uiso   1.00
C15    C     0.97779   0.03751   0.82980   0.00000  Uiso   1.00
C16    C     0.05438   0.02390   0.85586   0.00000  Uiso   1.00
C17    C     0.10994   0.99486   0.81485   0.00000  Uiso   1.00
C18    C     0.17332   0.99393   0.85685   0.00000  Uiso   1.00
C19    C     0.15555   0.02232   0.92339   0.00000  Uiso   1.00
N4     N     0.08306   0.04200   0.92218   0.00000  Uiso   1.00
C20    C     0.20852   0.03078   0.98506   0.00000  Uiso   1.00
H1     H     0.03001   0.90373   0.22883   0.00000  Uiso   1.00
H2     H     0.73373   0.93315   0.02928   0.00000  Uiso   1.00
H3     H     0.97372   0.05312   0.77405   0.00000  Uiso   1.00
H4     H     0.27122   0.04172   0.97442   0.00000  Uiso   1.00
H5     H     0.94841   0.89934   0.04218   0.00000  Uiso   1.00
H6     H     0.05681   0.07332   0.96299   0.00000  Uiso   1.00
C21    C     0.10839   0.96929   0.74489   0.00000  Uiso   1.00
C22    C     0.17459   0.94476   0.71763   0.00000  Uiso   1.00
C23    C     0.24068   0.94508   0.76002   0.00000  Uiso   1.00
C24    C     0.23981   0.96860   0.83112   0.00000  Uiso   1.00
C25    C     0.30776   0.02048   0.12300   0.00000  Uiso   1.00
C26    C     0.33062   0.99329   0.18989   0.00000  Uiso   1.00
C27    C     0.27252   0.94881   0.24169   0.00000  Uiso   1.00
C28    C     0.19189   0.93381   0.22914   0.00000  Uiso   1.00
C29    C     0.89662   0.99943   0.26228   0.00000  Uiso   1.00
C30    C     0.82917   0.01931   0.29009   0.00000  Uiso   1.00
C31    C     0.76207   0.01503   0.24845   0.00000  Uiso   1.00
C32    C     0.76320   0.99343   0.17704   0.00000  Uiso   1.00
C33    C     0.70039   0.96298   0.88672   0.00000  Uiso   1.00
C34    C     0.67538   0.98729   0.82037   0.00000  Uiso   1.00
C35    C     0.73186   0.02939   0.76688   0.00000  Uiso   1.00
C36    C     0.81278   0.04200   0.77748   0.00000  Uiso   1.00
H7     H     0.05776   0.96908   0.71143   0.00000  Uiso   1.00
H8     H     0.29053   0.96990   0.86471   0.00000  Uiso   1.00
H9     H     0.29030   0.92949   0.29386   0.00000  Uiso   1.00
H10    H     0.14848   0.90190   0.27095   0.00000  Uiso   1.00
H11    H     0.71191   0.99054   0.14377   0.00000  Uiso   1.00
H12    H     0.65669   0.93042   0.92834   0.00000  Uiso   1.00
H13    H     0.71243   0.04728   0.71502   0.00000  Uiso   1.00
H14    H     0.85532   0.07163   0.73480   0.00000  Uiso   1.00
H15    H     0.17435   0.92656   0.66235   0.00000  Uiso   1.00
H16    H     0.82925   0.03724   0.34540   0.00000  Uiso   1.00
O1     O     0.62251   0.01453   0.24607   0.00000  Uiso   1.00
C37    C     0.68948   0.02706   0.28210   0.00000  Uiso   1.00
O2     O     0.56251   0.78271   0.33054   0.00000  Uiso   1.00
O3     O     0.68851   0.03794   0.35040   0.00000  Uiso   1.00
O4     O     0.50928   0.89738   0.39445   0.00000  Uiso   1.00
C38    C     0.52560   0.79836   0.38737   0.00000  Uiso   1.00
Fe1    Fe    0.53214   0.00393   0.31093   0.00000  Uiso   1.00
O5     O     0.42833   0.93806   0.25670   0.00000  Uiso   1.00
O6     O     0.47134   0.11391   0.19775   0.00000  Uiso   1.00
C39    C     0.41508   0.01210   0.21029   0.00000  Uiso   1.00
O7     O     0.56440   0.16948   0.34656   0.00000  Uiso   1.00
O8     O     0.42822   0.11467   0.35841   0.00000  Uiso   1.00
C40    C     0.50008   0.19059   0.37150   0.00000  Uiso   1.00
C41    C     0.50714   0.18660   0.49726   0.00000  Uiso   1.00
C42    C     0.50302   0.23180   0.56215   0.00000  Uiso   1.00
C43    C     0.50369   0.34696   0.56780   0.00000  Uiso   1.00
C44    C     0.50877   0.25300   0.43775   0.00000  Uiso   1.00
C45    C     0.50682   0.36728   0.44261   0.00000  Uiso   1.00
C46    C     0.50584   0.41722   0.50778   0.00000  Uiso   1.00
C47    C     0.50553   0.53465   0.51061   0.00000  Uiso   1.00
C48    C     0.50310   0.59039   0.57416   0.00000  Uiso   1.00
C49    C     0.50404   0.70572   0.57453   0.00000  Uiso   1.00
N5     N     0.50331   0.42798   0.38344   0.00000  Uiso   1.00
C50    C     0.50293   0.53987   0.38466   0.00000  Uiso   1.00
C51    C     0.50819   0.59814   0.44767   0.00000  Uiso   1.00
C52    C     0.51386   0.71776   0.44916   0.00000  Uiso   1.00
C53    C     0.51068   0.76827   0.51286   0.00000  Uiso   1.00
H17    H     0.49649   0.58068   0.33515   0.00000  Uiso   1.00
H18    H     0.50562   0.09628   0.49149   0.00000  Uiso   1.00
H19    H     0.51618   0.86053   0.51607   0.00000  Uiso   1.00
H20    H     0.50058   0.37712   0.61993   0.00000  Uiso   1.00
H21    H     0.50210   0.54925   0.62490   0.00000  Uiso   1.00
O9     O     0.57112   0.02618   0.75278   0.00000  Uiso   1.00
O10    O     0.53609   0.86167   0.82321   0.00000  Uiso   1.00
C54    C     0.58946   0.96198   0.80281   0.00000  Uiso   1.00
O11    O     0.44538   0.77619   0.67064   0.00000  Uiso   1.00
O12    O     0.57764   0.86407   0.64530   0.00000  Uiso   1.00
C55    C     0.51161   0.77270   0.63903   0.00000  Uiso   1.00
O13    O     0.49009   0.19128   0.68722   0.00000  Uiso   1.00
O14    O     0.37652   0.92795   0.76494   0.00000  Uiso   1.00
C56    C     0.31276   0.92912   0.72740   0.00000  Uiso   1.00
O15    O     0.48424   0.04157   0.61347   0.00000  Uiso   1.00
C57    C     0.49358   0.15325   0.62365   0.00000  Uiso   1.00
O16    O     0.31694   0.92792   0.65876   0.00000  Uiso   1.00
Fe2    Fe    0.46823   0.94380   0.70050   0.00000  Uiso   1.00
N6     N     0.96383   0.00596   0.30606   0.00000  Uiso   1.00
C58    C     0.00692   0.12250   0.32670   0.00000  Uiso   1.00
C59    C     0.03197   0.14385   0.39566   0.00000  Uiso   1.00
C60    C     0.07427   0.25694   0.41632   0.00000  Uiso   1.00
C61    C     0.09234   0.34921   0.36820   0.00000  Uiso   1.00
C62    C     0.06852   0.32829   0.29924   0.00000  Uiso   1.00
C63    C     0.02612   0.21534   0.27833   0.00000  Uiso   1.00
H22    H     0.94690   0.94993   0.34893   0.00000  Uiso   1.00
H23    H     0.01853   0.07249   0.43411   0.00000  Uiso   1.00
H24    H     0.09337   0.27321   0.47035   0.00000  Uiso   1.00
H25    H     0.12561   0.43781   0.38445   0.00000  Uiso   1.00
H26    H     0.08340   0.40053   0.26136   0.00000  Uiso   1.00
H27    H     0.00950   0.20111   0.22368   0.00000  Uiso   1.00
N7     N     0.36644   0.06213   0.06952   0.00000  Uiso   1.00
C64    C     0.40378   0.18650   0.06461   0.00000  Uiso   1.00
C65    C     0.48084   0.23113   0.03618   0.00000  Uiso   1.00
C66    C     0.51897   0.35134   0.03023   0.00000  Uiso   1.00
C67    C     0.48031   0.42822   0.05232   0.00000  Uiso   1.00
C68    C     0.40330   0.38478   0.08010   0.00000  Uiso   1.00
C69    C     0.36481   0.26456   0.08622   0.00000  Uiso   1.00
H28    H     0.40802   0.01745   0.06785   0.00000  Uiso   1.00
H29    H     0.51196   0.17203   0.01829   0.00000  Uiso   1.00
H30    H     0.57927   0.38528   0.00810   0.00000  Uiso   1.00
H31    H     0.51019   0.52250   0.04759   0.00000  Uiso   1.00
H32    H     0.37275   0.44520   0.09702   0.00000  Uiso   1.00
H33    H     0.30417   0.23483   0.10754   0.00000  Uiso   1.00
