# Generated by REPEAT Assigner based on pymatgen
data_DB0-m3_o1490_o6_f0_fsc.sym.64
_audit_creation_date              2022-05-24
_audit_creation_method            REPEAT_Assigner
_cell_length_a                    8.524489
_cell_length_b                    10.682114
_cell_length_c                    14.425693
_cell_angle_alpha                 97.757819
_cell_angle_beta                  90.093891
_cell_angle_gamma                 90.008414
_cell_volume                      1301.572706
_symmetry_space_group_name_H-M    P1
_symmetry_Int_Tables_number       1
loop_
    _symmetry_equiv_pos_site_id
    _symmetry_equiv_pos_as_xyz
    1  x,y,z
loop_
    _atom_site_type_symbol
    _atom_site_label
    _atom_site_fract_x
    _atom_site_fract_y
    _atom_site_fract_z
    _atom_type_partial_charge
    C   C1   0.001314  0.691280  0.049113  -0.054589
    C   C2   0.141723  0.748594  0.035405  -0.080380
    C   C3   0.144800  0.869629  0.013724  -0.098195
    C   C4   0.862730  0.751888  0.035662  -0.341188
    C   C5   0.864550  0.876472  0.018320  0.662624
    C   C6   0.006448  0.937871  0.010334  -0.293784
    C   C7   0.006260  0.063618  0.994048  0.351708
    C   C8   0.144370  0.132343  0.991308  -0.256021
    C   C9   0.141077  0.253134  0.969238  -0.094399
    N   N1   0.728327  0.937390  0.009210  -0.660628
    C   C10  0.725578  0.058868  0.993571  0.289480
    C   C11  0.863969  0.124010  0.985169  -0.171377
    C   C12  0.861726  0.248949  0.967761  -0.122328
    C   C13  0.000435  0.309808  0.954799  -0.113168
    H   H1   0.999619  0.593127  0.059755  0.137756
    H   H2   0.998510  0.407903  0.944016  0.145202
    H   H3   0.257878  0.904623  0.996816  0.117079
    H   H4   0.257454  0.097761  0.008784  0.135724
    H   H5   0.613681  0.104069  0.986362  0.050983
    O   O1   0.333311  0.635576  0.940285  -0.561258
    O   O2   0.338447  0.627773  0.099664  -0.658141
    C   C14  0.282844  0.671599  0.025514  0.656678
    O   O3   0.333784  0.366309  0.064164  -0.711060
    O   O4   0.337325  0.374151  0.904787  -0.737918
    C   C15  0.282283  0.330373  0.979016  0.898090
    O   O5   0.671520  0.365792  0.063435  -0.715381
    O   O6   0.666120  0.373393  0.904483  -0.740074
    C   C16  0.720509  0.327494  0.978132  0.888579
    O   O7   0.671004  0.635961  0.940213  -0.681633
    O   O8   0.667176  0.628317  0.099165  -0.693957
    C   C17  0.720765  0.674318  0.025463  0.862819
    Zn  Zn1  0.503150  0.493554  0.104690  1.106555
    Zn  Zn2  0.502093  0.508251  0.899357  1.033915
    H   H6   0.501668  0.295029  0.403488  0.158149
    C   C18  0.496420  0.392489  0.542819  -0.176956
    H   H7   0.497920  0.306680  0.574875  0.156418
    C   C19  0.492698  0.508315  0.598218  0.255262
    C   C20  0.491796  0.618114  0.557390  -0.133708
    C   C21  0.498690  0.611220  0.461253  -0.147656
    H   H8   0.498602  0.696743  0.428850  0.150385
    C   C22  0.501051  0.495324  0.405992  0.219214
    C   C23  0.499456  0.385892  0.446751  -0.163029
    C   C24  0.498056  0.513258  0.698092  0.029665
    C   C25  0.503198  0.489249  0.306029  0.080269
    N   N2   0.504271  0.486228  0.225562  -0.108451
    N   N3   0.501451  0.515589  0.778486  -0.022107
    C   C26  0.488201  0.741587  0.615069  0.253798
    C   C27  0.377797  0.768196  0.685103  -0.085237
    Cl  Cl1  0.230108  0.659012  0.701113  -0.053555
    C   C28  0.376301  0.885253  0.738822  -0.026372
    C   C29  0.484145  0.975952  0.722653  -0.105643
    C   C30  0.592305  0.950356  0.651749  -0.065063
    C   C31  0.593630  0.833660  0.597642  -0.226235
    H   H9   0.289095  0.906441  0.792989  0.109422
    H   H10  0.482631  0.067639  0.764816  0.113153
    H   H11  0.676139  0.021788  0.638563  0.104976
    H   H12  0.679535  0.813779  0.542595  0.131588
