# Generated by REPEAT Assigner based on pymatgen
data_DB0-m3_o19_o1500_f0_fsc.sym.11_sqe
_audit_creation_date              2022-05-24
_audit_creation_method            REPEAT_Assigner
_cell_length_a                    10.219022
_cell_length_b                    8.447434
_cell_length_c                    15.087891
_cell_angle_alpha                 90.000000
_cell_angle_beta                  98.700392
_cell_angle_gamma                 90.000000
_cell_volume                      1287.467302
_symmetry_space_group_name_H-M    P1
_symmetry_Int_Tables_number       1
loop_
    _symmetry_equiv_pos_site_id
    _symmetry_equiv_pos_as_xyz
    1  x,y,z
loop_
    _atom_site_type_symbol
    _atom_site_label
    _atom_site_fract_x
    _atom_site_fract_y
    _atom_site_fract_z
    _atom_type_partial_charge
    H   H1   0.930631  0.000079  0.432892  0.139377
    H   H2   0.069374  0.999920  0.567110  0.139412
    C   C1   0.953929  0.141658  0.320063  0.054446
    C   C2   0.046076  0.858344  0.679938  0.054525
    C   C3   0.043654  0.140877  0.679692  -0.002610
    C   C4   0.956343  0.859120  0.320308  -0.002656
    C   C5   0.971223  0.142611  0.231220  -0.404324
    C   C6   0.028774  0.857389  0.768780  -0.404396
    C   C7   0.025256  0.141184  0.768402  -0.377208
    C   C8   0.974744  0.858813  0.231598  -0.377217
    H   H3   0.985878  0.253988  0.198933  0.191642
    H   H4   0.014112  0.746020  0.801071  0.191697
    H   H5   0.015318  0.252568  0.801915  0.164377
    H   H6   0.984681  0.747419  0.198091  0.164377
    C   C9   0.976406  0.000802  0.185724  0.491711
    C   C10  0.023598  0.999196  0.814275  0.491697
    C   C11  0.941065  0.000220  0.362813  -0.204971
    C   C12  0.058939  0.999779  0.637187  -0.205038
    C   C13  0.918986  0.108950  0.032751  0.461678
    C   C14  0.081011  0.891048  0.967250  0.461610
    C   C15  0.930447  0.108191  0.942858  -0.242810
    C   C16  0.069554  0.891811  0.057143  -0.242852
    H   H7   0.872467  0.190601  0.898311  0.128041
    H   H8   0.127532  0.809408  0.101698  0.128064
    C   C17  0.010952  0.998936  0.909640  -0.316544
    C   C18  0.989047  0.001063  0.090360  -0.316581
    Zn  Zn1  0.145514  0.499293  0.497980  1.109815
    Zn  Zn2  0.854487  0.500708  0.502025  1.109828
    N   N1   0.316796  0.498560  0.495627  -0.063353
    N   N2   0.683203  0.501439  0.504374  -0.063366
    C   C19  0.430535  0.499388  0.498154  0.224728
    C   C20  0.569464  0.500608  0.501847  0.224757
    O   O1   0.863207  0.339769  0.404759  -0.709550
    O   O2   0.136792  0.660234  0.595242  -0.709549
    O   O3   0.135726  0.338225  0.595041  -0.710175
    O   O4   0.864272  0.661774  0.404960  -0.710179
    O   O5   0.089014  0.332528  0.404842  -0.706097
    O   O6   0.910987  0.667475  0.595160  -0.706097
    O   O7   0.909901  0.333272  0.594971  -0.696062
    O   O8   0.090099  0.666727  0.405030  -0.696074
    C   C21  0.968277  0.284778  0.374713  0.819990
    C   C22  0.031724  0.715221  0.625287  0.819981
    C   C23  0.030273  0.284253  0.625097  0.849656
    C   C24  0.969726  0.715748  0.374902  0.849679
    O   O9   0.832546  0.211367  0.063376  -0.546806
    H   H9   0.747400  0.153357  0.055935  0.345111
    O   O10  0.167452  0.788637  0.936621  -0.546837
    H   H10  0.252621  0.846603  0.944118  0.345152
