# Generated by REPEAT Assigner based on pymatgen
data_DB0-m3_o12_o29_f0_pcu.sym.17_sqe
_audit_creation_date              2022-05-24
_audit_creation_method            REPEAT_Assigner
_cell_length_a                    9.982666
_cell_length_b                    11.254957
_cell_length_c                    27.690213
_cell_angle_alpha                 89.977534
_cell_angle_beta                  80.814933
_cell_angle_gamma                 92.439587
_cell_volume                      3068.363222
_symmetry_space_group_name_H-M    P1
_symmetry_Int_Tables_number       1
loop_
    _symmetry_equiv_pos_site_id
    _symmetry_equiv_pos_as_xyz
    1  x,y,z
loop_
    _atom_site_type_symbol
    _atom_site_label
    _atom_site_fract_x
    _atom_site_fract_y
    _atom_site_fract_z
    _atom_type_partial_charge
    O   O1   0.424111  0.689782  0.505891  -0.685080
    O   O2   0.575069  0.308524  0.494101  -0.681332
    O   O3   0.653906  0.658766  0.490937  -0.697252
    O   O4   0.345255  0.339545  0.508979  -0.693394
    C   C1   0.551301  0.729129  0.497856  0.818388
    C   C2   0.447870  0.269182  0.502092  0.804238
    O   O5   0.388253  0.512312  0.579162  -0.656194
    O   O6   0.610929  0.485869  0.420788  -0.653396
    O   O7   0.617642  0.481267  0.564308  -0.563585
    O   O8   0.381504  0.517139  0.435646  -0.573129
    C   C3   0.504021  0.495636  0.594452  0.702069
    C   C4   0.495152  0.502673  0.405527  0.717798
    Zn  Zn1  0.348148  0.519636  0.509753  1.039462
    Zn  Zn2  0.651023  0.478674  0.490202  1.036042
    C   C5   0.585795  0.573972  0.819103  0.397803
    C   C6   0.402339  0.434587  0.181461  0.391980
    O   O9   0.669722  0.649174  0.789603  -0.481279
    O   O10  0.308836  0.368544  0.211450  -0.477455
    N   N1   0.499658  0.499389  0.799833  -0.115210
    N   N2   0.498253  0.499297  0.200198  -0.114198
    C   C7   0.412875  0.425177  0.828980  0.422106
    C   C8   0.594649  0.563606  0.170439  0.420226
    C   C9   0.616787  0.466915  0.717232  -0.472212
    C   C10  0.385524  0.540306  0.282731  -0.465163
    C   C11  0.618843  0.462681  0.667249  0.475268
    C   C12  0.383847  0.543786  0.332696  0.469534
    C   C13  0.389826  0.525204  0.679039  -0.064429
    C   C14  0.605448  0.464944  0.321139  -0.064345
    C   C15  0.387790  0.526371  0.728921  -0.227177
    C   C16  0.606987  0.463505  0.271282  -0.226034
    C   C17  0.501478  0.497937  0.748193  0.286785
    C   C18  0.496864  0.500757  0.251855  0.283161
    C   C19  0.498755  0.499776  0.899520  0.115962
    C   C20  0.498840  0.498926  0.100482  0.103623
    C   C21  0.586488  0.574889  0.869049  -0.101787
    C   C22  0.401458  0.433794  0.131524  -0.094497
    C   C23  0.673509  0.651788  0.888656  -0.029596
    C   C24  0.302676  0.368806  0.112609  -0.037201
    C   C25  0.411239  0.424688  0.879059  -0.119777
    C   C26  0.596131  0.564006  0.120367  -0.112198
    C   C27  0.505223  0.494244  0.647620  -0.198014
    C   C28  0.493852  0.504020  0.352401  -0.209272
    H   H1   0.299692  0.549913  0.665133  0.128073
    H   H2   0.692490  0.433420  0.335221  0.126752
    H   H3   0.297132  0.551666  0.752819  0.142487
    H   H4   0.694345  0.431165  0.247558  0.144226
    H   H5   0.741507  0.713678  0.865854  0.121940
    H   H6   0.223212  0.318654  0.136077  0.123287
    C   C29  0.595430  0.568737  0.019745  0.042130
    C   C30  0.406528  0.425429  0.979998  0.070563
    C   C31  0.402163  0.429698  0.030812  0.031141
    C   C32  0.590884  0.573572  0.969457  0.061793
    C   C33  0.498831  0.499096  0.050185  0.028836
    C   C34  0.498691  0.499618  0.949820  0.006122
    C   C35  0.695321  0.631166  0.040560  -0.181248
    C   C36  0.321593  0.347726  0.958300  -0.206038
    C   C37  0.695066  0.628972  0.090117  -0.038018
    C   C38  0.323944  0.347826  0.908622  -0.028590
    O   O11  0.687615  0.630129  0.189722  -0.491898
    O   O12  0.329782  0.349426  0.809040  -0.493292
    C   C39  0.675669  0.651631  0.938076  -0.203708
    C   C40  0.302442  0.366895  0.063079  -0.176644
    H   H7   0.299379  0.570632  0.267677  0.226955
    H   H8   0.705774  0.443669  0.732282  0.225503
    H   H9   0.774519  0.679015  0.104475  0.120746
    H   H10  0.256017  0.286026  0.893585  0.119932
    H   H11  0.779043  0.681123  0.019721  0.130407
    H   H12  0.253228  0.282040  0.978228  0.143447
    H   H13  0.743854  0.717311  0.950226  0.144317
    H   H14  0.218796  0.316918  0.051852  0.129827
    H   H15  0.622331  0.093891  0.492719  0.114699
    H   H16  0.376839  0.904413  0.507248  0.113644
    C   C41  0.581423  0.857807  0.496018  -0.347554
    C   C42  0.417745  0.140505  0.503930  -0.336395
    C   C43  0.482586  0.935064  0.501253  -0.003097
    C   C44  0.516581  0.063247  0.498707  -0.009412
    H   H17  0.312554  0.108108  0.510086  0.149690
    H   H18  0.686613  0.890203  0.489848  0.152377
    H   H19  0.117876  0.429825  0.468518  0.122593
    H   H20  0.881354  0.568767  0.531351  0.119876
    N   N3   0.850255  0.451580  0.477343  -0.259812
    N   N4   0.148919  0.546745  0.522622  -0.241560
    C   C45  0.926190  0.508012  0.503611  0.104921
    C   C46  0.073022  0.490494  0.496290  0.083033
    H   H21  0.100587  0.603294  0.548238  0.244398
    H   H22  0.898570  0.394934  0.451763  0.251235
    O   O13  0.272141  0.585397  0.361958  -0.433152
    C   C47  0.288892  0.709329  0.359664  0.469797
    H   H23  0.257372  0.742899  0.325712  -0.081671
    H   H24  0.396577  0.736775  0.360349  -0.069753
    C   C48  0.200967  0.762613  0.403233  -0.228129
    H   H25  0.232419  0.731251  0.437507  0.064441
    H   H26  0.212777  0.860985  0.401086  0.040247
    H   H27  0.093122  0.734923  0.402998  0.048820
    O   O14  0.734414  0.428655  0.637927  -0.439300
    C   C49  0.730698  0.304560  0.641180  0.487249
    H   H28  0.624816  0.268470  0.643204  -0.073008
    H   H29  0.771949  0.276882  0.674135  -0.082146
    C   C50  0.817014  0.254980  0.596379  -0.254296
    H   H30  0.922357  0.293032  0.593366  0.054875
    H   H31  0.817663  0.156835  0.599786  0.046009
    H   H32  0.774390  0.278281  0.563203  0.071093
