# Generated by REPEAT Assigner based on pymatgen
data_DB0-m2_o2_o27_f0_nbo.sym.6
_audit_creation_date              2022-05-24
_audit_creation_method            REPEAT_Assigner
_cell_length_a                    30.100268
_cell_length_b                    30.100268
_cell_length_c                    38.338760
_cell_angle_alpha                 90.000000
_cell_angle_beta                  90.000000
_cell_angle_gamma                 90.000000
_cell_volume                      34735.919185
_symmetry_space_group_name_H-M    P1
_symmetry_Int_Tables_number       1
loop_
    _symmetry_equiv_pos_site_id
    _symmetry_equiv_pos_as_xyz
    1  x,y,z
loop_
    _atom_site_type_symbol
    _atom_site_label
    _atom_site_fract_x
    _atom_site_fract_y
    _atom_site_fract_z
    _atom_type_partial_charge
    O   O1    0.063383  0.463317  0.490733  -0.531005
    O   O2    0.463317  0.936617  0.490733  -0.531069
    O   O3    0.936617  0.536682  0.490733  -0.531313
    O   O4    0.536683  0.063383  0.490733  -0.531055
    O   O5    0.063383  0.536682  0.509267  -0.531377
    O   O6    0.463317  0.063383  0.509267  -0.531068
    O   O7    0.936617  0.463317  0.509267  -0.531026
    O   O8    0.536683  0.936617  0.509267  -0.531080
    O   O9    0.563383  0.963317  0.990733  -0.530989
    O   O10   0.963317  0.436617  0.990733  -0.531038
    O   O11   0.436617  0.036682  0.990733  -0.531279
    O   O12   0.036683  0.563383  0.990733  -0.531068
    O   O13   0.563383  0.036682  0.009267  -0.531265
    O   O14   0.963317  0.563383  0.009267  -0.531027
    O   O15   0.436617  0.963317  0.009267  -0.530976
    O   O16   0.036683  0.436617  0.009267  -0.531067
    C   C1    0.084339  0.500000  0.500000  0.539805
    C   C2    0.500000  0.915661  0.500000  0.539897
    C   C3    0.915661  0.500000  0.500000  0.540014
    C   C4    0.500000  0.084338  0.500000  0.539729
    C   C5    0.584339  0.000000  0.000000  0.539876
    C   C6    0.000000  0.415661  0.000000  0.539583
    C   C7    0.415661  0.000000  0.000000  0.539771
    C   C8    0.000000  0.584339  0.000000  0.539583
    O   O17   0.988086  0.463305  0.450277  -0.635554
    O   O18   0.463305  0.011914  0.450277  -0.635552
    O   O19   0.011914  0.536695  0.450277  -0.635482
    O   O20   0.536695  0.988085  0.450277  -0.635524
    O   O21   0.988085  0.536695  0.549723  -0.635431
    O   O22   0.463305  0.988085  0.549723  -0.635491
    O   O23   0.011914  0.463305  0.549723  -0.635574
    O   O24   0.536695  0.011914  0.549723  -0.635594
    O   O25   0.488086  0.963305  0.950277  -0.635581
    O   O26   0.963305  0.511914  0.950277  -0.635517
    O   O27   0.511915  0.036695  0.950277  -0.635479
    O   O28   0.036695  0.488086  0.950277  -0.635565
    O   O29   0.488086  0.036695  0.049723  -0.635499
    O   O30   0.963305  0.488086  0.049723  -0.635511
    O   O31   0.511914  0.963305  0.049723  -0.635505
    O   O32   0.036695  0.511914  0.049723  -0.635510
    C   C9    0.000000  0.500000  0.433912  0.814218
    C   C10   0.500000  0.000000  0.433912  0.814232
    C   C11   0.000000  0.500000  0.566088  0.814215
    C   C12   0.500000  0.000000  0.566088  0.814234
    C   C13   0.500000  0.000000  0.933912  0.814391
    C   C14   0.000000  0.500000  0.933912  0.814215
    C   C15   0.500000  0.000000  0.066088  0.814186
    C   C16   0.000000  0.500000  0.066088  0.814148
    Cu  Cu1   0.000000  0.456608  0.500000  0.971360
    Cu  Cu2   0.456608  0.000000  0.500000  0.971336
    Cu  Cu3   0.000000  0.543392  0.500000  0.971400
    Cu  Cu4   0.543392  0.000000  0.500000  0.971376
    Cu  Cu5   0.500000  0.956608  0.000000  0.971328
    Cu  Cu6   0.956608  0.500000  0.000000  0.971381
    Cu  Cu7   0.500000  0.043392  0.000000  0.971364
    Cu  Cu8   0.043392  0.500000  0.000000  0.971419
    C   C17   0.000824  0.539549  0.377616  0.195212
    C   C18   0.539549  0.999176  0.377616  0.195718
    C   C19   0.999176  0.460450  0.377616  0.195266
    C   C20   0.460450  0.000823  0.377616  0.195065
    C   C21   0.000823  0.460450  0.622384  0.195253
    C   C22   0.539550  0.000823  0.622384  0.195164
    C   C23   0.999176  0.539549  0.622384  0.195410
    C   C24   0.460451  0.999176  0.622384  0.195656
    C   C25   0.500824  0.039549  0.877616  0.195413
    C   C26   0.039550  0.499176  0.877616  0.195452
    C   C27   0.499177  0.960450  0.877616  0.195128
    C   C28   0.960451  0.500824  0.877616  0.195238
    C   C29   0.500824  0.960450  0.122384  0.195203
    C   C30   0.039550  0.500824  0.122384  0.195327
    C   C31   0.499176  0.039549  0.122384  0.195360
    C   C32   0.960451  0.499176  0.122384  0.195508
    H   H1    0.000606  0.570917  0.391316  0.058208
    H   H2    0.570918  0.999393  0.391316  0.058161
    H   H3    0.999393  0.429082  0.391316  0.058287
    H   H4    0.429082  0.000606  0.391316  0.058333
    H   H5    0.000606  0.429082  0.608684  0.058297
    H   H6    0.570918  0.000606  0.608684  0.058314
    H   H7    0.999393  0.570918  0.608684  0.058160
    H   H8    0.429083  0.999393  0.608684  0.058159
    H   H9    0.500607  0.070917  0.891316  0.058171
    H   H10   0.070918  0.499393  0.891316  0.058274
    H   H11   0.499394  0.929082  0.891316  0.058309
    H   H12   0.929082  0.500606  0.891315  0.058236
    H   H13   0.500607  0.929082  0.108684  0.058300
    H   H14   0.070918  0.500607  0.108684  0.058265
    H   H15   0.499393  0.070917  0.108684  0.058181
    H   H16   0.929083  0.499393  0.108684  0.058173
    C   C33   0.000406  0.539752  0.341671  -0.139799
    C   C34   0.539753  0.999594  0.341671  -0.140462
    C   C35   0.999594  0.460247  0.341671  -0.140055
    C   C36   0.460247  0.000406  0.341671  -0.139887
    C   C37   0.000406  0.460247  0.658329  -0.140105
    C   C38   0.539753  0.000406  0.658329  -0.140027
    C   C39   0.999594  0.539752  0.658329  -0.140034
    C   C40   0.460248  0.999593  0.658329  -0.140298
    C   C41   0.500406  0.039752  0.841671  -0.139896
    C   C42   0.039753  0.499594  0.841671  -0.140185
    C   C43   0.499594  0.960247  0.841671  -0.139897
    C   C44   0.960247  0.500406  0.841671  -0.139943
    C   C45   0.500406  0.960247  0.158329  -0.139951
    C   C46   0.039753  0.500406  0.158329  -0.140127
    C   C47   0.499594  0.039752  0.158329  -0.140003
    C   C48   0.960248  0.499594  0.158329  -0.140319
    C   C49   0.000000  0.500000  0.323292  -0.135640
    C   C50   0.500000  0.000000  0.323292  -0.135354
    C   C51   0.000000  0.500000  0.676708  -0.135472
    C   C52   0.500000  0.000000  0.676708  -0.135251
    C   C53   0.500000  0.000000  0.823292  -0.135569
    C   C54   0.000000  0.500000  0.823292  -0.135572
    C   C55   0.500000  0.000000  0.176708  -0.135560
    C   C56   0.000000  0.500000  0.176708  -0.135319
    C   C57   0.000000  0.500000  0.395744  -0.260892
    C   C58   0.500000  0.000000  0.395744  -0.261000
    C   C59   0.000000  0.500000  0.604256  -0.260966
    C   C60   0.500000  0.000000  0.604256  -0.260974
    C   C61   0.500000  0.000000  0.895744  -0.261000
    C   C62   0.000000  0.500000  0.895744  -0.261012
    C   C63   0.500000  0.000000  0.104256  -0.260922
    C   C64   0.000000  0.500000  0.104256  -0.260959
    N   N1    0.972641  0.472773  0.267235  -0.343977
    N   N2    0.472773  0.027359  0.267235  -0.343988
    N   N3    0.027359  0.527226  0.267235  -0.343920
    N   N4    0.527226  0.972641  0.267235  -0.343489
    N   N5    0.972641  0.527226  0.732765  -0.343866
    N   N6    0.472774  0.972641  0.732765  -0.343336
    N   N7    0.027359  0.472773  0.732765  -0.344103
    N   N8    0.527227  0.027359  0.732765  -0.344155
    N   N9    0.472641  0.972773  0.767235  -0.344243
    N   N10   0.972773  0.527359  0.767235  -0.344012
    N   N11   0.527359  0.027226  0.767235  -0.343498
    N   N12   0.027226  0.472641  0.767235  -0.343832
    N   N13   0.472641  0.027226  0.232765  -0.343859
    N   N14   0.972774  0.472641  0.232765  -0.343909
    N   N15   0.527359  0.972773  0.232765  -0.344212
    N   N16   0.027227  0.527359  0.232765  -0.343965
    C   C65   0.000000  0.500000  0.215066  0.880988
    C   C66   0.500000  0.000000  0.215066  0.881223
    C   C67   0.000000  0.500000  0.784934  0.881051
    C   C68   0.500000  0.000000  0.784934  0.880897
    C   C69   0.500000  0.000000  0.715066  0.880700
    C   C70   0.000000  0.500000  0.715066  0.881196
    C   C71   0.500000  0.000000  0.284934  0.880668
    C   C72   0.000000  0.500000  0.284934  0.881209
    C   C73   0.202306  0.520021  0.526764  -0.109068
    C   C74   0.520021  0.797694  0.526764  -0.108731
    C   C75   0.797694  0.479979  0.526764  -0.108810
    C   C76   0.479979  0.202306  0.526764  -0.109158
    C   C77   0.202306  0.479979  0.473236  -0.108984
    C   C78   0.520021  0.202306  0.473236  -0.109015
    C   C79   0.797694  0.520021  0.473236  -0.108939
    C   C80   0.479979  0.797694  0.473236  -0.108712
    C   C81   0.702306  0.020021  0.026764  -0.108974
    C   C82   0.020021  0.297694  0.026764  -0.108969
    C   C83   0.297694  0.979979  0.026764  -0.109028
    C   C84   0.979979  0.702306  0.026764  -0.108940
    C   C85   0.702306  0.979979  0.973236  -0.108898
    C   C86   0.020021  0.702306  0.973236  -0.108989
    C   C87   0.297694  0.020021  0.973236  -0.109100
    C   C88   0.979979  0.297694  0.973236  -0.108934
    H   H17   0.219336  0.536678  0.547817  0.107473
    H   H18   0.536678  0.780664  0.547816  0.107359
    H   H19   0.780664  0.463321  0.547816  0.107432
    H   H20   0.463322  0.219336  0.547817  0.107464
    H   H21   0.219336  0.463321  0.452183  0.107509
    H   H22   0.536678  0.219336  0.452184  0.107400
    H   H23   0.780664  0.536678  0.452183  0.107426
    H   H24   0.463322  0.780664  0.452184  0.107358
    H   H25   0.719336  0.036678  0.047817  0.107431
    H   H26   0.036678  0.280664  0.047817  0.107468
    H   H27   0.280664  0.963321  0.047817  0.107524
    H   H28   0.963322  0.719336  0.047816  0.107436
    H   H29   0.719336  0.963321  0.952184  0.107464
    H   H30   0.036678  0.719336  0.952183  0.107465
    H   H31   0.280664  0.036678  0.952183  0.107421
    H   H32   0.963322  0.280664  0.952183  0.107445
    C   C89   0.156525  0.519733  0.527049  -0.022322
    C   C90   0.519733  0.843475  0.527049  -0.022657
    C   C91   0.843475  0.480266  0.527049  -0.022580
    C   C92   0.480267  0.156525  0.527049  -0.022337
    C   C93   0.156525  0.480266  0.472951  -0.022433
    C   C94   0.519733  0.156525  0.472951  -0.022472
    C   C95   0.843475  0.519733  0.472951  -0.022480
    C   C96   0.480267  0.843475  0.472951  -0.022684
    C   C97   0.656525  0.019733  0.027049  -0.022437
    C   C98   0.019733  0.343475  0.027049  -0.022482
    C   C99   0.343475  0.980266  0.027049  -0.022455
    C   C100  0.980267  0.656525  0.027049  -0.022414
    C   C101  0.656525  0.980266  0.972951  -0.022443
    C   C102  0.019733  0.656525  0.972951  -0.022456
    C   C103  0.343475  0.019733  0.972951  -0.022400
    C   C104  0.980267  0.343475  0.972951  -0.022517
    C   C105  0.133143  0.500000  0.500000  0.115816
    C   C106  0.500000  0.866857  0.500000  0.115924
    C   C107  0.866857  0.500000  0.500000  0.115770
    C   C108  0.500000  0.133143  0.500000  0.115869
    C   C109  0.633143  0.000000  0.000000  0.115747
    C   C110  0.000000  0.366857  0.000000  0.115979
    C   C111  0.366857  0.000000  0.000000  0.115875
    C   C112  0.000000  0.633143  0.000000  0.115912
    C   C113  0.225696  0.500000  0.500000  0.024244
    C   C114  0.500000  0.774304  0.500000  0.024118
    C   C115  0.774304  0.500000  0.500000  0.024214
    C   C116  0.500000  0.225696  0.500000  0.024394
    C   C117  0.725696  0.000000  0.000000  0.024222
    C   C118  0.000000  0.274304  0.000000  0.024237
    C   C119  0.274304  0.000000  0.000000  0.024345
    C   C120  0.000000  0.725696  0.000000  0.024232
    C   C121  0.298099  0.502070  0.468944  -0.139802
    C   C122  0.502070  0.701900  0.468944  -0.139727
    C   C123  0.701900  0.497930  0.468944  -0.139736
    C   C124  0.497930  0.298099  0.468944  -0.139756
    C   C125  0.298099  0.497930  0.531056  -0.139775
    C   C126  0.502070  0.298099  0.531056  -0.139816
    C   C127  0.701900  0.502070  0.531056  -0.139732
    C   C128  0.497930  0.701900  0.531056  -0.139712
    C   C129  0.798100  0.002070  0.968944  -0.139753
    C   C130  0.002070  0.201901  0.968944  -0.139813
    C   C131  0.201901  0.997930  0.968944  -0.139759
    C   C132  0.997930  0.798099  0.968944  -0.139840
    C   C133  0.798100  0.997930  0.031056  -0.139749
    C   C134  0.002070  0.798099  0.031056  -0.139814
    C   C135  0.201901  0.002070  0.031056  -0.139843
    C   C136  0.997930  0.201901  0.031056  -0.139829
    H   H33   0.281121  0.505102  0.444250  0.115817
    H   H34   0.505102  0.718879  0.444250  0.115830
    H   H35   0.718879  0.494898  0.444250  0.115848
    H   H36   0.494898  0.281121  0.444250  0.115837
    H   H37   0.281121  0.494898  0.555750  0.115866
    H   H38   0.505102  0.281121  0.555750  0.115873
    H   H39   0.718879  0.505102  0.555750  0.115772
    H   H40   0.494898  0.718879  0.555750  0.115827
    H   H41   0.781121  0.005102  0.944250  0.115772
    H   H42   0.005102  0.218879  0.944250  0.115875
    H   H43   0.218879  0.994898  0.944250  0.115861
    H   H44   0.994898  0.781121  0.944250  0.115868
    H   H45   0.781121  0.994898  0.055750  0.115846
    H   H46   0.005102  0.781121  0.055750  0.115854
    H   H47   0.218879  0.005102  0.055750  0.115825
    H   H48   0.994898  0.218879  0.055750  0.115871
    C   C137  0.343884  0.501500  0.468945  -0.117640
    C   C138  0.501500  0.656116  0.468945  -0.117734
    C   C139  0.656116  0.498500  0.468945  -0.117809
    C   C140  0.498500  0.343884  0.468945  -0.117779
    C   C141  0.343884  0.498500  0.531055  -0.117738
    C   C142  0.501500  0.343884  0.531055  -0.117711
    C   C143  0.656116  0.501500  0.531055  -0.117705
    C   C144  0.498500  0.656116  0.531055  -0.117796
    C   C145  0.843884  0.001500  0.968945  -0.117700
    C   C146  0.001500  0.156116  0.968945  -0.117903
    C   C147  0.156116  0.998500  0.968945  -0.117762
    C   C148  0.998500  0.843884  0.968945  -0.117681
    C   C149  0.843884  0.998500  0.031055  -0.117820
    C   C150  0.001500  0.843884  0.031055  -0.117730
    C   C151  0.156116  0.001500  0.031055  -0.117632
    C   C152  0.998500  0.156116  0.031055  -0.117845
    H   H49   0.361318  0.503368  0.444352  0.127995
    H   H50   0.503368  0.638682  0.444352  0.128023
    H   H51   0.638682  0.496632  0.444352  0.128083
    H   H52   0.496632  0.361318  0.444352  0.128052
    H   H53   0.361318  0.496632  0.555648  0.128029
    H   H54   0.503368  0.361318  0.555648  0.128006
    H   H55   0.638682  0.503368  0.555648  0.128048
    H   H56   0.496632  0.638682  0.555648  0.128068
    H   H57   0.861318  0.003368  0.944352  0.128051
    H   H58   0.003368  0.138682  0.944352  0.128100
    H   H59   0.138682  0.996632  0.944352  0.128038
    H   H60   0.996632  0.861318  0.944352  0.127999
    H   H61   0.861318  0.996632  0.055648  0.128097
    H   H62   0.003368  0.861318  0.055648  0.128035
    H   H63   0.138682  0.003368  0.055648  0.127996
    H   H64   0.996632  0.138682  0.055648  0.128063
    C   C153  0.366991  0.500000  0.500000  -0.017474
    C   C154  0.500000  0.633008  0.500000  -0.017277
    C   C155  0.633008  0.500000  0.500000  -0.017258
    C   C156  0.500000  0.366991  0.500000  -0.017366
    C   C157  0.866992  0.000000  0.000000  -0.017249
    C   C158  0.000000  0.133008  0.000000  -0.017104
    C   C159  0.133009  0.000000  0.000000  -0.017408
    C   C160  0.000000  0.866992  0.000000  -0.017480
    C   C161  0.274695  0.500000  0.500000  0.131976
    C   C162  0.500000  0.725305  0.500000  0.131827
    C   C163  0.725305  0.500000  0.500000  0.131823
    C   C164  0.500000  0.274695  0.500000  0.131969
    C   C165  0.774695  0.000000  0.000000  0.131861
    C   C166  0.000000  0.225305  0.000000  0.131979
    C   C167  0.225305  0.000000  0.000000  0.131966
    C   C168  0.000000  0.774695  0.000000  0.131999
    O   O33   0.488352  0.563555  0.471131  -0.593128
    O   O34   0.563556  0.511647  0.471131  -0.593156
    O   O35   0.511647  0.436444  0.471131  -0.593146
    O   O36   0.436444  0.488352  0.471131  -0.593074
    O   O37   0.488352  0.436444  0.528869  -0.593102
    O   O38   0.563556  0.488352  0.528869  -0.593136
    O   O39   0.511647  0.563555  0.528869  -0.593179
    O   O40   0.436444  0.511647  0.528869  -0.593094
    O   O41   0.988353  0.063556  0.971131  -0.593151
    O   O42   0.063556  0.011647  0.971131  -0.593078
    O   O43   0.011648  0.936444  0.971131  -0.593045
    O   O44   0.936444  0.988352  0.971131  -0.593117
    O   O45   0.988353  0.936444  0.028869  -0.593085
    O   O46   0.063556  0.988352  0.028869  -0.593057
    O   O47   0.011648  0.063556  0.028869  -0.593112
    O   O48   0.936444  0.011647  0.028869  -0.593152
    C   C169  0.500000  0.584395  0.500000  0.683022
    C   C170  0.584395  0.500000  0.500000  0.683145
    C   C171  0.500000  0.415604  0.500000  0.683292
    C   C172  0.415604  0.500000  0.500000  0.683337
    C   C173  0.000000  0.084395  0.000000  0.683043
    C   C174  0.084396  0.000000  0.000000  0.683229
    C   C175  0.000000  0.915604  0.000000  0.683390
    C   C176  0.915605  0.000000  0.000000  0.683124
    Cu  Cu9   0.500000  0.500000  0.465889  0.951886
    Cu  Cu10  0.500000  0.500000  0.534111  0.951890
    Cu  Cu11  0.000000  0.000000  0.965889  0.951758
    Cu  Cu12  0.000000  0.000000  0.034111  0.951763
    Cl  Cl1   0.997259  0.591355  0.320536  -0.025337
    Cl  Cl2   0.591356  0.002740  0.320536  -0.025083
    Cl  Cl3   0.002741  0.408644  0.320536  -0.025064
    Cl  Cl4   0.408644  0.997259  0.320536  -0.025082
    Cl  Cl5   0.997259  0.408644  0.679464  -0.025038
    Cl  Cl6   0.591356  0.997259  0.679464  -0.025052
    Cl  Cl7   0.002741  0.591355  0.679464  -0.025279
    Cl  Cl8   0.408645  0.002740  0.679464  -0.025332
    Cl  Cl9   0.497260  0.091355  0.820536  -0.025388
    Cl  Cl10  0.091356  0.502741  0.820536  -0.025113
    Cl  Cl11  0.502741  0.908644  0.820536  -0.025059
    Cl  Cl12  0.908644  0.497259  0.820536  -0.025089
    Cl  Cl13  0.497259  0.908644  0.179464  -0.025087
    Cl  Cl14  0.091356  0.497259  0.179464  -0.025057
    Cl  Cl15  0.502741  0.091355  0.179464  -0.025289
    Cl  Cl16  0.908644  0.502741  0.179464  -0.025115
    Cl  Cl17  0.129495  0.542544  0.563446  -0.058999
    Cl  Cl18  0.542544  0.870505  0.563446  -0.058890
    Cl  Cl19  0.870505  0.457456  0.563446  -0.058906
    Cl  Cl20  0.457456  0.129494  0.563446  -0.059103
    Cl  Cl21  0.129495  0.457456  0.436554  -0.058988
    Cl  Cl22  0.542544  0.129494  0.436554  -0.059049
    Cl  Cl23  0.870505  0.542544  0.436554  -0.058924
    Cl  Cl24  0.457456  0.870505  0.436554  -0.058882
    Cl  Cl25  0.629495  0.042544  0.063446  -0.058936
    Cl  Cl26  0.042544  0.370505  0.063446  -0.058971
    Cl  Cl27  0.370505  0.957456  0.063446  -0.058987
    Cl  Cl28  0.957456  0.629495  0.063446  -0.059009
    Cl  Cl29  0.629495  0.957456  0.936554  -0.058973
    Cl  Cl30  0.042544  0.629495  0.936554  -0.058966
    Cl  Cl31  0.370506  0.042544  0.936554  -0.059010
    Cl  Cl32  0.957456  0.370505  0.936554  -0.058944
