data_DB0-m3_o11_o29_f0_pcu.sym.59_repeat
_audit_creation_date              2024-02-23
_audit_creation_method            'Materials Studio'
_symmetry_space_group_name_H-M    'P1'
_symmetry_Int_Tables_number       1
_symmetry_cell_setting            triclinic
loop_
_symmetry_equiv_pos_as_xyz
  x,y,z
_cell_length_a                    27.6523
_cell_length_b                    11.1671
_cell_length_c                    9.9532
_cell_angle_alpha                 89.9974
_cell_angle_beta                  89.9930
_cell_angle_gamma                 89.9937
loop_
_atom_site_label
_atom_site_type_symbol
_atom_site_fract_x
_atom_site_fract_y
_atom_site_fract_z
_atom_site_U_iso_or_equiv
_atom_site_adp_type
_atom_site_occupancy
O1     O     0.49951   0.32123   0.61342   0.00000  Uiso   1.00
O2     O     0.49745   0.31986   0.38223   0.00000  Uiso   1.00
C1     C     0.49876   0.26454   0.49881   0.00000  Uiso   1.00
O3     O     0.42606   0.49818   0.62538   0.00000  Uiso   1.00
O4     O     0.42501   0.49563   0.39435   0.00000  Uiso   1.00
C2     C     0.40284   0.49598   0.51064   0.00000  Uiso   1.00
Zn1    Zn    0.49831   0.49772   0.65942   0.00000  Uiso   1.00
Zn2    Zn    0.49678   0.49972   0.35404   0.00000  Uiso   1.00
O5     O     0.49765   0.67766   0.63110   0.00000  Uiso   1.00
O6     O     0.49581   0.67626   0.39963   0.00000  Uiso   1.00
O7     O     0.57014   0.50269   0.61980   0.00000  Uiso   1.00
O8     O     0.56907   0.49998   0.38747   0.00000  Uiso   1.00
C3     C     0.49643   0.73353   0.51428   0.00000  Uiso   1.00
C4     C     0.59222   0.50176   0.50286   0.00000  Uiso   1.00
C5     C     0.17357   0.39846   0.46963   0.00000  Uiso   1.00
O9     O     0.19814   0.30094   0.42959   0.00000  Uiso   1.00
N1     N     0.19794   0.49508   0.51397   0.00000  Uiso   1.00
C6     C     0.17391   0.59268   0.55708   0.00000  Uiso   1.00
C7     C     0.27444   0.48303   0.39413   0.00000  Uiso   1.00
C8     C     0.32429   0.48372   0.39313   0.00000  Uiso   1.00
C9     C     0.32478   0.50592   0.63180   0.00000  Uiso   1.00
C10    C     0.27489   0.50623   0.63236   0.00000  Uiso   1.00
C11    C     0.24955   0.49460   0.51358   0.00000  Uiso   1.00
C12    C     0.09820   0.49730   0.51080   0.00000  Uiso   1.00
C13    C     0.12352   0.39848   0.46743   0.00000  Uiso   1.00
C14    C     0.09874   0.29938   0.42354   0.00000  Uiso   1.00
C15    C     0.12386   0.59486   0.55615   0.00000  Uiso   1.00
C16    C     0.34978   0.49502   0.51203   0.00000  Uiso   1.00
H1     H     0.34377   0.51504   0.72611   0.00000  Uiso   1.00
H2     H     0.25573   0.51447   0.72660   0.00000  Uiso   1.00
H3     H     0.11753   0.21945   0.39170   0.00000  Uiso   1.00
C17    C     0.64529   0.50304   0.50144   0.00000  Uiso   1.00
C18    C     0.97222   0.40453   0.44989   0.00000  Uiso   1.00
C19    C     0.97238   0.59669   0.56056   0.00000  Uiso   1.00
C20    C     0.94736   0.50125   0.50414   0.00000  Uiso   1.00
C21    C     0.94563   0.31447   0.38698   0.00000  Uiso   1.00
C22    C     0.89604   0.31767   0.38408   0.00000  Uiso   1.00
C23    C     0.87147   0.41082   0.44286   0.00000  Uiso   1.00
C24    C     0.89701   0.50246   0.50207   0.00000  Uiso   1.00
C25    C     0.87157   0.59522   0.55941   0.00000  Uiso   1.00
C26    C     0.82152   0.59510   0.55731   0.00000  Uiso   1.00
N2     N     0.79722   0.50427   0.49918   0.00000  Uiso   1.00
C27    C     0.82142   0.41274   0.44208   0.00000  Uiso   1.00
C28    C     0.72017   0.50237   0.38031   0.00000  Uiso   1.00
C29    C     0.67028   0.50187   0.38102   0.00000  Uiso   1.00
C30    C     0.67083   0.50498   0.62092   0.00000  Uiso   1.00
C31    C     0.72068   0.50567   0.61990   0.00000  Uiso   1.00
C32    C     0.74558   0.50428   0.49971   0.00000  Uiso   1.00
O10    O     0.79668   0.32136   0.38737   0.00000  Uiso   1.00
C33    C     0.02277   0.40048   0.45854   0.00000  Uiso   1.00
C34    C     0.04785   0.49860   0.50865   0.00000  Uiso   1.00
C35    C     0.02305   0.59804   0.55652   0.00000  Uiso   1.00
C36    C     0.04914   0.29991   0.41942   0.00000  Uiso   1.00
H4     H     0.65129   0.50056   0.28616   0.00000  Uiso   1.00
H5     H     0.73925   0.50242   0.28549   0.00000  Uiso   1.00
H6     H     0.87708   0.24564   0.33433   0.00000  Uiso   1.00
H7     H     0.96171   0.24035   0.33470   0.00000  Uiso   1.00
H8     H     0.03289   0.21724   0.38783   0.00000  Uiso   1.00
O11    O     0.19883   0.68926   0.59820   0.00000  Uiso   1.00
C37    C     0.09942   0.69513   0.59822   0.00000  Uiso   1.00
H9     H     0.34285   0.47502   0.29810   0.00000  Uiso   1.00
H10    H     0.25494   0.47496   0.30043   0.00000  Uiso   1.00
H11    H     0.11852   0.77410   0.63163   0.00000  Uiso   1.00
C38    C     0.94584   0.68822   0.62094   0.00000  Uiso   1.00
C39    C     0.89622   0.68736   0.61985   0.00000  Uiso   1.00
O12    O     0.79690   0.68718   0.61101   0.00000  Uiso   1.00
C40    C     0.04981   0.69714   0.59819   0.00000  Uiso   1.00
H12    H     0.96191   0.76169   0.67435   0.00000  Uiso   1.00
H13    H     0.65234   0.50557   0.71655   0.00000  Uiso   1.00
H14    H     0.87731   0.76029   0.66808   0.00000  Uiso   1.00
H15    H     0.74015   0.50578   0.71408   0.00000  Uiso   1.00
H16    H     0.03392   0.78061   0.62861   0.00000  Uiso   1.00
C41    C     0.49627   0.93160   0.39789   0.00000  Uiso   1.00
C42    C     0.49591   0.86597   0.51253   0.00000  Uiso   1.00
H17    H     0.49497   0.90810   0.60999   0.00000  Uiso   1.00
C43    C     0.49552   0.06490   0.39715   0.00000  Uiso   1.00
C44    C     0.49959   0.13347   0.50630   0.00000  Uiso   1.00
H18    H     0.49235   0.10912   0.30073   0.00000  Uiso   1.00
H19    H     0.50367   0.09583   0.60547   0.00000  Uiso   1.00
C45    C     0.52719   0.55721   0.93329   0.00000  Uiso   1.00
N3     N     0.49979   0.49036   0.86045   0.00000  Uiso   1.00
H20    H     0.54855   0.62670   0.88576   0.00000  Uiso   1.00
C46    C     0.53216   0.53805   0.08022   0.00000  Uiso   1.00
N4     N     0.49560   0.50917   0.15335   0.00000  Uiso   1.00
H21    H     0.56663   0.55657   0.12750   0.00000  Uiso   1.00
H22    H     0.46248   0.51385   0.10679   0.00000  Uiso   1.00
N5     N     0.49593   0.87289   0.27158   0.00000  Uiso   1.00
C47    C     0.45049   0.88526   0.20220   0.00000  Uiso   1.00
C48    C     0.53682   0.90279   0.18824   0.00000  Uiso   1.00
H23    H     0.42068   0.85733   0.26982   0.00000  Uiso   1.00
H24    H     0.45040   0.82678   0.11210   0.00000  Uiso   1.00
H25    H     0.44450   0.97931   0.17073   0.00000  Uiso   1.00
H26    H     0.56266   0.96002   0.24415   0.00000  Uiso   1.00
H27    H     0.52467   0.95004   0.09625   0.00000  Uiso   1.00
H28    H     0.55575   0.81926   0.15880   0.00000  Uiso   1.00
N6     N     0.48713   0.38441   0.92164   0.00000  Uiso   1.00
C49    C     0.43871   0.34592   0.89036   0.00000  Uiso   1.00
C50    C     0.52297   0.29200   0.90502   0.00000  Uiso   1.00
H29    H     0.41335   0.42172   0.90512   0.00000  Uiso   1.00
H30    H     0.42822   0.27207   0.95898   0.00000  Uiso   1.00
H31    H     0.43607   0.31393   0.78563   0.00000  Uiso   1.00
H32    H     0.55233   0.32400   0.83817   0.00000  Uiso   1.00
H33    H     0.50629   0.21048   0.86149   0.00000  Uiso   1.00
H34    H     0.53858   0.26917   0.00440   0.00000  Uiso   1.00
