# Generated by REPEAT Assigner based on pymatgen
data_DB0-m3_o25_o27_f0_nbo.sym.98_sqe
_audit_creation_date              2022-05-24
_audit_creation_method            REPEAT_Assigner
_cell_length_a                    38.581834
_cell_length_b                    45.213164
_cell_length_c                    29.739732
_cell_angle_alpha                 90.000000
_cell_angle_beta                  130.438454
_cell_angle_gamma                 90.000000
_cell_volume                      39484.654137
_symmetry_space_group_name_H-M    P1
_symmetry_Int_Tables_number       1
loop_
    _symmetry_equiv_pos_site_id
    _symmetry_equiv_pos_as_xyz
    1  x,y,z
loop_
    _atom_site_type_symbol
    _atom_site_label
    _atom_site_fract_x
    _atom_site_fract_y
    _atom_site_fract_z
    _atom_type_partial_charge
    O   O1    0.300771  0.236569  0.099389  -0.608525
    O   O2    0.699229  0.236569  0.900611  -0.608505
    O   O3    0.800771  0.736569  0.099389  -0.608547
    O   O4    0.199229  0.736569  0.900611  -0.608539
    O   O5    0.264319  0.199136  0.029887  -0.679468
    O   O6    0.735681  0.199136  0.970113  -0.679507
    O   O7    0.764319  0.699136  0.029887  -0.679478
    O   O8    0.235681  0.699136  0.970113  -0.679523
    C   C1    0.292677  0.208509  0.084702  0.650085
    C   C2    0.707323  0.208509  0.915298  0.650016
    C   C3    0.792677  0.708509  0.084702  0.650130
    C   C4    0.207323  0.708509  0.915298  0.650057
    O   O9    0.319021  0.268332  0.035176  -0.728935
    O   O10   0.680979  0.268332  0.964825  -0.728999
    O   O11   0.819021  0.768332  0.035176  -0.728939
    O   O12   0.180979  0.768332  0.964825  -0.729015
    O   O13   0.285570  0.229948  0.967992  -0.747044
    O   O14   0.714430  0.229948  0.032008  -0.747103
    O   O15   0.785570  0.729948  0.967992  -0.747025
    O   O16   0.214430  0.729948  0.032008  -0.747101
    C   C5    0.318440  0.249226  0.001500  0.682272
    C   C6    0.681560  0.249226  0.998501  0.682338
    C   C7    0.818440  0.749226  0.001500  0.682248
    C   C8    0.181560  0.749226  0.998501  0.682398
    Zn  Zn1   0.272872  0.272728  0.046572  1.351255
    Zn  Zn2   0.727128  0.272728  0.953428  1.351216
    Zn  Zn3   0.772872  0.772728  0.046572  1.351277
    Zn  Zn4   0.227128  0.772728  0.953428  1.351267
    Zn  Zn5   0.227674  0.223731  0.955101  1.340308
    Zn  Zn6   0.772326  0.223731  0.044900  1.340304
    Zn  Zn7   0.727674  0.723731  0.955101  1.340283
    Zn  Zn8   0.272326  0.723731  0.044900  1.340302
    O   O17   0.235626  0.297316  0.971762  -0.688320
    O   O18   0.764374  0.297316  0.028238  -0.688306
    O   O19   0.735626  0.797316  0.971762  -0.688315
    O   O20   0.264374  0.797316  0.028238  -0.688293
    O   O21   0.200152  0.259882  0.902238  -0.623435
    O   O22   0.799848  0.259882  0.097762  -0.623467
    O   O23   0.700152  0.759882  0.902238  -0.623414
    O   O24   0.299848  0.759882  0.097762  -0.623423
    O   O25   0.215343  0.266219  0.034441  -0.689956
    O   O26   0.784657  0.266219  0.965560  -0.689918
    O   O27   0.715343  0.766219  0.034441  -0.689970
    O   O28   0.284657  0.766219  0.965560  -0.689957
    O   O29   0.181165  0.228407  0.965740  -0.678073
    O   O30   0.818835  0.228407  0.034260  -0.678047
    O   O31   0.681165  0.728407  0.965740  -0.678060
    O   O32   0.318835  0.728407  0.034260  -0.678033
    C   C9    0.207657  0.287944  0.916931  0.668382
    C   C10   0.792343  0.287944  0.083069  0.668583
    C   C11   0.707657  0.787944  0.916931  0.668372
    C   C12   0.292343  0.787944  0.083069  0.668373
    C   C13   0.182191  0.247204  0.000180  0.607003
    C   C14   0.817809  0.247204  0.999820  0.607327
    C   C15   0.682191  0.747204  0.000180  0.606957
    C   C16   0.317809  0.747204  0.999820  0.607222
    C   C17   0.364538  0.224885  0.981716  -0.193702
    C   C18   0.635462  0.224885  0.018284  -0.193757
    C   C19   0.864538  0.724885  0.981716  -0.193711
    C   C20   0.135462  0.724885  0.018284  -0.193736
    H   H1    0.343542  0.205345  0.966845  0.150374
    H   H2    0.656458  0.205345  0.033155  0.150413
    H   H3    0.843542  0.705345  0.966845  0.150374
    H   H4    0.156458  0.705345  0.033155  0.150403
    C   C21   0.400505  0.224822  0.982216  0.144354
    C   C22   0.599495  0.224822  0.017784  0.144369
    C   C23   0.900505  0.724822  0.982216  0.144356
    C   C24   0.099495  0.724822  0.017784  0.144367
    H   H5    0.406455  0.205357  0.966982  0.036113
    H   H6    0.593545  0.205357  0.033018  0.036099
    H   H7    0.906455  0.705357  0.966982  0.036115
    H   H8    0.093545  0.705357  0.033018  0.036101
    C   C25   0.427711  0.249575  0.000616  -0.592803
    C   C26   0.572289  0.249575  0.999384  -0.592809
    C   C27   0.927711  0.749575  0.000616  -0.592809
    C   C28   0.072289  0.749575  0.999384  -0.592802
    C   C29   0.418998  0.274237  0.019340  0.159685
    C   C30   0.581002  0.274237  0.980660  0.159704
    C   C31   0.918998  0.774237  0.019340  0.159689
    C   C32   0.081002  0.774237  0.980660  0.159696
    H   H9    0.440024  0.293768  0.034327  0.040291
    H   H10   0.559976  0.293768  0.965674  0.040278
    H   H11   0.940024  0.793768  0.034327  0.040290
    H   H12   0.059976  0.793768  0.965674  0.040279
    C   C33   0.383843  0.273973  0.020484  -0.192594
    C   C34   0.616157  0.273973  0.979516  -0.192634
    C   C35   0.883843  0.773973  0.020484  -0.192591
    C   C36   0.116157  0.773973  0.979516  -0.192601
    H   H13   0.377753  0.293427  0.035591  0.137915
    H   H14   0.622247  0.293427  0.964409  0.137935
    H   H15   0.877753  0.793427  0.035591  0.137913
    H   H16   0.122247  0.793427  0.964409  0.137928
    C   C37   0.356250  0.249374  0.001259  0.118251
    C   C38   0.643750  0.249374  0.998741  0.118306
    C   C39   0.856250  0.749374  0.001259  0.118265
    C   C40   0.143750  0.749374  0.998741  0.118237
    N   N1    0.483029  0.275349  0.000317  -0.412436
    N   N2    0.516971  0.275349  0.999684  -0.412464
    N   N3    0.983029  0.775349  0.000317  -0.412440
    N   N4    0.016971  0.775349  0.999684  -0.412462
    C   C41   0.534482  0.249619  0.999684  1.079701
    C   C42   0.465518  0.249619  0.000316  1.079680
    C   C43   0.034482  0.749619  0.999684  1.079696
    C   C44   0.965518  0.749619  0.000316  1.079686
    N   N5    0.517128  0.223897  0.000005  -0.403995
    N   N6    0.482872  0.223897  0.999995  -0.403985
    N   N7    0.017128  0.723897  0.000005  -0.403994
    N   N8    0.982872  0.723897  0.999995  -0.403986
    C   C45   0.959862  0.456534  0.418422  0.737120
    C   C46   0.040138  0.456534  0.581578  0.737073
    C   C47   0.459862  0.956534  0.418422  0.737152
    C   C48   0.540138  0.956534  0.581578  0.737135
    C   C49   0.370472  0.130283  0.291315  0.280786
    C   C50   0.629528  0.130283  0.708685  0.281050
    C   C51   0.870472  0.630283  0.291315  0.280783
    C   C52   0.129528  0.630283  0.708685  0.281027
    C   C53   0.332362  0.125318  0.226155  -0.340484
    C   C54   0.667638  0.125318  0.773845  -0.340653
    C   C55   0.832362  0.625318  0.226155  -0.340482
    C   C56   0.167638  0.625318  0.773845  -0.340647
    H   H17   0.295477  0.126140  0.202991  0.107773
    H   H18   0.704523  0.126140  0.797009  0.107796
    H   H19   0.795477  0.626140  0.202991  0.107777
    H   H20   0.204523  0.626140  0.797009  0.107794
    H   H21   0.344237  0.077197  0.208174  0.071311
    H   H22   0.655763  0.077197  0.791827  0.071281
    H   H23   0.844237  0.577197  0.208174  0.071314
    H   H24   0.155763  0.577197  0.791827  0.071283
    C   C57   0.315734  0.186860  0.130978  0.070800
    C   C58   0.684266  0.186860  0.869022  0.070931
    C   C59   0.815734  0.686860  0.130978  0.070768
    C   C60   0.184266  0.686860  0.869022  0.070909
    C   C61   0.437759  0.061258  0.374575  0.062196
    C   C62   0.562241  0.061258  0.625425  0.062162
    C   C63   0.937759  0.561258  0.374575  0.062099
    C   C64   0.062241  0.561258  0.625425  0.062114
    C   C65   0.394642  0.151169  0.280145  -0.302777
    C   C66   0.605358  0.151169  0.719855  -0.303029
    C   C67   0.894642  0.651169  0.280145  -0.302750
    C   C68   0.105358  0.651169  0.719855  -0.302994
    C   C69   0.357180  0.145536  0.214954  0.907102
    C   C70   0.642820  0.145536  0.785046  0.907303
    C   C71   0.857180  0.645536  0.214954  0.907054
    C   C72   0.142820  0.645536  0.785046  0.907276
    C   C73   0.420792  0.124894  0.282722  -0.252219
    C   C74   0.579207  0.124894  0.717279  -0.251869
    C   C75   0.920792  0.624894  0.282722  -0.252215
    C   C76   0.079207  0.624894  0.717279  -0.251872
    C   C77   0.396290  0.104475  0.294380  0.813841
    C   C78   0.603709  0.104475  0.705620  0.813515
    C   C79   0.896290  0.604475  0.294380  0.813795
    C   C80   0.103709  0.604475  0.705620  0.813475
    C   C81   0.382963  0.119792  0.216739  -0.217788
    C   C82   0.617037  0.119792  0.783261  -0.217994
    C   C83   0.882963  0.619792  0.216739  -0.217775
    C   C84   0.117037  0.619792  0.783261  -0.217988
    C   C85   0.358700  0.099140  0.228894  -0.165572
    C   C86   0.641300  0.099140  0.771106  -0.165377
    C   C87   0.858700  0.599140  0.228894  -0.165569
    C   C88   0.141300  0.599140  0.771106  -0.165371
    C   C89   0.334698  0.168365  0.169253  -0.553028
    C   C90   0.665302  0.168365  0.830747  -0.553146
    C   C91   0.834698  0.668365  0.169253  -0.552989
    C   C92   0.165302  0.668365  0.830747  -0.553120
    C   C93   0.419083  0.080683  0.338179  -0.577375
    C   C94   0.580917  0.080683  0.661821  -0.577278
    C   C95   0.919083  0.580683  0.338179  -0.577322
    C   C96   0.080917  0.580683  0.661821  -0.577221
    H   H25   0.387765  0.115907  0.184275  0.084966
    H   H26   0.612235  0.115907  0.815726  0.084995
    H   H27   0.887765  0.615907  0.184275  0.084965
    H   H28   0.112235  0.615907  0.815726  0.084995
    H   H29   0.457817  0.124272  0.306625  0.103703
    H   H30   0.542182  0.124272  0.693375  0.103599
    H   H31   0.957817  0.624272  0.306625  0.103703
    H   H32   0.042182  0.624272  0.693375  0.103595
    H   H33   0.408976  0.173047  0.301278  0.100063
    H   H34   0.591024  0.173047  0.698722  0.100101
    H   H35   0.908976  0.673047  0.301278  0.100061
    H   H36   0.091024  0.673047  0.698722  0.100094
    C   C97   0.100472  0.249200  0.947542  0.094725
    C   C98   0.899528  0.249200  0.052458  0.095258
    C   C99   0.600472  0.749200  0.947542  0.094701
    C   C100  0.399528  0.749200  0.052458  0.095010
    C   C101  0.064508  0.248450  0.947414  0.078470
    C   C102  0.935491  0.248450  0.052586  0.078037
    C   C103  0.564508  0.748450  0.947414  0.078283
    C   C104  0.435491  0.748450  0.052586  0.078199
    H   H37   0.029838  0.249991  0.906541  0.004410
    H   H38   0.970162  0.249991  0.093459  0.004464
    H   H39   0.529838  0.749991  0.906541  0.004429
    H   H40   0.470162  0.749991  0.093459  0.004429
    C   C105  0.072882  0.246330  0.000167  -0.630811
    C   C106  0.927118  0.246330  0.999834  -0.630215
    C   C107  0.572882  0.746330  0.000167  -0.630479
    C   C108  0.427118  0.746330  0.999834  -0.630360
    C   C109  0.117287  0.244579  0.052997  0.126597
    C   C110  0.882713  0.244579  0.947003  0.126205
    C   C111  0.617287  0.744579  0.052997  0.126437
    C   C112  0.382713  0.744579  0.947003  0.126326
    H   H41   0.123452  0.242791  0.093822  -0.023606
    H   H42   0.876548  0.242791  0.906178  -0.023552
    H   H43   0.623452  0.742791  0.093822  -0.023576
    H   H44   0.376548  0.742791  0.906178  -0.023570
    C   C113  0.153213  0.244558  0.053011  0.124245
    C   C114  0.846787  0.244558  0.946989  0.124718
    C   C115  0.653213  0.744558  0.053011  0.124227
    C   C116  0.346787  0.744558  0.946989  0.124507
    C   C117  0.144426  0.246959  0.000278  -0.045100
    C   C118  0.855574  0.246959  0.999722  -0.045822
    C   C119  0.644426  0.746959  0.000278  -0.044982
    C   C120  0.355574  0.746959  0.999722  -0.045496
    N   N9    0.042773  0.246112  0.051371  -0.357026
    N   N10   0.957227  0.246112  0.948629  -0.356908
    N   N11   0.542773  0.746112  0.051371  -0.357006
    N   N12   0.457227  0.746112  0.948629  -0.356951
    N   N13   0.008473  0.246135  0.051284  -0.355341
    N   N14   0.991527  0.246135  0.948716  -0.355496
    N   N15   0.508473  0.746135  0.051284  -0.355358
    N   N16   0.491527  0.746135  0.948716  -0.355418
    C   C121  0.965250  0.246138  0.999915  0.989660
    C   C122  0.034750  0.246138  0.000085  0.990040
    C   C123  0.465250  0.746138  0.999915  0.989746
    C   C124  0.534750  0.746138  0.000085  0.989860
    C   C125  0.148114  0.377594  0.733388  -0.257372
    C   C126  0.851886  0.377594  0.266612  -0.257378
    C   C127  0.648114  0.877594  0.733388  -0.257378
    C   C128  0.351886  0.877594  0.266612  -0.257390
    C   C129  0.127655  0.347403  0.726259  -0.157134
    C   C130  0.872345  0.347403  0.273741  -0.157067
    C   C131  0.627655  0.847403  0.726259  -0.157166
    C   C132  0.372345  0.847403  0.273741  -0.157113
    H   H45   0.132297  0.327003  0.709989  0.047888
    H   H46   0.867703  0.327003  0.290011  0.047878
    H   H47   0.632297  0.827003  0.709989  0.047896
    H   H48   0.367703  0.827003  0.290011  0.047886
    H   H49   0.168667  0.383496  0.720722  0.087796
    H   H50   0.831333  0.383496  0.279279  0.087797
    H   H51   0.668667  0.883496  0.720722  0.087799
    H   H52   0.331333  0.883496  0.279279  0.087799
    H   H53   0.048348  0.354684  0.659260  0.075422
    H   H54   0.951652  0.354684  0.340741  0.075409
    H   H55   0.548348  0.854684  0.659260  0.075414
    H   H56   0.451652  0.854684  0.340741  0.075419
    C   C133  0.184134  0.309593  0.870653  0.074601
    C   C134  0.815865  0.309593  0.129347  0.074238
    C   C135  0.684134  0.809593  0.870653  0.074593
    C   C136  0.315865  0.809593  0.129347  0.074514
    C   C137  0.062414  0.433859  0.625876  0.070179
    C   C138  0.937586  0.433859  0.374124  0.070004
    C   C139  0.562414  0.933859  0.625876  0.070237
    C   C140  0.437586  0.933859  0.374124  0.070074
    C   C141  0.162927  0.380709  0.794619  -0.175285
    C   C142  0.837073  0.380709  0.205381  -0.175216
    C   C143  0.662927  0.880709  0.794619  -0.175293
    C   C144  0.337073  0.880709  0.205381  -0.175239
    C   C145  0.142077  0.350935  0.786698  0.896113
    C   C146  0.857923  0.350935  0.213303  0.895810
    C   C147  0.642077  0.850935  0.786698  0.896137
    C   C148  0.357923  0.850935  0.213303  0.895984
    C   C149  0.117652  0.395054  0.768341  -0.242905
    C   C150  0.882348  0.395054  0.231659  -0.242874
    C   C151  0.617652  0.895054  0.768341  -0.242930
    C   C152  0.382348  0.895054  0.231659  -0.242909
    C   C153  0.103234  0.391544  0.707906  0.910686
    C   C154  0.896766  0.391544  0.292095  0.910490
    C   C155  0.603234  0.891544  0.707906  0.910743
    C   C156  0.396766  0.891544  0.292095  0.910590
    C   C157  0.097186  0.364877  0.761201  -0.208261
    C   C158  0.902814  0.364877  0.238800  -0.208168
    C   C159  0.597186  0.864877  0.761201  -0.208272
    C   C160  0.402814  0.864877  0.238800  -0.208197
    C   C161  0.082361  0.361786  0.699927  -0.195148
    C   C162  0.917639  0.361786  0.300073  -0.195109
    C   C163  0.582361  0.861786  0.699927  -0.195122
    C   C164  0.417639  0.861786  0.300073  -0.195141
    C   C165  0.164833  0.328084  0.832367  -0.573100
    C   C166  0.835167  0.328084  0.167633  -0.572742
    C   C167  0.664833  0.828084  0.832367  -0.573103
    C   C168  0.335167  0.828084  0.167633  -0.572980
    C   C169  0.080932  0.414754  0.662952  -0.599000
    C   C170  0.919068  0.414754  0.337048  -0.598782
    C   C171  0.580932  0.914754  0.662952  -0.599073
    C   C172  0.419068  0.914754  0.337048  -0.598866
    H   H57   0.076639  0.358938  0.773863  0.087994
    H   H58   0.923361  0.358938  0.226138  0.087975
    H   H59   0.576639  0.858938  0.773863  0.088000
    H   H60   0.423361  0.858938  0.226138  0.087989
    H   H61   0.112965  0.415427  0.784628  0.080726
    H   H62   0.887035  0.415427  0.215372  0.080728
    H   H63   0.612965  0.915427  0.784628  0.080734
    H   H64   0.387035  0.915427  0.215372  0.080732
    H   H65   0.196947  0.387939  0.835113  0.071180
    H   H66   0.803053  0.387939  0.164888  0.071172
    H   H67   0.696947  0.887939  0.835113  0.071182
    H   H68   0.303053  0.887939  0.164888  0.071174
    O   O33   0.501016  0.028234  0.563439  -0.692902
    O   O34   0.498984  0.028234  0.436561  -0.692922
    O   O35   0.001016  0.528234  0.563439  -0.692785
    O   O36   0.998984  0.528234  0.436561  -0.693026
    O   O37   0.559723  0.029069  0.561068  -0.711302
    O   O38   0.440277  0.029069  0.438932  -0.711305
    O   O39   0.059723  0.529069  0.561068  -0.711278
    O   O40   0.940277  0.529069  0.438932  -0.711420
    C   C173  0.540095  0.038385  0.581567  0.738123
    C   C174  0.459905  0.038385  0.418433  0.738137
    C   C175  0.040095  0.538385  0.581567  0.738044
    C   C176  0.959905  0.538385  0.418433  0.738387
    Zn  Zn9   0.460691  0.997452  0.500032  1.348661
    Zn  Zn10  0.539308  0.997452  0.499968  1.348672
    Zn  Zn11  0.960691  0.497452  0.500032  1.348497
    Zn  Zn12  0.039308  0.497452  0.499968  1.348695
    O   O41   0.940227  0.465861  0.438911  -0.704041
    O   O42   0.059773  0.465861  0.561089  -0.704125
    O   O43   0.440227  0.965861  0.438911  -0.704145
    O   O44   0.559773  0.965861  0.561089  -0.704160
    O   O45   0.998932  0.466692  0.436545  -0.691350
    O   O46   0.001068  0.466692  0.563455  -0.691304
    O   O47   0.498932  0.966692  0.436545  -0.691376
    O   O48   0.501068  0.966692  0.563455  -0.691400
    O   O49   0.094286  0.253085  0.897748  -0.090371
    C   C177  0.052825  0.255472  0.841951  0.055794
    C   C178  0.060571  0.261206  0.799796  -0.008781
    C   C179  0.087823  0.242309  0.798162  -0.056880
    C   C180  0.096147  0.247900  0.760345  -0.110660
    C   C181  0.076851  0.272204  0.723642  -0.103876
    C   C182  0.049262  0.290920  0.724810  -0.107790
    C   C183  0.041400  0.285611  0.763150  -0.126555
    H   H69   0.033285  0.274098  0.840183  0.060055
    H   H70   0.033620  0.234505  0.829718  0.043320
    H   H71   0.103029  0.223201  0.826830  0.089959
    H   H72   0.117777  0.233196  0.759444  0.106345
    H   H73   0.083260  0.276557  0.693865  0.097896
    H   H74   0.033780  0.309814  0.695690  0.091105
    H   H75   0.019999  0.300622  0.763937  0.099010
    O   O50   0.905714  0.253085  0.102252  -0.090447
    C   C184  0.947175  0.255472  0.158049  0.055100
    C   C185  0.939429  0.261206  0.200204  -0.008314
    C   C186  0.912177  0.242309  0.201838  -0.057153
    C   C187  0.903853  0.247900  0.239655  -0.110555
    C   C188  0.923149  0.272204  0.276359  -0.103938
    C   C189  0.950738  0.290920  0.275190  -0.107847
    C   C190  0.958600  0.285611  0.236850  -0.126567
    H   H76   0.966715  0.274098  0.159817  0.060259
    H   H77   0.966380  0.234505  0.170282  0.043466
    H   H78   0.896971  0.223201  0.173171  0.090054
    H   H79   0.882223  0.233196  0.240556  0.106323
    H   H80   0.916740  0.276557  0.306135  0.097921
    H   H81   0.966220  0.309814  0.304310  0.091134
    H   H82   0.980001  0.300622  0.236064  0.098977
    O   O51   0.594286  0.753085  0.897748  -0.090300
    C   C191  0.552825  0.755472  0.841951  0.055337
    C   C192  0.560571  0.761206  0.799796  -0.008539
    C   C193  0.587823  0.742309  0.798162  -0.056947
    C   C194  0.596147  0.747900  0.760345  -0.110770
    C   C195  0.576851  0.772204  0.723642  -0.103687
    C   C196  0.549262  0.790920  0.724810  -0.107948
    C   C197  0.541400  0.785611  0.763150  -0.126552
    H   H83   0.533285  0.774098  0.840183  0.060196
    H   H84   0.533620  0.734505  0.829718  0.043419
    H   H85   0.603029  0.723201  0.826830  0.090009
    H   H86   0.617777  0.733196  0.759444  0.106364
    H   H87   0.583260  0.776557  0.693865  0.097849
    H   H88   0.533780  0.809814  0.695690  0.091143
    H   H89   0.519999  0.800622  0.763937  0.099004
    O   O52   0.405714  0.753085  0.102252  -0.090441
    C   C198  0.447175  0.755472  0.158049  0.055300
    C   C199  0.439429  0.761206  0.200204  -0.008375
    C   C200  0.412177  0.742309  0.201838  -0.057081
    C   C201  0.403853  0.747900  0.239655  -0.110579
    C   C202  0.423149  0.772204  0.276359  -0.103956
    C   C203  0.450738  0.790920  0.275190  -0.107738
    C   C204  0.458600  0.785611  0.236850  -0.126715
    H   H90   0.466715  0.774098  0.159817  0.060221
    H   H91   0.466380  0.734505  0.170282  0.043419
    H   H92   0.396971  0.723201  0.173171  0.090027
    H   H93   0.382223  0.733196  0.240556  0.106327
    H   H94   0.416740  0.776557  0.306135  0.097921
    H   H95   0.466220  0.809814  0.304310  0.091106
    H   H96   0.480001  0.800622  0.236064  0.099024
    O   O53   0.196948  0.241523  0.103011  -0.116138
    C   C205  0.211344  0.240149  0.158946  -0.003241
    C   C206  0.261777  0.236957  0.201823  0.052485
    C   C207  0.288270  0.256914  0.200697  -0.081439
    C   C208  0.334973  0.253930  0.239566  -0.124823
    C   C209  0.355326  0.231212  0.280129  -0.151477
    C   C210  0.328956  0.211419  0.281670  -0.010602
    C   C211  0.282201  0.214082  0.242263  -0.156927
    H   H97   0.195600  0.220889  0.162750  0.077052
    H   H98   0.202014  0.260896  0.168741  0.062944
    H   H99   0.272515  0.274873  0.169168  0.082400
    H   H100  0.355639  0.269488  0.238385  0.114150
    H   H101  0.391971  0.228988  0.310897  0.105583
    H   H102  0.344980  0.193865  0.313962  0.049672
    H   H103  0.261917  0.198318  0.243783  0.093680
    O   O54   0.803052  0.241523  0.896989  -0.116345
    C   C212  0.788656  0.240149  0.841054  -0.003052
    C   C213  0.738223  0.236957  0.798177  0.052243
    C   C214  0.711730  0.256914  0.799304  -0.081284
    C   C215  0.665027  0.253930  0.760434  -0.124902
    C   C216  0.644674  0.231212  0.719871  -0.151475
    C   C217  0.671044  0.211419  0.718331  -0.010610
    C   C218  0.717799  0.214082  0.757737  -0.156757
    H   H104  0.804400  0.220889  0.837250  0.077038
    H   H105  0.797986  0.260896  0.831259  0.062917
    H   H106  0.727485  0.274873  0.830832  0.082356
    H   H107  0.644361  0.269488  0.761615  0.114171
    H   H108  0.608029  0.228988  0.689103  0.105591
    H   H109  0.655020  0.193865  0.686038  0.049662
    H   H110  0.738082  0.198318  0.756217  0.093632
    O   O55   0.696948  0.741523  0.103011  -0.116132
    C   C219  0.711344  0.740149  0.158946  -0.003214
    C   C220  0.761777  0.736957  0.201823  0.052448
    C   C221  0.788270  0.756914  0.200697  -0.081419
    C   C222  0.834973  0.753930  0.239566  -0.124830
    C   C223  0.855326  0.731212  0.280129  -0.151496
    C   C224  0.828956  0.711419  0.281670  -0.010574
    C   C225  0.782201  0.714082  0.242263  -0.156915
    H   H111  0.695600  0.720889  0.162750  0.077049
    H   H112  0.702014  0.760896  0.168741  0.062946
    H   H113  0.772515  0.774873  0.169168  0.082393
    H   H114  0.855639  0.769488  0.238385  0.114154
    H   H115  0.891971  0.728988  0.310897  0.105587
    H   H116  0.844980  0.693865  0.313962  0.049663
    H   H117  0.761917  0.698318  0.243783  0.093675
    O   O56   0.303052  0.741523  0.896989  -0.116268
    C   C226  0.288656  0.740149  0.841054  -0.003087
    C   C227  0.238223  0.736957  0.798177  0.052237
    C   C228  0.211730  0.756914  0.799304  -0.081293
    C   C229  0.165027  0.753930  0.760434  -0.124899
    C   C230  0.144674  0.731212  0.719871  -0.151472
    C   C231  0.171044  0.711419  0.718331  -0.010613
    C   C232  0.217799  0.714082  0.757737  -0.156748
    H   H118  0.304400  0.720889  0.837250  0.077042
    H   H119  0.297986  0.760896  0.831259  0.062929
    H   H120  0.227485  0.774873  0.830832  0.082369
    H   H121  0.144361  0.769488  0.761615  0.114167
    H   H122  0.108029  0.728988  0.689103  0.105591
    H   H123  0.155020  0.693865  0.686038  0.049660
    H   H124  0.238082  0.698318  0.756217  0.093631
    O   O57   0.362160  0.137345  0.328494  -0.302967
    C   C233  0.376463  0.120497  0.376099  -0.097649
    C   C234  0.360801  0.134607  0.405344  0.245792
    C   C235  0.314911  0.139434  0.373423  -0.153954
    C   C236  0.299991  0.152796  0.399828  -0.086177
    C   C237  0.330926  0.161329  0.458210  -0.152208
    C   C238  0.376795  0.156519  0.490178  -0.058591
    C   C239  0.391790  0.143193  0.463814  -0.267464
    H   H125  0.414130  0.119018  0.407599  0.087655
    H   H126  0.361326  0.098086  0.360956  0.054873
    H   H127  0.290544  0.132790  0.327609  0.108260
    H   H128  0.264028  0.156587  0.374739  0.094671
    H   H129  0.319222  0.171804  0.478919  0.120644
    H   H130  0.401043  0.163232  0.535949  0.097981
    H   H131  0.427842  0.139590  0.489280  0.132229
    O   O58   0.637840  0.137345  0.671507  -0.303042
    C   C240  0.623537  0.120497  0.623901  -0.097586
    C   C241  0.639199  0.134607  0.594656  0.245763
    C   C242  0.685089  0.139434  0.626577  -0.153921
    C   C243  0.700009  0.152796  0.600172  -0.086216
    C   C244  0.669074  0.161329  0.541790  -0.152218
    C   C245  0.623205  0.156519  0.509822  -0.058593
    C   C246  0.608210  0.143193  0.536186  -0.267438
    H   H132  0.585870  0.119018  0.592401  0.087642
    H   H133  0.638674  0.098086  0.639044  0.054866
    H   H134  0.709456  0.132790  0.672391  0.108258
    H   H135  0.735972  0.156587  0.625262  0.094681
    H   H136  0.680778  0.171804  0.521082  0.120667
    H   H137  0.598957  0.163232  0.464051  0.097972
    H   H138  0.572158  0.139590  0.510720  0.132221
    O   O59   0.862160  0.637345  0.328494  -0.302963
    C   C247  0.876463  0.620497  0.376099  -0.097718
    C   C248  0.860801  0.634607  0.405344  0.245892
    C   C249  0.814911  0.639434  0.373423  -0.153980
    C   C250  0.799991  0.652796  0.399828  -0.086126
    C   C251  0.830926  0.661329  0.458210  -0.152444
    C   C252  0.876795  0.656519  0.490178  -0.058428
    C   C253  0.891790  0.643193  0.463814  -0.267544
    H   H139  0.914130  0.619018  0.407599  0.087663
    H   H140  0.861326  0.598086  0.360956  0.054909
    H   H141  0.790544  0.632790  0.327609  0.108252
    H   H142  0.764028  0.656587  0.374739  0.094684
    H   H143  0.819222  0.671804  0.478919  0.120724
    H   H144  0.901043  0.663232  0.535949  0.097949
    H   H145  0.927842  0.639590  0.489280  0.132234
    O   O60   0.137840  0.637345  0.671507  -0.303016
    C   C254  0.123537  0.620497  0.623901  -0.097579
    C   C255  0.139199  0.634607  0.594656  0.245719
    C   C256  0.185089  0.639434  0.626577  -0.153927
    C   C257  0.200009  0.652796  0.600172  -0.086182
    C   C258  0.169074  0.661329  0.541790  -0.152243
    C   C259  0.123205  0.656519  0.509822  -0.058568
    C   C260  0.108210  0.643193  0.536186  -0.267411
    H   H146  0.085870  0.619018  0.592401  0.087639
    H   H147  0.138674  0.598086  0.639044  0.054877
    H   H148  0.209456  0.632790  0.672391  0.108254
    H   H149  0.235972  0.656587  0.625262  0.094678
    H   H150  0.180778  0.671804  0.521082  0.120660
    H   H151  0.098957  0.663232  0.464051  0.097970
    H   H152  0.072158  0.639590  0.510720  0.132199
