# Generated by REPEAT Assigner based on pymatgen
data_DB0-m3_o540_o22_f0_fsc.sym.9
_audit_creation_date              2022-05-24
_audit_creation_method            REPEAT_Assigner
_cell_length_a                    9.110181
_cell_length_b                    8.554149
_cell_length_c                    23.298415
_cell_angle_alpha                 90.000000
_cell_angle_beta                  93.907626
_cell_angle_gamma                 90.000000
_cell_volume                      1811.420951
_symmetry_space_group_name_H-M    P1
_symmetry_Int_Tables_number       1
loop_
    _symmetry_equiv_pos_site_id
    _symmetry_equiv_pos_as_xyz
    1  x,y,z
loop_
    _atom_site_type_symbol
    _atom_site_label
    _atom_site_fract_x
    _atom_site_fract_y
    _atom_site_fract_z
    _atom_type_partial_charge
    C   C1   0.026804  0.127624  0.793179  0.446085
    C   C2   0.973197  0.127624  0.206821  0.445919
    O   O1   0.094112  0.245239  0.767257  -0.475533
    O   O2   0.905889  0.245239  0.232743  -0.475495
    N   N1   0.975339  0.001184  0.762751  -0.165626
    N   N2   0.024662  0.001184  0.237249  -0.165544
    C   C3   0.925994  0.876252  0.791834  0.425984
    C   C4   0.074007  0.876252  0.208166  0.425944
    C   C5   0.002660  0.857544  0.671841  -0.278699
    C   C6   0.997340  0.857544  0.328159  -0.278713
    C   C7   0.016628  0.858825  0.613297  0.041421
    C   C8   0.983373  0.858825  0.386703  0.041355
    C   C9   0.010073  0.136488  0.612764  -0.033301
    C   C10  0.989927  0.136488  0.387236  -0.033247
    C   C11  0.969995  0.135149  0.668813  -0.259460
    C   C12  0.030005  0.135149  0.331187  -0.259442
    C   C13  0.981089  0.997514  0.700942  0.277348
    C   C14  0.018912  0.997514  0.299058  0.277352
    C   C15  0.984137  0.002411  0.881533  0.098216
    C   C16  0.015864  0.002411  0.118467  0.098048
    C   C17  0.017370  0.134620  0.852048  -0.119068
    C   C18  0.982631  0.134621  0.147952  -0.118860
    C   C19  0.048600  0.271191  0.881957  -0.042127
    C   C20  0.951401  0.271191  0.118043  -0.042216
    C   C21  0.944382  0.870169  0.851270  -0.099641
    C   C22  0.055619  0.870169  0.148730  -0.099546
    C   C23  0.036060  0.998040  0.585774  -0.139202
    C   C24  0.963941  0.998040  0.414226  -0.139239
    H   H1   0.933658  0.243506  0.686856  0.164422
    H   H2   0.066342  0.243506  0.313143  0.164372
    H   H3   0.077360  0.376758  0.859853  0.118261
    H   H4   0.922641  0.376758  0.140147  0.118280
    C   C25  0.993302  0.141452  0.029505  0.033386
    C   C26  0.006699  0.141452  0.970495  0.033457
    C   C27  0.014975  0.863053  0.029675  0.030370
    C   C28  0.985026  0.863053  0.970325  0.030388
    C   C29  0.008326  0.002311  0.059158  0.051976
    C   C30  0.991675  0.002311  0.940842  0.051890
    C   C31  0.963484  0.276419  0.059426  -0.174002
    C   C32  0.036517  0.276419  0.940574  -0.174043
    H   H5   0.937701  0.384858  0.037546  0.121793
    H   H6   0.062299  0.384858  0.962454  0.121797
    O   O3   0.855344  0.758377  0.763713  -0.479880
    O   O4   0.144657  0.758377  0.236287  -0.479871
    C   C33  0.920088  0.733656  0.880787  -0.046896
    C   C34  0.079912  0.733656  0.119213  -0.046962
    H   H7   0.015243  0.746416  0.693298  0.179180
    H   H8   0.984758  0.746416  0.306702  0.179162
    H   H9   0.886698  0.627972  0.858078  0.119606
    H   H10  0.113302  0.627972  0.141922  0.119628
    C   C35  0.052840  0.728263  0.060209  -0.176079
    C   C36  0.947161  0.728263  0.939791  -0.176111
    H   H11  0.072224  0.619599  0.038659  0.124682
    H   H12  0.927777  0.619599  0.961341  0.124686
    H   H13  0.061673  0.998381  0.541417  0.107246
    H   H14  0.938327  0.998381  0.458583  0.107270
    O   O5   0.133391  0.665618  0.559508  -0.657422
    O   O6   0.866609  0.665618  0.440492  -0.657567
    O   O7   0.880602  0.662084  0.559958  -0.660352
    O   O8   0.119398  0.662084  0.440042  -0.660463
    C   C37  0.010475  0.716117  0.578653  0.736469
    C   C38  0.989526  0.716117  0.421347  0.736760
    O   O9   0.867473  0.327059  0.441570  -0.710750
    O   O10  0.132527  0.327059  0.558430  -0.710719
    O   O11  0.120586  0.336312  0.439162  -0.704315
    O   O12  0.879414  0.336312  0.560838  -0.704327
    C   C39  0.991709  0.279188  0.421725  0.847107
    C   C40  0.008291  0.279188  0.578275  0.847106
    Zn  Zn1  0.835588  0.497855  0.499121  0.979095
    Zn  Zn2  0.164413  0.497855  0.500879  0.979073
    C   C41  0.565775  0.574829  0.446740  0.189405
    C   C42  0.434225  0.574829  0.553260  0.189474
    H   H15  0.603634  0.697706  0.445484  -0.001338
    H   H16  0.396366  0.697706  0.554516  -0.001364
    C   C43  0.400745  0.581627  0.452914  -0.094222
    C   C44  0.599255  0.581627  0.547086  -0.094190
    H   H17  0.372970  0.707141  0.456799  0.021780
    H   H18  0.627030  0.707141  0.543200  0.021766
    H   H19  0.341441  0.531197  0.414240  0.085396
    H   H20  0.658560  0.531197  0.585760  0.085359
    H   H21  0.620736  0.261909  0.467313  0.021914
    H   H22  0.379264  0.261909  0.532687  0.021926
    H   H23  0.378967  0.286883  0.456326  0.036703
    H   H24  0.621033  0.286883  0.543674  0.036700
    C   C45  0.583282  0.338345  0.501692  0.004112
    C   C46  0.416718  0.338345  0.498308  0.004067
    N   N3   0.641338  0.496386  0.496654  0.066096
    N   N4   0.358662  0.496386  0.503346  0.066051
    C   C47  0.594378  0.499857  0.388835  0.119320
    C   C48  0.548059  0.609542  0.339440  -0.249506
    H   H25  0.429516  0.638541  0.338314  0.054637
    H   H26  0.613163  0.719009  0.343539  0.033158
    H   H27  0.570740  0.552235  0.298274  0.058728
    H   H28  0.712025  0.479795  0.384939  0.009732
    H   H29  0.535012  0.387305  0.382909  -0.036079
    C   C49  0.405622  0.499857  0.611165  0.119262
    C   C50  0.451942  0.609542  0.660560  -0.249499
    H   H30  0.570484  0.638541  0.661686  0.054649
    H   H31  0.386837  0.719009  0.656461  0.033149
    H   H32  0.429260  0.552235  0.701726  0.058727
    H   H33  0.287975  0.479795  0.615061  0.009751
    H   H34  0.464988  0.387305  0.617090  -0.036076
