# Generated by REPEAT Assigner based on pymatgen
data_DB0-m29_o81_o149_f0_pts.sym.19
_audit_creation_date              2022-05-24
_audit_creation_method            REPEAT_Assigner
_cell_length_a                    15.760667
_cell_length_b                    9.393519
_cell_length_c                    15.835488
_cell_angle_alpha                 87.597912
_cell_angle_beta                  85.658342
_cell_angle_gamma                 108.432215
_cell_volume                      2212.380195
_symmetry_space_group_name_H-M    P1
_symmetry_Int_Tables_number       1
loop_
    _symmetry_equiv_pos_site_id
    _symmetry_equiv_pos_as_xyz
    1  x,y,z
loop_
    _atom_site_type_symbol
    _atom_site_label
    _atom_site_fract_x
    _atom_site_fract_y
    _atom_site_fract_z
    _atom_type_partial_charge
    C   C1   0.882202  0.062584  0.887545  -0.267947
    C   C2   0.275386  0.003683  0.933532  -0.097364
    C   C3   0.194642  0.012895  0.907277  0.243208
    C   C4   0.123389  0.004685  0.966373  -0.129700
    C   C5   0.042393  0.008945  0.939729  0.091747
    C   C6   0.972322  0.013469  0.997480  -0.191234
    C   C7   0.801415  0.067410  0.863211  -0.108320
    C   C8   0.727084  0.032142  0.920838  0.069720
    C   C9   0.891613  0.027205  0.971760  0.182976
    C   C10  0.819662  0.011658  0.032051  0.130912
    C   C11  0.735446  0.006345  0.006390  -0.087046
    C   C12  0.285155  0.995203  0.020371  -0.237327
    C   C13  0.214432  0.992043  0.078613  0.299301
    C   C14  0.133210  0.993955  0.051568  0.050629
    C   C15  0.062383  0.989485  0.109620  -0.124880
    C   C16  0.982837  0.000373  0.083058  0.135016
    C   C17  0.914263  0.000371  0.142577  0.268476
    C   C18  0.834132  0.007212  0.117344  -0.342238
    H   H1   0.936685  0.091370  0.838171  0.185912
    H   H2   0.034626  0.004117  0.873134  0.070995
    H   H3   0.795576  0.089914  0.796784  0.135468
    H   H4   0.069424  0.978251  0.176453  0.143414
    H   H5   0.785732  0.016065  0.166818  0.201919
    O   O1   0.594382  0.039416  0.058087  -0.469140
    C   C19  0.655600  0.973587  0.068415  0.492797
    O   O2   0.470166  0.679602  0.143807  -0.473396
    O   O3   0.644320  0.876083  0.133265  -0.452285
    O   O4   0.491862  0.842040  0.248306  -0.547783
    C   C20  0.481125  0.705981  0.223675  0.642800
    Fe  Fe1  0.500808  0.994681  0.155000  1.382276
    O   O5   0.381619  0.909673  0.108209  -0.589479
    O   O6   0.438309  0.137611  0.035361  -0.503516
    C   C21  0.372259  0.010824  0.052827  0.819589
    O   O7   0.531301  0.194640  0.205885  -0.688537
    O   O8   0.415904  0.062596  0.302221  -0.559425
    C   C22  0.478318  0.189213  0.274860  0.823806
    O   O9   0.464804  0.798536  0.750206  -0.588544
    O   O10  0.545207  0.913905  0.626967  -0.504864
    C   C23  0.497430  0.790923  0.672447  0.544185
    O   O11  0.632300  0.093535  0.822305  -0.594769
    O   O12  0.571381  0.891274  0.916160  -0.461268
    C   C24  0.639760  0.009563  0.888028  0.570151
    O   O13  0.338916  0.013430  0.787853  -0.488592
    O   O14  0.510972  0.147221  0.688985  -0.515470
    C   C25  0.502789  0.273311  0.715711  0.651534
    O   O15  0.424188  0.989392  0.891355  -0.483187
    C   C26  0.348721  0.003326  0.869168  0.616222
    O   O16  0.497310  0.288789  0.797721  -0.490216
    Fe  Fe2  0.507077  0.008741  0.788096  1.410834
    C   C27  0.496526  0.529015  0.690704  -0.143844
    C   C28  0.489875  0.645390  0.639125  0.109384
    C   C29  0.483121  0.630477  0.554025  -0.207556
    C   C30  0.498266  0.396701  0.656790  -0.163175
    C   C31  0.495475  0.384464  0.569382  0.216019
    C   C32  0.490954  0.503572  0.516403  0.113622
    C   C33  0.490514  0.489407  0.428136  -0.097031
    C   C34  0.499166  0.610083  0.368779  0.239692
    C   C35  0.483449  0.584189  0.284810  -0.146728
    N   N1   0.495645  0.255335  0.536311  -0.155210
    C   C36  0.489998  0.235659  0.453250  -0.003763
    C   C37  0.485115  0.350412  0.397823  0.058770
    C   C38  0.479733  0.329966  0.311664  -0.195874
    C   C39  0.475237  0.444372  0.256869  -0.006838
    H   H6   0.502201  0.544044  0.757522  0.161729
    H   H7   0.467606  0.423810  0.190832  0.144910
    H   H8   0.466539  0.718610  0.521003  0.149514
    H   H9   0.491227  0.129061  0.431573  0.137735
    O   O17  0.531701  0.756038  0.389554  -0.236999
    C   C40  0.625149  0.792447  0.380822  0.392497
    H   H10  0.647655  0.759595  0.318790  -0.025743
    H   H11  0.647116  0.733901  0.432944  -0.083846
    C   C41  0.667414  0.960575  0.385051  -0.227759
    H   H12  0.645094  0.994742  0.446841  0.076794
    H   H13  0.741615  0.989884  0.378766  0.062789
    H   H14  0.646528  0.020333  0.332708  0.018934
    O   O18  0.184768  0.031227  0.822676  -0.331901
    C   C42  0.211477  0.186868  0.803510  0.460669
    H   H15  0.278552  0.242057  0.825268  -0.037849
    H   H16  0.162389  0.235013  0.834594  -0.089987
    C   C43  0.216234  0.218249  0.708381  -0.265396
    H   H17  0.149203  0.164322  0.686119  0.051829
    H   H18  0.237039  0.341431  0.693033  0.058297
    H   H19  0.265819  0.172206  0.676208  0.095591
    O   O19  0.226365  0.991559  0.163433  -0.370277
    C   C44  0.259602  0.143038  0.180825  0.418912
    H   H20  0.237316  0.214120  0.135598  -0.069990
    H   H21  0.333891  0.180363  0.175485  -0.088702
    C   C45  0.225952  0.162618  0.270406  -0.208174
    H   H22  0.243279  0.085172  0.315666  0.079961
    H   H23  0.258092  0.280362  0.286144  0.044778
    H   H24  0.152107  0.137598  0.275495  0.024316
    O   O20  0.925610  0.996925  0.227389  -0.384437
    C   C46  0.886329  0.846359  0.256995  0.458444
    H   H25  0.899746  0.772130  0.208697  -0.074459
    H   H26  0.812849  0.820984  0.270618  -0.057653
    C   C47  0.925747  0.817726  0.337809  -0.307465
    H   H27  0.912633  0.891784  0.386376  0.089772
    H   H28  0.894147  0.698432  0.361700  0.069035
    H   H29  0.999228  0.841843  0.324690  0.079305
