# Generated by REPEAT Assigner based on pymatgen
data_DB0-m3_o105_o18_f0_fsc.sym.9_sqe
_audit_creation_date              2022-05-24
_audit_creation_method            REPEAT_Assigner
_cell_length_a                    10.856903
_cell_length_b                    14.136533
_cell_length_c                    15.784827
_cell_angle_alpha                 84.335790
_cell_angle_beta                  90.069827
_cell_angle_gamma                 109.149473
_cell_volume                      2276.159221
_symmetry_space_group_name_H-M    P1
_symmetry_Int_Tables_number       1
loop_
    _symmetry_equiv_pos_site_id
    _symmetry_equiv_pos_as_xyz
    1  x,y,z
loop_
    _atom_site_type_symbol
    _atom_site_label
    _atom_site_fract_x
    _atom_site_fract_y
    _atom_site_fract_z
    _atom_type_partial_charge
    C   C1   0.064141  0.003645  0.922273  -0.031596
    C   C2   0.935859  0.996356  0.077728  -0.031651
    C   C3   0.126577  0.004882  0.999491  -0.133503
    C   C4   0.873423  0.995119  0.000509  -0.133462
    H   H1   0.218649  0.992794  0.000752  0.116151
    H   H2   0.781351  0.007206  0.999248  0.116144
    C   C5   0.066871  0.007907  0.076610  0.023064
    C   C6   0.933129  0.992093  0.923390  0.023016
    C   C7   0.062407  0.997564  0.769571  0.056564
    C   C8   0.937593  0.002436  0.230430  0.056538
    C   C9   0.127041  0.988560  0.695818  -0.190530
    C   C10  0.872960  0.011440  0.304183  -0.190482
    H   H3   0.077613  0.966648  0.638083  0.096696
    H   H4   0.922387  0.033353  0.361917  0.096684
    C   C11  0.259204  0.005475  0.694923  -0.068720
    C   C12  0.740796  0.994526  0.305078  -0.068797
    C   C13  0.328870  0.036144  0.765118  -0.089995
    C   C14  0.671131  0.963856  0.234882  -0.089954
    H   H5   0.433889  0.056446  0.762657  0.108764
    H   H6   0.566111  0.943555  0.237343  0.108751
    C   C15  0.265861  0.037612  0.839647  -0.199185
    C   C16  0.734139  0.962388  0.160354  -0.199192
    H   H7   0.327982  0.063907  0.891553  0.118964
    H   H8   0.672018  0.936093  0.108448  0.118960
    C   C17  0.130480  0.011016  0.844665  0.093466
    C   C18  0.869520  0.988984  0.155335  0.093500
    C   C19  0.729265  0.955973  0.847517  -0.231276
    C   C20  0.270735  0.044027  0.152484  -0.231241
    H   H9   0.668262  0.933739  0.904609  0.124716
    H   H10  0.331738  0.066262  0.095392  0.124706
    C   C21  0.664861  0.954822  0.772680  -0.050220
    C   C22  0.335139  0.045179  0.227320  -0.050264
    H   H11  0.560159  0.936932  0.774253  0.099272
    H   H12  0.439841  0.063068  0.225747  0.099285
    C   C23  0.733110  0.980957  0.696408  -0.058539
    C   C24  0.266890  0.019043  0.303593  -0.058495
    C   C25  0.865065  0.996345  0.694510  -0.257204
    C   C26  0.134935  0.003655  0.305491  -0.257236
    C   C27  0.930885  0.990295  0.770115  0.106787
    C   C28  0.069115  0.009706  0.229885  0.106808
    C   C29  0.864661  0.981128  0.847524  0.071308
    C   C30  0.135340  0.018873  0.152477  0.071271
    H   H13  0.086083  0.983868  0.367247  0.162821
    H   H14  0.913917  0.016133  0.632754  0.162812
    O   O1   0.664732  0.079239  0.586308  -0.723121
    O   O2   0.335268  0.920762  0.413692  -0.723155
    O   O3   0.581825  0.905841  0.593894  -0.736888
    O   O4   0.418175  0.094160  0.406106  -0.736912
    C   C31  0.661776  0.989258  0.618915  0.856302
    C   C32  0.338224  0.010742  0.381086  0.856335
    O   O5   0.328895  0.912391  0.598007  -0.725878
    O   O6   0.671105  0.087610  0.401993  -0.725826
    O   O7   0.412192  0.085982  0.583157  -0.732996
    O   O8   0.587808  0.914019  0.416843  -0.732959
    C   C33  0.331146  0.000750  0.618610  0.884111
    C   C34  0.668855  0.999250  0.381391  0.884084
    Zn  Zn1  0.441925  0.887986  0.507075  1.050868
    Zn  Zn2  0.558075  0.112015  0.492925  1.050735
    N   N1   0.381825  0.756025  0.514299  0.177632
    N   N2   0.618175  0.243976  0.485702  0.177743
    C   C35  0.212335  0.600569  0.531165  -0.157907
    C   C36  0.787666  0.399431  0.468835  -0.157886
    C   C37  0.254100  0.703982  0.523813  -0.173670
    C   C38  0.745901  0.296019  0.476187  -0.173735
    C   C39  0.470072  0.708148  0.509344  -0.184568
    C   C40  0.529928  0.291852  0.490656  -0.184586
    C   C41  0.432085  0.603548  0.510514  0.103271
    C   C42  0.567915  0.396453  0.489487  0.103232
    C   C43  0.301284  0.549441  0.526919  0.153424
    C   C44  0.698716  0.450560  0.473081  0.153414
    C   C45  0.521282  0.552459  0.496647  0.060559
    C   C46  0.478718  0.447541  0.503353  0.060618
    C   C47  0.348599  0.395867  0.526997  -0.169630
    C   C48  0.651401  0.604133  0.473003  -0.169606
    C   C49  0.260728  0.445360  0.538017  -0.149008
    C   C50  0.739272  0.554641  0.461983  -0.148997
    H   H15  0.429349  0.245713  0.493787  0.153582
    H   H16  0.570651  0.754287  0.506213  0.153550
    H   H17  0.816019  0.256962  0.473307  0.207790
    H   H18  0.183981  0.743039  0.526693  0.207782
    H   H19  0.108731  0.561562  0.538172  0.121658
    H   H20  0.891270  0.438438  0.461828  0.121663
    H   H21  0.311375  0.315664  0.541609  0.194735
    H   H22  0.688625  0.684337  0.458391  0.194736
    N   N3   0.129840  0.386994  0.564900  0.735012
    O   O9   0.076219  0.299930  0.536605  -0.425868
    O   O10  0.078595  0.407090  0.632471  -0.387141
    N   N4   0.870160  0.613006  0.435101  0.734996
    O   O11  0.923781  0.700070  0.463396  -0.425866
    O   O12  0.921405  0.592910  0.367530  -0.387139
