# Generated by REPEAT Assigner based on pymatgen
data_DB0-m3_o7_o10_f0_pcu.sym.71
_audit_creation_date              2022-05-24
_audit_creation_method            REPEAT_Assigner
_cell_length_a                    9.021750
_cell_length_b                    17.775965
_cell_length_c                    16.597311
_cell_angle_alpha                 90.000450
_cell_angle_beta                  97.855208
_cell_angle_gamma                 90.004462
_cell_volume                      2636.740045
_symmetry_space_group_name_H-M    P1
_symmetry_Int_Tables_number       1
loop_
    _symmetry_equiv_pos_site_id
    _symmetry_equiv_pos_as_xyz
    1  x,y,z
loop_
    _atom_site_type_symbol
    _atom_site_label
    _atom_site_fract_x
    _atom_site_fract_y
    _atom_site_fract_z
    _atom_type_partial_charge
    O   O1   0.503090  0.386656  0.568240  -0.689785
    O   O2   0.503063  0.610658  0.428556  -0.669148
    O   O3   0.498360  0.386489  0.429017  -0.671353
    O   O4   0.507806  0.610823  0.567591  -0.634171
    C   C1   0.500063  0.351349  0.498623  0.722160
    C   C2   0.506091  0.645996  0.498079  0.675387
    O   O5   0.282636  0.499893  0.553385  -0.679542
    O   O6   0.723589  0.497381  0.443354  -0.649438
    O   O7   0.277826  0.499796  0.414463  -0.601073
    O   O8   0.728398  0.497466  0.582215  -0.601513
    C   C3   0.209286  0.500194  0.479385  0.753312
    C   C4   0.796959  0.497055  0.517325  0.722839
    Zn  Zn1  0.506252  0.498829  0.590048  1.017072
    Zn  Zn2  0.499987  0.498505  0.406660  1.046957
    C   C5   0.043310  0.502416  0.467068  -0.103709
    C   C6   0.962934  0.494853  0.529639  -0.086144
    C   C7   0.508086  0.845186  0.570228  -0.240639
    C   C8   0.498018  0.152152  0.426472  -0.222011
    H   H1   0.509646  0.875556  0.626766  0.139019
    H   H2   0.496460  0.121782  0.369934  0.132368
    C   C9   0.508829  0.767621  0.570313  -0.043843
    C   C10  0.497292  0.229718  0.426386  -0.094763
    H   H3   0.510932  0.738237  0.627450  0.082996
    H   H4   0.495203  0.259095  0.369246  0.109358
    C   C11  0.506538  0.728472  0.498113  -0.059240
    C   C12  0.499585  0.268870  0.498586  -0.056512
    C   C13  0.503790  0.767754  0.425974  -0.043653
    C   C14  0.502315  0.229585  0.570724  -0.047578
    H   H5   0.501897  0.738450  0.368802  0.088919
    H   H6   0.504209  0.258883  0.627900  0.090781
    C   C15  0.503056  0.845339  0.426167  -0.247604
    C   C16  0.503033  0.152000  0.570530  -0.239461
    H   H7   0.500667  0.875835  0.369656  0.139202
    H   H8   0.505412  0.121504  0.627041  0.137815
    C   C17  0.505057  0.884053  0.498223  0.307321
    C   C18  0.501035  0.113285  0.498475  0.315879
    C   C19  0.503663  0.964777  0.498298  -0.164241
    C   C20  0.502427  0.032562  0.498402  -0.186507
    C   C21  0.435199  0.448955  0.830145  -0.303053
    C   C22  0.574233  0.553563  0.169640  -0.116244
    H   H9   0.375939  0.406114  0.859146  0.178639
    H   H10  0.636801  0.596641  0.143132  0.090567
    C   C23  0.435839  0.446742  0.747296  0.016018
    C   C24  0.572985  0.551926  0.252336  -0.022104
    H   H11  0.376121  0.402670  0.711587  0.148839
    H   H12  0.634346  0.593895  0.290458  0.158278
    N   N1   0.510249  0.499361  0.710777  -0.055319
    N   N2   0.496178  0.498232  0.285942  -0.167197
    C   C25  0.585315  0.554505  0.754388  -0.147955
    C   C26  0.418662  0.445234  0.239808  0.004217
    H   H13  0.643634  0.596444  0.723558  0.173933
    H   H14  0.357772  0.404316  0.270295  0.145705
    C   C27  0.586270  0.559809  0.837575  0.157103
    C   C28  0.416571  0.445286  0.155767  0.132899
    C   C29  0.509368  0.505412  0.876325  0.239988
    C   C30  0.496232  0.500115  0.121092  0.139396
    C   C31  0.505615  0.503099  0.962625  -0.118223
    C   C32  0.500800  0.501195  0.034893  -0.167901
    N   N3   0.968309  0.510867  0.386818  0.099330
    C   C33  0.019342  0.574119  0.343758  -0.302967
    C   C34  0.963763  0.442000  0.340942  -0.189942
    H   H15  0.093268  0.610688  0.385903  0.114389
    H   H16  0.921327  0.607984  0.317495  0.051518
    H   H17  0.079526  0.554431  0.293732  0.075706
    H   H18  0.913920  0.396930  0.374848  0.067214
    H   H19  0.077920  0.424751  0.331137  0.019558
    H   H20  0.893662  0.450064  0.281260  0.072676
    N   N4   0.037946  0.486470  0.609894  0.159644
    C   C35  0.042282  0.555339  0.655759  -0.249697
    C   C36  0.987168  0.423167  0.652966  -0.393158
    H   H21  0.091923  0.600456  0.621826  0.077214
    H   H22  0.112475  0.547336  0.715424  0.083224
    H   H23  0.928088  0.572481  0.665606  0.043872
    H   H24  0.913227  0.386583  0.610845  0.132420
    H   H25  0.927055  0.442793  0.703044  0.111343
    H   H26  0.085335  0.389360  0.679149  0.069139
    N   N5   0.666907  0.620901  0.877742  -0.213381
    C   C37  0.824573  0.618591  0.871970  0.033741
    C   C38  0.632451  0.645593  0.955664  -0.188424
    H   H27  0.855574  0.561742  0.852381  0.020278
    H   H28  0.890224  0.631482  0.931828  0.032644
    H   H29  0.851173  0.660837  0.826909  0.032487
    H   H30  0.509569  0.647206  0.955701  0.097585
    H   H31  0.674656  0.703823  0.966652  0.085983
    H   H32  0.690254  0.609802  0.004837  0.123492
    N   N6   0.336563  0.390833  0.104458  -0.195555
    C   C39  0.288813  0.324769  0.144118  -0.265115
    C   C40  0.218372  0.423665  0.048335  0.045683
    H   H33  0.385055  0.299957  0.184067  0.109014
    H   H34  0.246949  0.282313  0.097502  0.131579
    H   H35  0.197297  0.339001  0.179840  0.091752
    H   H36  0.204334  0.483781  0.063462  0.028985
    H   H37  0.111410  0.393986  0.052050  0.033810
    H   H38  0.245770  0.418627  0.985468  0.016917
