# Generated by REPEAT Assigner based on pymatgen
data_DB0-m2_o23_o23_f0_nbo.sym.108_sqe
_audit_creation_date              2022-05-24
_audit_creation_method            REPEAT_Assigner
_cell_length_a                    27.453915
_cell_length_b                    27.460476
_cell_length_c                    27.449824
_cell_angle_alpha                 109.484043
_cell_angle_beta                  109.474355
_cell_angle_gamma                 109.465603
_cell_volume                      15928.488828
_symmetry_space_group_name_H-M    P1
_symmetry_Int_Tables_number       1
loop_
    _symmetry_equiv_pos_site_id
    _symmetry_equiv_pos_as_xyz
    1  x,y,z
loop_
    _atom_site_type_symbol
    _atom_site_label
    _atom_site_fract_x
    _atom_site_fract_y
    _atom_site_fract_z
    _atom_type_partial_charge
    O   O1   0.437041  0.402620  0.462136  -0.612677
    O   O2   0.562959  0.597380  0.537864  -0.612712
    O   O3   0.440418  0.475223  0.538398  -0.599153
    O   O4   0.559582  0.524777  0.461603  -0.599318
    C   C1   0.419101  0.419281  0.500224  0.763001
    C   C2   0.580899  0.580719  0.499776  0.763193
    O   O5   0.563130  0.465771  0.525212  -0.616955
    O   O6   0.436870  0.534229  0.474788  -0.616984
    O   O7   0.559627  0.534931  0.598036  -0.598743
    O   O8   0.440373  0.465069  0.401965  -0.598915
    C   C3   0.581036  0.500390  0.581232  0.779694
    C   C4   0.418964  0.499610  0.418768  0.779903
    Cu  Cu1  0.500038  0.458016  0.457943  1.017560
    Cu  Cu2  0.499962  0.541984  0.542057  1.017458
    C   C5   0.702317  0.438266  0.688258  -0.099600
    C   C6   0.297683  0.561734  0.311742  -0.099588
    C   C7   0.705483  0.519351  0.766332  -0.121315
    C   C8   0.294517  0.480649  0.233668  -0.121381
    C   C9   0.750329  0.514913  0.812324  -0.133832
    C   C10  0.249671  0.485087  0.187676  -0.133771
    H   H1   0.734151  0.404802  0.745258  0.047391
    H   H2   0.265849  0.595198  0.254742  0.047399
    H   H3   0.659140  0.407176  0.681050  0.017934
    H   H4   0.340860  0.592824  0.318950  0.017942
    H   H5   0.714693  0.566037  0.784515  0.023461
    H   H6   0.285307  0.433963  0.215485  0.023464
    H   H7   0.659843  0.489914  0.755566  0.033435
    H   H8   0.340157  0.510086  0.244434  0.033452
    H   H9   0.726475  0.479187  0.819810  0.026367
    H   H10  0.273525  0.520813  0.180190  0.026360
    H   H11  0.777797  0.557951  0.854943  0.034735
    H   H12  0.222203  0.442049  0.145058  0.034706
    C   C11  0.874139  0.500415  0.873947  -0.116561
    C   C12  0.125861  0.499585  0.126053  -0.116690
    C   C13  0.710455  0.500422  0.710465  0.658219
    C   C14  0.289545  0.499578  0.289536  0.657920
    C   C15  0.752794  0.439441  0.734226  -0.172888
    C   C16  0.247206  0.560559  0.265774  -0.172907
    C   C17  0.790009  0.500423  0.789919  0.651835
    C   C18  0.209991  0.499577  0.210081  0.651766
    C   C19  0.819077  0.546914  0.775439  -0.124333
    C   C20  0.180923  0.453086  0.224562  -0.124467
    C   C21  0.771393  0.543648  0.724573  -0.152101
    C   C22  0.228607  0.456352  0.275428  -0.151794
    C   C23  0.836133  0.500421  0.835987  -0.389929
    C   C24  0.163867  0.499579  0.164013  -0.389840
    C   C25  0.664327  0.500418  0.664396  -0.400977
    C   C26  0.335673  0.499582  0.335604  -0.400676
    C   C27  0.626309  0.500409  0.626432  -0.118115
    C   C28  0.373691  0.499591  0.373568  -0.118365
    H   H13  0.776344  0.528051  0.684618  0.032679
    H   H14  0.223656  0.471949  0.315382  0.032696
    H   H15  0.776317  0.588556  0.737591  0.041148
    H   H16  0.223683  0.411444  0.262410  0.041106
    H   H17  0.850782  0.538516  0.762269  0.035958
    H   H18  0.149218  0.461484  0.237731  0.036005
    H   H19  0.702503  0.422794  0.645525  0.029083
    H   H20  0.297497  0.577205  0.354475  0.029092
    H   H21  0.781098  0.430148  0.715888  0.038262
    H   H22  0.218902  0.569852  0.284112  0.038264
    H   H23  0.843643  0.591933  0.815271  0.023220
    H   H24  0.156357  0.408067  0.184729  0.023212
    C   C29  0.248814  0.236481  0.437562  -0.152014
    C   C30  0.751186  0.763519  0.562438  -0.152406
    C   C31  0.254061  0.314098  0.520895  -0.155197
    C   C32  0.745939  0.685902  0.479106  -0.155257
    C   C33  0.202220  0.264197  0.514222  -0.144622
    C   C34  0.797780  0.735803  0.485778  -0.144673
    H   H25  0.159026  0.170700  0.404757  0.002429
    H   H26  0.840974  0.829300  0.595243  0.002315
    H   H27  0.224246  0.249293  0.407775  0.010685
    H   H28  0.775754  0.750707  0.592225  0.010789
    H   H29  0.283017  0.349830  0.568380  0.019447
    H   H30  0.716983  0.650170  0.431620  0.019431
    H   H31  0.236796  0.332805  0.493664  0.045282
    H   H32  0.763204  0.667195  0.506336  0.045332
    H   H33  0.159845  0.252524  0.477381  0.025730
    H   H34  0.840155  0.747476  0.522619  0.025738
    H   H35  0.200683  0.279019  0.556259  0.046725
    H   H36  0.799317  0.720981  0.443741  0.046741
    C   C35  0.126381  0.126266  0.500386  -0.143801
    C   C36  0.873619  0.873734  0.499614  -0.143901
    C   C37  0.289920  0.289750  0.500093  0.759025
    C   C38  0.710080  0.710250  0.499907  0.759097
    C   C39  0.204914  0.186748  0.439021  0.009871
    C   C40  0.795086  0.813252  0.560979  0.010392
    C   C41  0.210498  0.210276  0.500323  0.659711
    C   C42  0.789502  0.789724  0.499677  0.659599
    C   C43  0.271855  0.229366  0.548059  -0.347381
    C   C44  0.728145  0.770634  0.451941  -0.347310
    C   C45  0.318952  0.270426  0.541618  -0.014053
    C   C46  0.681048  0.729574  0.458382  -0.014171
    C   C47  0.164440  0.164192  0.500395  -0.337464
    C   C48  0.835560  0.835808  0.499605  -0.337415
    C   C49  0.335957  0.335933  0.500133  -0.451673
    C   C50  0.664043  0.664067  0.499867  -0.451503
    C   C51  0.373905  0.373982  0.500171  -0.085577
    C   C52  0.626095  0.626018  0.499829  -0.085769
    H   H37  0.339581  0.246620  0.522869  -0.028616
    H   H38  0.660419  0.753380  0.477131  -0.028585
    H   H39  0.353897  0.310017  0.586032  0.029785
    H   H40  0.646103  0.689983  0.413968  0.029794
    H   H41  0.275207  0.220950  0.420365  0.043300
    H   H42  0.724793  0.779050  0.579635  0.043377
    H   H43  0.213670  0.149057  0.428268  -0.029778
    H   H44  0.786330  0.850943  0.571732  -0.029938
    H   H45  0.277414  0.253938  0.592595  0.133133
    H   H46  0.722586  0.746062  0.407405  0.133120
    O   O9   0.965087  0.402129  0.940536  -0.584251
    O   O10  0.034913  0.597871  0.059464  -0.584314
    O   O11  0.034357  0.474873  0.937104  -0.620364
    O   O12  0.965643  0.525127  0.062896  -0.620324
    C   C53  0.999703  0.418881  0.919176  0.773586
    C   C54  0.000297  0.581119  0.080824  0.773570
    O   O13  0.902643  0.462379  0.937107  -0.615794
    O   O14  0.097357  0.537621  0.062893  -0.615776
    O   O15  0.975358  0.538426  0.940401  -0.603133
    O   O16  0.024642  0.461574  0.059599  -0.603144
    C   C55  0.919385  0.500401  0.919141  0.774217
    C   C56  0.080615  0.499599  0.080859  0.774335
    Cu  Cu3  0.957959  0.458113  0.000125  1.020825
    Cu  Cu4  0.042041  0.541886  0.999875  1.020816
    O   O17  0.961696  0.936951  0.402153  -0.599038
    O   O18  0.038304  0.063049  0.597847  -0.599007
    O   O19  0.037945  0.940657  0.475079  -0.610963
    O   O20  0.962055  0.059343  0.524921  -0.611004
    C   C57  0.999889  0.919210  0.419027  0.761299
    C   C58  0.000111  0.080790  0.580974  0.761248
    O   O21  0.025180  0.059650  0.462291  -0.626525
    O   O22  0.974820  0.940350  0.537709  -0.626543
    O   O23  0.098002  0.063208  0.538524  -0.600160
    O   O24  0.901998  0.936792  0.461476  -0.600175
    C   C59  0.081190  0.081056  0.500413  0.794162
    C   C60  0.918810  0.918944  0.499587  0.794283
    Cu  Cu5  0.957939  0.000023  0.458000  1.022871
    Cu  Cu6  0.042061  0.999977  0.542000  1.022852
    C   C61  0.987753  0.235864  0.798818  -0.344544
    C   C62  0.012247  0.764136  0.201182  -0.344918
    C   C63  0.060192  0.313788  0.794245  -0.128382
    C   C64  0.939808  0.686212  0.205755  -0.128338
    C   C65  0.061981  0.263759  0.750966  -0.156845
    C   C66  0.938019  0.736241  0.249034  -0.156941
    H   H47  0.006045  0.165976  0.762296  0.026285
    H   H48  0.993955  0.834024  0.237704  0.026237
    H   H49  0.026869  0.248400  0.839876  0.132669
    H   H50  0.973131  0.751600  0.160124  0.132745
    H   H51  0.067713  0.349801  0.782907  0.022858
    H   H52  0.932287  0.650198  0.217093  0.022881
    H   H53  0.095747  0.332113  0.840296  0.042353
    H   H54  0.904253  0.667887  0.159704  0.042324
    H   H55  0.092112  0.251598  0.776125  0.016840
    H   H56  0.907888  0.748402  0.223875  0.016881
    H   H57  0.078970  0.278785  0.724211  0.042204
    H   H58  0.921030  0.721215  0.275789  0.042223
    C   C67  0.999955  0.125975  0.626125  -0.076492
    C   C68  0.000045  0.874025  0.373875  -0.076649
    C   C69  0.999627  0.289447  0.789774  0.646768
    C   C70  0.000373  0.710553  0.210226  0.646885
    C   C71  0.979313  0.185528  0.746068  -0.008474
    C   C72  0.020687  0.814472  0.253933  -0.008243
    C   C73  0.999625  0.209923  0.710073  0.787921
    C   C74  0.000375  0.790077  0.289927  0.787744
    C   C75  0.957163  0.228325  0.680986  -0.140637
    C   C76  0.042837  0.771675  0.319015  -0.140827
    C   C77  0.952857  0.271635  0.728503  -0.055090
    C   C78  0.047143  0.728364  0.271497  -0.054896
    C   C79  0.999814  0.163907  0.664046  -0.474056
    C   C80  0.000186  0.836093  0.335954  -0.473834
    C   C81  0.999606  0.335546  0.835922  -0.326430
    C   C82  0.000394  0.664454  0.164079  -0.326493
    C   C83  0.999701  0.373646  0.873928  -0.140791
    C   C84  0.000299  0.626353  0.126072  -0.140760
    H   H59  0.907439  0.250753  0.722138  -0.008387
    H   H60  0.092561  0.749247  0.277862  -0.008436
    H   H61  0.960948  0.311843  0.724008  0.021445
    H   H62  0.039052  0.688157  0.275992  0.021466
    H   H63  0.912353  0.188533  0.647877  0.049215
    H   H64  0.087647  0.811467  0.352123  0.049264
    H   H65  0.931547  0.150524  0.717700  -0.031184
    H   H66  0.068453  0.849476  0.282300  -0.031235
    H   H67  0.974043  0.250074  0.658033  0.006877
    H   H68  0.025957  0.749926  0.341967  0.006961
    I   I1   0.283185  0.154878  0.543159  -0.039652
    I   I2   0.716815  0.845122  0.456841  -0.039649
    I   I3   0.911485  0.207020  0.809655  -0.042756
    I   I4   0.088515  0.792980  0.190345  -0.042731
