# Generated by REPEAT Assigner based on pymatgen
data_DB0-m3_o90_o22_f0_fsc.sym.6
_audit_creation_date              2022-05-24
_audit_creation_method            REPEAT_Assigner
_cell_length_a                    6.619287
_cell_length_b                    9.019796
_cell_length_c                    15.886620
_cell_angle_alpha                 96.194408
_cell_angle_beta                  81.410642
_cell_angle_gamma                 89.930331
_cell_volume                      932.245580
_symmetry_space_group_name_H-M    P1
_symmetry_Int_Tables_number       1
loop_
    _symmetry_equiv_pos_site_id
    _symmetry_equiv_pos_as_xyz
    1  x,y,z
loop_
    _atom_site_type_symbol
    _atom_site_label
    _atom_site_fract_x
    _atom_site_fract_y
    _atom_site_fract_z
    _atom_type_partial_charge
    C   C1   0.327673  0.025199  0.697383  -0.104642
    C   C2   0.197686  0.014988  0.772805  0.156627
    H   H1   0.038069  0.993944  0.771063  -0.006728
    C   C3   0.269472  0.029909  0.850115  -0.484291
    C   C4   0.473000  0.057469  0.852443  0.132196
    H   H2   0.530432  0.070315  0.912993  0.008991
    C   C5   0.604686  0.063731  0.777042  -0.243592
    H   H3   0.765066  0.081028  0.778919  0.144221
    C   C6   0.534290  0.044148  0.699091  0.181778
    N   N1   0.198732  0.028403  0.004628  -0.247126
    N   N2   0.071721  0.013734  0.075705  -0.309337
    C   C7   0.873415  0.985482  0.072248  0.781612
    N   N3   0.804213  0.972456  0.996439  -0.266843
    N   N4   0.931219  0.987125  0.925366  -0.271288
    C   C8   0.129520  0.015379  0.928819  0.759969
    C   C9   0.529882  0.943421  0.148498  0.112340
    H   H4   0.472643  0.930557  0.087905  0.011470
    C   C10  0.397989  0.937200  0.223839  -0.112759
    H   H5   0.237646  0.919907  0.221872  0.102295
    C   C11  0.468122  0.956829  0.301840  -0.124218
    C   C12  0.674710  0.975742  0.303669  -0.053784
    C   C13  0.804920  0.985908  0.228294  0.177328
    H   H6   0.964505  0.006945  0.230123  0.014050
    C   C14  0.733367  0.970973  0.150930  -0.490165
    O   O1   0.759935  0.894231  0.593209  -0.338871
    O   O2   0.762061  0.149389  0.591632  -0.687894
    C   C15  0.684800  0.028270  0.621230  0.558890
    O   O3   0.181563  0.141411  0.592644  -0.652696
    O   O4   0.180673  0.884744  0.588247  -0.641535
    C   C16  0.237818  0.016255  0.618651  0.648414
    O   O5   0.242873  0.107132  0.407771  -0.749072
    O   O6   0.240636  0.851359  0.409361  -0.749990
    C   C17  0.317367  0.972741  0.379615  0.977932
    O   O7   0.821234  0.859608  0.408292  -0.630436
    O   O8   0.822120  0.116069  0.412687  -0.608155
    C   C18  0.764318  0.984692  0.382472  0.574745
    Zn  Zn1  0.006867  0.165965  0.501259  0.980975
    Zn  Zn2  0.995741  0.834974  0.499733  0.871579
    C   C19  0.181185  0.431596  0.537375  0.146161
    H   H7   0.323604  0.414227  0.490644  -0.091398
    H   H8   0.200385  0.383520  0.597123  -0.009563
    C   C20  0.132458  0.597165  0.557087  -0.160930
    H   H9   0.056897  0.620826  0.624396  0.052605
    H   H10  0.275663  0.660994  0.547675  0.074625
    H   H11  0.146701  0.336425  0.370656  0.023172
    H   H12  0.235474  0.582139  0.400391  0.106548
    C   C21  0.023918  0.401859  0.414182  0.068903
    C   C22  0.824803  0.423233  0.549521  -0.298249
    N   N5   0.013808  0.360407  0.500413  0.406709
    H   H13  0.694114  0.354677  0.533372  0.156092
    H   H14  0.833453  0.424791  0.618789  0.073313
    N   N6   0.995006  0.640428  0.500324  0.471571
    C   C23  0.068272  0.566719  0.415434  -0.232049
    C   C24  0.795904  0.580895  0.528694  -0.157971
    H   H15  0.874963  0.379421  0.391753  -0.044735
    H   H16  0.990191  0.614984  0.367328  0.083904
    Cl  Cl1  0.673671  0.689982  0.622323  -0.135089
    Cl  Cl2  0.642689  0.580248  0.445778  0.044392
