# Generated by REPEAT Assigner based on pymatgen
data_DB0-m3_o145_o22_f0_fsc.sym.13_sqe
_audit_creation_date              2022-05-24
_audit_creation_method            REPEAT_Assigner
_cell_length_a                    6.628462
_cell_length_b                    9.016100
_cell_length_c                    19.597297
_cell_angle_alpha                 96.701529
_cell_angle_beta                  89.064299
_cell_angle_gamma                 89.940625
_cell_volume                      1163.028493
_symmetry_space_group_name_H-M    P1
_symmetry_Int_Tables_number       1
loop_
    _symmetry_equiv_pos_site_id
    _symmetry_equiv_pos_as_xyz
    1  x,y,z
loop_
    _atom_site_type_symbol
    _atom_site_label
    _atom_site_fract_x
    _atom_site_fract_y
    _atom_site_fract_z
    _atom_type_partial_charge
    C   C1   0.655363  0.906132  0.092592  -0.077684
    C   C2   0.731565  0.968462  0.154418  -0.045380
    C   C3   0.914206  0.041642  0.155285  -0.073682
    C   C4   0.019114  0.053632  0.094861  -0.123208
    C   C5   0.944136  0.990487  0.032676  0.001205
    C   C6   0.761600  0.915893  0.032162  -0.103122
    C   C7   0.253415  0.053487  0.969177  -0.205102
    C   C8   0.056478  0.003028  0.968121  0.147647
    C   C9   0.966861  0.964720  0.905361  -0.226435
    C   C10  0.358204  0.066025  0.908751  -0.072530
    C   C11  0.269059  0.026798  0.845952  -0.006832
    C   C12  0.072380  0.975629  0.844927  -0.061161
    C   C13  0.284878  0.021978  0.719067  -0.255749
    H   H1   0.125089  0.004485  0.716692  0.186112
    C   C14  0.389217  0.028998  0.658064  0.009249
    C   C15  0.596043  0.046412  0.658642  -0.113174
    C   C16  0.692406  0.067671  0.720742  -0.043026
    H   H2   0.853034  0.084701  0.721613  0.056242
    C   C17  0.587382  0.063605  0.781698  -0.217777
    H   H3   0.670330  0.075825  0.828825  0.144053
    C   C18  0.382159  0.037741  0.781345  0.133986
    C   C19  0.715580  0.980312  0.280634  -0.235889
    H   H4   0.875938  0.998988  0.281990  0.180480
    C   C20  0.610821  0.974472  0.341643  -0.024956
    C   C21  0.403840  0.956169  0.340857  -0.132552
    C   C22  0.308036  0.930339  0.278635  -0.029851
    H   H5   0.147230  0.912722  0.277676  0.064661
    C   C23  0.414653  0.930137  0.217677  -0.230955
    H   H6   0.335730  0.913346  0.169633  0.152807
    C   C24  0.618575  0.959265  0.218581  0.167082
    H   H7   0.513802  0.846767  0.091129  0.072004
    H   H8   0.974058  0.093800  0.203081  0.073633
    H   H9   0.158295  0.115473  0.097356  0.085153
    H   H10  0.700025  0.862652  0.984986  0.083858
    H   H11  0.329912  0.082435  0.016953  0.143620
    H   H12  0.812819  0.926851  0.902271  0.145178
    H   H13  0.510281  0.107950  0.911934  0.075029
    H   H14  0.997990  0.941650  0.797206  0.065870
    O   O1   0.787583  0.894962  0.573722  -0.727023
    O   O2   0.788725  0.150457  0.572593  -0.671098
    C   C25  0.720638  0.029386  0.596033  0.837994
    O   O3   0.207932  0.143858  0.574258  -0.649077
    O   O4   0.206376  0.887052  0.570529  -0.682797
    C   C26  0.272550  0.019068  0.595166  0.716300
    O   O5   0.212715  0.108557  0.425888  -0.685667
    O   O6   0.211480  0.852849  0.427036  -0.704773
    C   C27  0.278945  0.973871  0.403407  0.824038
    O   O7   0.792354  0.859705  0.425326  -0.689028
    O   O8   0.793896  0.116320  0.429056  -0.661674
    C   C28  0.727057  0.984481  0.404612  0.749670
    Zn  Zn1  0.005392  0.167307  0.500593  0.975725
    Zn  Zn2  0.994771  0.836133  0.499013  0.982926
    C   C29  0.194907  0.432398  0.526637  -0.027413
    H   H15  0.316455  0.413131  0.487021  0.059053
    H   H16  0.239925  0.385395  0.573976  0.038819
    C   C30  0.155332  0.598518  0.542682  -0.093149
    H   H17  0.107197  0.623833  0.597267  0.038370
    H   H18  0.294865  0.661290  0.533243  0.067237
    H   H19  0.087491  0.332828  0.394879  0.060799
    H   H20  0.193989  0.577909  0.416471  0.026655
    C   C31  0.984924  0.401076  0.431252  -0.068567
    C   C32  0.844591  0.428414  0.542347  0.306236
    N   N1   0.011211  0.361943  0.500331  0.141460
    H   H21  0.883904  0.433336  0.597352  0.013516
    N   N2   0.995338  0.641482  0.499005  0.342313
    C   C33  0.032839  0.565092  0.430672  -0.040280
    C   C34  0.807524  0.584851  0.524378  -0.226842
    H   H22  0.754269  0.657681  0.570705  0.086072
    H   H23  0.692741  0.581653  0.483692  0.081983
    H   H24  0.826169  0.380246  0.415970  0.040656
    H   H25  0.936123  0.613066  0.393083  0.045245
    F   F1   0.672868  0.343347  0.529998  -0.216482
