# Generated by REPEAT Assigner based on pymatgen
data_DB0-m9_o7_o7_f0_sra.sym.5
_audit_creation_date              2022-05-24
_audit_creation_method            REPEAT_Assigner
_cell_length_a                    6.818000
_cell_length_b                    22.866800
_cell_length_c                    27.208500
_cell_angle_alpha                 90.000000
_cell_angle_beta                  90.000000
_cell_angle_gamma                 90.000000
_cell_volume                      4241.964113
_symmetry_space_group_name_H-M    P1
_symmetry_Int_Tables_number       1
loop_
    _symmetry_equiv_pos_site_id
    _symmetry_equiv_pos_as_xyz
    1  x,y,z
loop_
    _atom_site_type_symbol
    _atom_site_label
    _atom_site_fract_x
    _atom_site_fract_y
    _atom_site_fract_z
    _atom_type_partial_charge
    O   O1    0.629113  0.797261  0.196512  -0.357216
    O   O2    0.370887  0.202740  0.803488  -0.357226
    O   O3    0.370887  0.202739  0.696512  -0.357197
    O   O4    0.629113  0.797261  0.303488  -0.357232
    O   O5    0.129113  0.702739  0.303488  -0.357246
    O   O6    0.870887  0.297261  0.696512  -0.357240
    O   O7    0.870887  0.297261  0.803488  -0.357242
    O   O8    0.129113  0.702739  0.196512  -0.357221
    O   O9    0.281473  0.813965  0.300075  -0.432092
    O   O10   0.718527  0.186035  0.699925  -0.432150
    O   O11   0.718528  0.186035  0.800075  -0.432033
    O   O12   0.281473  0.813965  0.199925  -0.432098
    O   O13   0.781473  0.686035  0.199925  -0.432149
    O   O14   0.218528  0.313965  0.800075  -0.432003
    O   O15   0.218527  0.313965  0.699925  -0.432204
    O   O16   0.781473  0.686035  0.300075  -0.432143
    C   C1    0.460371  0.820835  0.319524  0.350579
    C   C2    0.539629  0.179165  0.680476  0.350655
    C   C3    0.539629  0.179165  0.819524  0.350458
    C   C4    0.460371  0.820835  0.180476  0.350573
    C   C5    0.960371  0.679165  0.180476  0.350694
    C   C6    0.039629  0.320835  0.819524  0.350493
    C   C7    0.039629  0.320835  0.680476  0.350732
    C   C8    0.960371  0.679165  0.319524  0.350700
    O   O17   0.448655  0.715108  0.250000  -0.547215
    O   O18   0.551345  0.284892  0.750000  -0.547222
    O   O19   0.948655  0.784892  0.250000  -0.547211
    O   O20   0.051345  0.215108  0.750000  -0.547273
    V   V1    0.178320  0.759256  0.250000  1.377149
    V   V2    0.821680  0.240744  0.750000  1.377253
    V   V3    0.678320  0.740744  0.250000  1.377230
    V   V4    0.321680  0.259256  0.750000  1.377244
    C   C9    0.186797  0.428663  0.581459  -0.059389
    C   C10   0.813203  0.571337  0.418541  -0.059141
    C   C11   0.813203  0.571337  0.081459  -0.059305
    C   C12   0.186797  0.428663  0.918541  -0.059238
    C   C13   0.686797  0.071337  0.918541  -0.059190
    C   C14   0.313203  0.928663  0.081459  -0.059346
    C   C15   0.313203  0.928663  0.418541  -0.059233
    C   C16   0.686797  0.071337  0.581459  -0.059273
    C   C17   0.194763  0.389753  0.620789  -0.183331
    C   C18   0.805237  0.610247  0.379211  -0.183374
    C   C19   0.805237  0.610247  0.120789  -0.183308
    C   C20   0.194763  0.389753  0.879211  -0.183363
    C   C21   0.694763  0.110247  0.879211  -0.183378
    C   C22   0.305237  0.889753  0.120789  -0.183363
    C   C23   0.305237  0.889753  0.379211  -0.183420
    C   C24   0.694763  0.110247  0.620789  -0.183494
    H   H1    0.334691  0.380063  0.637598  0.169815
    H   H2    0.665309  0.619937  0.362402  0.169728
    H   H3    0.665309  0.619937  0.137598  0.169738
    H   H4    0.334691  0.380063  0.862402  0.169683
    H   H5    0.834691  0.119937  0.862402  0.169709
    H   H6    0.165309  0.880063  0.137598  0.169784
    H   H7    0.165309  0.880063  0.362402  0.169788
    H   H8    0.834691  0.119937  0.637598  0.169878
    C   C25   0.026716  0.363014  0.638660  0.105608
    C   C26   0.973284  0.636986  0.361340  0.105673
    C   C27   0.973284  0.636986  0.138660  0.105631
    C   C28   0.026716  0.363014  0.861340  0.105821
    C   C29   0.526716  0.136986  0.861340  0.105807
    C   C30   0.473284  0.863014  0.138660  0.105727
    C   C31   0.473284  0.863014  0.361340  0.105744
    C   C32   0.526716  0.136986  0.638661  0.105731
    C   C33   0.849647  0.376283  0.616170  0.053239
    C   C34   0.150353  0.623717  0.383830  0.053093
    C   C35   0.150353  0.623717  0.116170  0.053130
    C   C36   0.849647  0.376283  0.883830  0.052982
    C   C37   0.349647  0.123717  0.883830  0.053008
    C   C38   0.650353  0.876283  0.116170  0.053194
    C   C39   0.650353  0.876283  0.383830  0.053177
    C   C40   0.349647  0.123717  0.616170  0.053176
    C   C41   0.841626  0.415327  0.576788  -0.298461
    C   C42   0.158373  0.584673  0.423213  -0.298461
    C   C43   0.158373  0.584673  0.076787  -0.298498
    C   C44   0.841626  0.415327  0.923213  -0.298420
    C   C45   0.341627  0.084673  0.923213  -0.298428
    C   C46   0.658373  0.915327  0.076788  -0.298460
    C   C47   0.658373  0.915327  0.423212  -0.298437
    C   C48   0.341626  0.084673  0.576788  -0.298407
    H   H9    0.701838  0.424918  0.559868  0.191816
    H   H10   0.298162  0.575082  0.440132  0.191949
    H   H11   0.298162  0.575082  0.059868  0.191910
    H   H12   0.701838  0.424918  0.940132  0.191896
    H   H13   0.201838  0.075082  0.940132  0.191897
    H   H14   0.798162  0.924918  0.059868  0.191826
    H   H15   0.798162  0.924918  0.440132  0.191825
    H   H16   0.201838  0.075082  0.559868  0.191804
    C   C49   0.010141  0.441954  0.558912  0.331832
    C   C50   0.989860  0.558047  0.441088  0.331710
    C   C51   0.989860  0.558046  0.058912  0.331833
    C   C52   0.010141  0.441954  0.941088  0.331728
    C   C53   0.510141  0.058046  0.941088  0.331713
    C   C54   0.489860  0.941954  0.058912  0.331821
    C   C55   0.489859  0.941954  0.441088  0.331742
    C   C56   0.510141  0.058046  0.558912  0.331728
    C   C57   0.002682  0.482913  0.517334  -0.146939
    C   C58   0.997318  0.517087  0.482666  -0.146848
    C   C59   0.997318  0.517087  0.017334  -0.146908
    C   C60   0.002682  0.482913  0.982666  -0.146848
    C   C61   0.502682  0.017087  0.982666  -0.146822
    C   C62   0.497318  0.982913  0.017334  -0.146943
    C   C63   0.497318  0.982913  0.482666  -0.146891
    C   C64   0.502682  0.017087  0.517334  -0.146879
    Cl  Cl1   0.403235  0.461120  0.560112  -0.049534
    Cl  Cl2   0.596765  0.538880  0.439888  -0.049737
    Cl  Cl3   0.596765  0.538880  0.060112  -0.049642
    Cl  Cl4   0.403235  0.461120  0.939888  -0.049637
    Cl  Cl5   0.903235  0.038880  0.939888  -0.049675
    Cl  Cl6   0.096765  0.961120  0.060112  -0.049570
    Cl  Cl7   0.096765  0.961120  0.439888  -0.049617
    Cl  Cl8   0.903235  0.038880  0.560112  -0.049575
    Cl  Cl9   0.633455  0.343525  0.637360  -0.090986
    Cl  Cl10  0.366545  0.656475  0.362640  -0.090880
    Cl  Cl11  0.366545  0.656475  0.137360  -0.090906
    Cl  Cl12  0.633455  0.343525  0.862640  -0.090793
    Cl  Cl13  0.133455  0.156475  0.862640  -0.090838
    Cl  Cl14  0.866545  0.843525  0.137360  -0.090944
    Cl  Cl15  0.866545  0.843525  0.362640  -0.090927
    Cl  Cl16  0.133455  0.156475  0.637360  -0.090986
