# Generated by REPEAT Assigner based on pymatgen
data_DB0-m2_o22_o24_f0_nbo.sym.106_sqe
_audit_creation_date              2022-05-24
_audit_creation_method            REPEAT_Assigner
_cell_length_a                    18.369287
_cell_length_b                    18.481539
_cell_length_c                    18.535056
_cell_angle_alpha                 109.500654
_cell_angle_beta                  109.434091
_cell_angle_gamma                 109.229096
_cell_volume                      4858.836143
_symmetry_space_group_name_H-M    P1
_symmetry_Int_Tables_number       1
loop_
    _symmetry_equiv_pos_site_id
    _symmetry_equiv_pos_as_xyz
    1  x,y,z
loop_
    _atom_site_type_symbol
    _atom_site_label
    _atom_site_fract_x
    _atom_site_fract_y
    _atom_site_fract_z
    _atom_type_partial_charge
    O   O1   0.601159  0.537174  0.454965  -0.620489
    O   O2   0.598767  0.646300  0.558746  -0.630533
    C   C1   0.626957  0.620475  0.503935  0.567186
    O   O3   0.413764  0.446408  0.361270  -0.626941
    O   O4   0.411446  0.553071  0.467963  -0.640931
    C   C2   0.386289  0.502467  0.385540  0.622489
    Cu  Cu1  0.506114  0.439125  0.444211  0.980622
    Cu  Cu2  0.506403  0.565536  0.567565  0.994018
    O   O5   0.415739  0.358172  0.454891  -0.593257
    O   O6   0.418668  0.467648  0.564239  -0.594819
    O   O7   0.593668  0.444259  0.543857  -0.609357
    O   O8   0.596681  0.556268  0.650620  -0.607864
    C   C3   0.385158  0.384285  0.507375  0.646021
    C   C4   0.626638  0.502362  0.626477  0.574189
    C   C5   0.306438  0.579898  0.321048  -0.070138
    C   C6   0.207580  0.527163  0.288009  -0.075443
    H   H1   0.169003  0.551773  0.313776  0.059083
    H   H2   0.352936  0.648285  0.377223  0.046133
    C   C7   0.190344  0.495720  0.194499  0.061055
    C   C8   0.288206  0.548424  0.226676  -0.043761
    C   C9   0.297500  0.468510  0.222648  -0.158098
    C   C10  0.199417  0.416958  0.190698  0.131383
    C   C11  0.216946  0.447151  0.284332  -0.067729
    C   C12  0.314507  0.499971  0.315894  0.181519
    H   H3   0.317404  0.590869  0.202248  0.051311
    H   H4   0.335281  0.443285  0.196041  0.058706
    H   H5   0.188962  0.404671  0.309301  0.028868
    C   C13  0.733950  0.648073  0.449688  -0.142687
    H   H6   0.681425  0.603807  0.379353  0.035522
    H   H7   0.758670  0.609683  0.475396  0.038591
    C   C14  0.810569  0.720096  0.456758  -0.001781
    H   H8   0.873602  0.723815  0.496132  0.014160
    H   H9   0.800561  0.704386  0.389822  -0.014106
    H   H10  0.597382  0.685075  0.396006  0.030300
    H   H11  0.703457  0.772815  0.381296  0.016923
    C   C15  0.656676  0.734996  0.461903  -0.157585
    C   C16  0.771991  0.757696  0.596695  -0.075642
    C   C17  0.696938  0.689563  0.503046  0.307981
    H   H12  0.746259  0.785479  0.638613  0.031850
    H   H13  0.806162  0.726325  0.625059  0.001483
    C   C18  0.814752  0.807753  0.501305  0.294843
    C   C19  0.724589  0.798656  0.452345  -0.030001
    C   C20  0.837517  0.832463  0.595850  -0.063096
    H   H14  0.905263  0.844595  0.634600  0.022745
    H   H15  0.834272  0.893188  0.626920  0.002439
    H   H16  0.636465  0.771922  0.504525  0.038761
    H   H17  0.727864  0.863645  0.480238  0.022737
    C   C21  0.702881  0.419441  0.656571  -0.015305
    H   H18  0.729330  0.423131  0.611340  0.010764
    H   H19  0.636877  0.359060  0.619756  0.021768
    C   C22  0.765513  0.413927  0.729340  -0.179911
    H   H20  0.727119  0.358398  0.735929  0.038128
    H   H21  0.814704  0.402124  0.712692  0.041510
    H   H22  0.799616  0.588152  0.687069  0.046640
    H   H23  0.898459  0.565477  0.773882  0.008166
    C   C23  0.784197  0.582911  0.738708  -0.154746
    C   C24  0.670604  0.500893  0.766906  -0.020156
    C   C25  0.695386  0.501287  0.696556  0.227709
    H   H24  0.659322  0.556957  0.793586  0.021781
    H   H25  0.609142  0.438029  0.738098  -0.002525
    C   C26  0.812891  0.499798  0.815191  0.333331
    C   C27  0.855798  0.576412  0.801948  0.005298
    C   C28  0.745643  0.509680  0.842089  -0.113939
    H   H26  0.717308  0.457774  0.857600  0.038781
    H   H27  0.778493  0.575515  0.901132  0.018093
    H   H28  0.781806  0.642595  0.775211  0.032453
    H   H29  0.896521  0.639361  0.865731  -0.001708
    C   C29  0.285277  0.224460  0.438913  -0.268829
    H   H30  0.341416  0.210894  0.450946  0.065752
    H   H31  0.257947  0.218963  0.372991  0.056143
    C   C30  0.213285  0.156288  0.440396  0.157215
    H   H32  0.151352  0.121221  0.376382  0.058111
    H   H33  0.233037  0.107976  0.449430  -0.016414
    H   H34  0.411163  0.308297  0.607938  0.032637
    H   H35  0.308708  0.205158  0.605136  -0.022861
    C   C31  0.355390  0.322109  0.598948  -0.074525
    C   C32  0.236852  0.331056  0.493327  -0.227663
    C   C33  0.315991  0.315983  0.509671  0.192435
    H   H36  0.257650  0.397650  0.544179  0.044149
    H   H37  0.209489  0.326817  0.428021  0.076122
    C   C34  0.196886  0.200325  0.513876  -0.115804
    C   C35  0.285185  0.252668  0.601877  0.202665
    C   C36  0.164964  0.261072  0.493785  0.116652
    H   H38  0.105146  0.222826  0.427392  -0.014827
    H   H39  0.146601  0.291737  0.542058  -0.014047
    H   H40  0.383664  0.389965  0.652218  -0.011172
    O   O9   0.948749  0.535626  0.097119  -0.639754
    O   O10  0.059032  0.641444  0.097384  -0.615129
    C   C37  0.001402  0.618349  0.123605  0.640003
    O   O11  0.036994  0.445809  0.098798  -0.580332
    O   O12  0.146554  0.545827  0.092352  -0.601665
    C   C38  0.120668  0.495418  0.124553  0.638430
    Cu  Cu3  0.938164  0.435533  0.004795  0.999752
    Cu  Cu4  0.064767  0.558091  0.004301  0.971134
    O   O13  0.949347  0.352060  0.917192  -0.647560
    O   O14  0.058043  0.457941  0.915940  -0.583550
    O   O15  0.856494  0.447095  0.915883  -0.620107
    O   O16  0.965826  0.548621  0.911219  -0.628857
    C   C39  0.001237  0.375225  0.885117  0.633801
    C   C40  0.882137  0.498664  0.884694  0.533600
    O   O17  0.064470  0.915009  0.465695  -0.620137
    O   O18  0.956214  0.917007  0.360147  -0.651202
    C   C41  0.007933  0.884464  0.383054  0.723781
    O   O19  0.967921  0.903650  0.551240  -0.619451
    O   O20  0.859542  0.910650  0.450845  -0.629973
    C   C42  0.884386  0.877561  0.500815  0.514323
    Cu  Cu5  0.067733  0.999957  0.565506  0.973561
    Cu  Cu6  0.942518  0.002295  0.443214  1.000356
    O   O21  0.058609  0.089911  0.648810  -0.625103
    O   O22  0.950280  0.091904  0.543103  -0.631915
    O   O23  0.150587  0.091903  0.558116  -0.605308
    O   O24  0.042221  0.099032  0.457682  -0.616775
    C   C43  0.000243  0.115618  0.625411  0.655895
    C   C44  0.126072  0.128003  0.511372  0.676098
    C   C45  0.932124  0.651351  0.215696  -0.129809
    H   H41  0.948432  0.612744  0.246764  0.042038
    H   H42  0.865832  0.607799  0.155244  0.029506
    C   C46  0.929118  0.725649  0.279706  0.046771
    H   H43  0.865781  0.724275  0.246137  0.006096
    H   H44  0.932327  0.716154  0.336467  0.005661
    H   H45  0.110327  0.698330  0.295907  0.038698
    H   H46  0.093231  0.786850  0.398088  0.030604
    C   C47  0.093199  0.743186  0.275566  -0.165589
    C   C48  0.984308  0.750195  0.159790  -0.352145
    C   C49  0.002542  0.689963  0.193133  0.278719
    H   H47  0.030739  0.773262  0.136398  0.060230
    H   H48  0.915512  0.712709  0.103430  0.052179
    C   C50  0.006921  0.813891  0.312011  -0.202847
    C   C51  0.091656  0.809281  0.349317  0.057889
    C   C52  0.994229  0.828392  0.232896  0.549415
    H   H49  0.931687  0.830659  0.207317  -0.084575
    H   H50  0.144301  0.778775  0.262304  0.032733
    H   H51  0.151511  0.874839  0.382679  -0.012721
    C   C53  0.007205  0.235708  0.841021  0.105503
    H   H52  0.955448  0.210217  0.858026  0.038528
    H   H53  0.073661  0.266051  0.898607  0.002262
    C   C54  0.994559  0.158985  0.764362  -0.320267
    H   H54  0.047156  0.142645  0.789551  0.059641
    H   H55  0.928671  0.100544  0.734286  0.087652
    H   H56  0.858415  0.221253  0.734512  0.041032
    H   H57  0.858239  0.132260  0.616271  0.026369
    C   C55  0.915365  0.259104  0.729041  -0.174618
    C   C56  0.079119  0.344485  0.802804  -0.185470
    C   C57  0.000811  0.304317  0.815402  0.133442
    H   H58  0.070436  0.387259  0.774460  0.044057
    H   H59  0.142145  0.384106  0.866769  0.030334
    C   C58  0.999797  0.184753  0.695832  0.108512
    C   C59  0.920728  0.196731  0.655876  0.005088
    C   C60  0.084416  0.271384  0.740398  0.255406
    H   H60  0.141824  0.266220  0.778035  -0.015988
    H   H61  0.093210  0.286707  0.689916  -0.045006
    H   H62  0.905386  0.309213  0.713466  0.056605
    H   H63  0.928626  0.225238  0.613136  0.008195
    C   C61  0.281427  0.290538  0.687766  -0.136433
    C   C62  0.278944  0.375334  0.714987  0.014670
    C   C63  0.289879  0.418534  0.794623  -0.476953
    H   H64  0.342683  0.303545  0.741376  0.058506
    H   H65  0.224866  0.241785  0.685469  0.039399
    H   H66  0.270786  0.404306  0.673173  0.114076
    H   H67  0.299591  0.392194  0.839077  0.184785
    H   H68  0.289018  0.480316  0.815218  0.146602
    C   C64  0.139508  0.322769  0.114544  -0.052464
    C   C65  0.050088  0.284545  0.106550  -0.021188
    C   C66  0.987209  0.203107  0.041800  -0.443351
    H   H69  0.170039  0.282115  0.126063  0.048799
    H   H70  0.132688  0.322422  0.052787  0.030811
    H   H71  0.035750  0.322632  0.152992  0.092053
    H   H72  0.000874  0.164589  0.994897  0.164107
    H   H73  0.922101  0.175214  0.035754  0.152100
    C   C67  0.070122  0.914232  0.256221  -0.132585
    C   C68  0.043654  0.935341  0.183804  -0.100628
    C   C69  0.102116  0.004597  0.188133  -0.415022
    H   H74  0.130617  0.908793  0.266312  0.088691
    H   H75  0.086101  0.969346  0.317311  0.007507
    H   H76  0.977235  0.894086  0.126971  0.107561
    H   H77  0.169086  0.045755  0.244009  0.156969
    H   H78  0.082960  0.019642  0.135364  0.155412
