# Generated by REPEAT Assigner based on pymatgen
data_DB0-m3_o16_o29_f0_pcu.sym.29
_audit_creation_date              2022-05-24
_audit_creation_method            REPEAT_Assigner
_cell_length_a                    12.508598
_cell_length_b                    13.753945
_cell_length_c                    27.652115
_cell_angle_alpha                 89.980998
_cell_angle_beta                  102.132230
_cell_angle_gamma                 86.669970
_cell_volume                      4642.850057
_symmetry_space_group_name_H-M    P1
_symmetry_Int_Tables_number       1
loop_
    _symmetry_equiv_pos_site_id
    _symmetry_equiv_pos_as_xyz
    1  x,y,z
loop_
    _atom_site_type_symbol
    _atom_site_label
    _atom_site_fract_x
    _atom_site_fract_y
    _atom_site_fract_z
    _atom_type_partial_charge
    O   O1   0.375603  0.616570  0.490384  -0.692990
    O   O2   0.559051  0.647016  0.510579  -0.584040
    C   C1   0.455132  0.677402  0.498227  0.710162
    O   O3   0.410483  0.475438  0.566460  -0.685305
    O   O4   0.594946  0.505112  0.585635  -0.669896
    C   C2   0.501766  0.490277  0.598547  0.760813
    Zn  Zn1  0.384742  0.468897  0.491704  1.049223
    Zn  Zn2  0.626767  0.508985  0.516773  1.060179
    O   O5   0.452971  0.330943  0.499927  -0.629839
    O   O6   0.635297  0.361487  0.518408  -0.705907
    O   O7   0.417449  0.473166  0.423018  -0.641162
    O   O8   0.599089  0.505489  0.441909  -0.703188
    C   C3   0.556729  0.301049  0.510524  0.772048
    C   C4   0.509240  0.489478  0.409803  0.775648
    C   C5   0.520639  0.574848  0.829342  0.446108
    O   O9   0.541152  0.655734  0.806418  -0.499106
    N   N1   0.496207  0.493755  0.802975  -0.172656
    C   C6   0.472945  0.412781  0.825203  0.446457
    C   C7   0.592583  0.508182  0.735761  -0.206137
    C   C8   0.594066  0.507220  0.686074  -0.022493
    C   C9   0.403971  0.476228  0.667133  -0.016060
    C   C10  0.402796  0.477063  0.716917  -0.212696
    C   C11  0.497068  0.493116  0.751428  0.265401
    C   C12  0.499514  0.493773  0.903058  0.129556
    C   C13  0.522981  0.575667  0.879604  -0.124630
    C   C14  0.547497  0.658544  0.906353  -0.032639
    C   C15  0.473890  0.411998  0.875350  -0.132238
    C   C16  0.499737  0.491248  0.651415  -0.129907
    H   H1   0.329047  0.463752  0.640878  0.079311
    H   H2   0.327316  0.465877  0.728749  0.137677
    H   H3   0.563878  0.724675  0.888831  0.125120
    C   C17  0.510638  0.491789  0.356904  -0.150671
    C   C18  0.540354  0.573518  0.032500  0.045713
    C   C19  0.471091  0.412976  0.026536  0.049192
    C   C20  0.506967  0.493145  0.054573  0.019012
    C   C21  0.582472  0.649459  0.062667  -0.181033
    C   C22  0.586009  0.647618  0.112603  -0.033096
    C   C23  0.548248  0.570066  0.133992  -0.131204
    C   C24  0.509333  0.492997  0.105141  0.120757
    C   C25  0.472611  0.415844  0.127455  -0.120428
    C   C26  0.474639  0.416843  0.177678  0.429868
    N   N2   0.512751  0.493154  0.205231  -0.153271
    C   C27  0.549669  0.569229  0.184192  0.448676
    C   C28  0.414529  0.491691  0.272338  -0.226264
    C   C29  0.413625  0.490874  0.322076  0.052681
    C   C30  0.608470  0.495350  0.341347  -0.056990
    C   C31  0.609183  0.496263  0.291510  -0.189325
    C   C32  0.512248  0.493871  0.256811  0.248922
    O   O10  0.585273  0.645720  0.211967  -0.502068
    C   C33  0.531924  0.575820  0.981168  0.059007
    C   C34  0.501884  0.493593  0.953627  0.008650
    C   C35  0.474344  0.411143  0.976198  0.053658
    C   C36  0.551790  0.658929  0.956348  -0.193472
    H   H4   0.335906  0.489860  0.333184  0.058216
    H   H5   0.338019  0.491151  0.245507  0.135727
    H   H6   0.619213  0.708272  0.134402  0.125029
    H   H7   0.616985  0.711401  0.049477  0.133210
    H   H8   0.568191  0.727704  0.973920  0.141276
    O   O11  0.451352  0.331748  0.798653  -0.493420
    C   C37  0.451368  0.329037  0.898036  -0.027058
    H   H9   0.670154  0.518973  0.674956  0.091545
    H   H10  0.667127  0.519871  0.762471  0.137108
    H   H11  0.433290  0.263021  0.877539  0.122516
    C   C38  0.431757  0.336746  0.049701  -0.180838
    C   C39  0.432840  0.338313  0.099411  -0.039511
    O   O12  0.440409  0.340520  0.199412  -0.498989
    C   C40  0.451675  0.328311  0.947687  -0.190868
    H   H12  0.395827  0.274834  0.030488  0.133896
    H   H13  0.685422  0.496221  0.367806  0.111399
    H   H14  0.401345  0.277558  0.115639  0.124066
    H   H15  0.686278  0.497429  0.279778  0.129188
    H   H16  0.436667  0.259428  0.962515  0.140333
    C   C41  0.728893  0.069086  0.519405  -0.410855
    H   H17  0.758791  0.218862  0.528496  0.077002
    H   H18  0.758248  0.886179  0.489914  0.154069
    C   C42  0.587778  0.196104  0.512487  -0.159302
    C   C43  0.316421  0.809462  0.497816  0.018920
    C   C44  0.282728  0.904938  0.501759  -0.235440
    C   C45  0.355269  0.976839  0.505165  -0.128390
    C   C46  0.463634  0.955078  0.501968  0.065972
    C   C47  0.497028  0.857773  0.495959  0.197218
    C   C48  0.539902  0.027924  0.505761  -0.080082
    C   C49  0.649662  0.000680  0.508363  0.360628
    C   C50  0.677792  0.906880  0.496148  -0.296600
    C   C51  0.601741  0.837917  0.487981  -0.188789
    C   C52  0.509733  0.127402  0.506419  -0.052434
    C   C53  0.696972  0.166180  0.520713  0.040708
    C   C54  0.423922  0.783501  0.496194  -0.217606
    H   H19  0.425760  0.154607  0.500258  0.106237
    H   H20  0.257147  0.755418  0.497788  0.082982
    H   H21  0.322996  0.048719  0.511404  0.130391
    H   H22  0.198919  0.923285  0.504045  0.153505
    H   H23  0.627829  0.769438  0.474287  0.137433
    C   C55  0.072290  0.370074  0.426285  -0.275504
    H   H24  0.870344  0.333556  0.417092  0.132145
    H   H25  0.038928  0.322752  0.396403  0.153290
    N   N3   0.224850  0.442191  0.474792  -0.091907
    C   C56  0.817202  0.599784  0.568091  0.119446
    C   C57  0.924534  0.624152  0.580739  -0.165455
    C   C58  0.001638  0.582549  0.556921  -0.053725
    C   C59  0.971174  0.514940  0.520049  0.017083
    C   C60  0.861370  0.491128  0.508989  0.221045
    C   C61  0.045739  0.471122  0.493291  -0.089600
    C   C62  0.005834  0.409467  0.455319  0.373114
    C   C63  0.899496  0.384594  0.445902  -0.284424
    C   C64  0.829217  0.422813  0.473237  -0.099182
    C   C65  0.158487  0.485855  0.502518  -0.028020
    C   C66  0.181343  0.386277  0.435833  -0.050880
    N   N4   0.786192  0.534058  0.532673  -0.226608
    H   H26  0.196249  0.531226  0.532147  0.180073
    H   H27  0.757478  0.634257  0.586684  0.120170
    H   H28  0.083658  0.606077  0.567846  0.112541
    H   H29  0.948260  0.677245  0.609210  0.133682
    H   H30  0.748692  0.397653  0.465056  0.196386
    C   C67  0.847326  0.042229  0.532923  0.840042
    O   O13  0.880835  0.966117  0.555116  -0.557099
    O   O14  0.919366  0.107528  0.526206  -0.488702
    C   C68  0.029545  0.089605  0.544068  0.435164
    C   C69  0.090271  0.174222  0.530637  -0.201609
    H   H31  0.058007  0.022312  0.527434  -0.075047
    H   H32  0.046242  0.081206  0.584917  -0.027401
    H   H33  0.076274  0.181231  0.489810  0.065734
    H   H34  0.179151  0.161083  0.546203  0.032217
    H   H35  0.059837  0.242273  0.546059  0.063680
    C   C70  0.244208  0.338965  0.402075  0.761301
    O   O15  0.330580  0.293285  0.417983  -0.482871
    O   O16  0.197171  0.333412  0.353648  -0.504671
    C   C71  0.243886  0.275309  0.322449  0.593615
    C   C72  0.174884  0.285556  0.270516  -0.327946
    H   H36  0.247811  0.198163  0.334757  -0.087057
    H   H37  0.327618  0.297559  0.322377  -0.065420
    H   H38  0.091049  0.263129  0.270302  0.065675
    H   H39  0.212356  0.238534  0.245225  0.081446
    H   H40  0.170739  0.362552  0.257991  0.081758
