# Generated by REPEAT Assigner based on pymatgen
data_DB0-m3_o45_o22_f0_fsc.sym.32
_audit_creation_date              2022-05-24
_audit_creation_method            REPEAT_Assigner
_cell_length_a                    8.567776
_cell_length_b                    9.172553
_cell_length_c                    12.774245
_cell_angle_alpha                 90.000000
_cell_angle_beta                  93.609259
_cell_angle_gamma                 90.000000
_cell_volume                      1001.916119
_symmetry_space_group_name_H-M    P1
_symmetry_Int_Tables_number       1
loop_
    _symmetry_equiv_pos_site_id
    _symmetry_equiv_pos_as_xyz
    1  x,y,z
loop_
    _atom_site_type_symbol
    _atom_site_label
    _atom_site_fract_x
    _atom_site_fract_y
    _atom_site_fract_z
    _atom_type_partial_charge
    C   C1   0.740954  0.001246  0.285547  0.090199
    C   C2   0.724979  0.978440  0.178894  -0.444057
    H   H1   0.609795  0.967628  0.140036  0.137891
    C   C3   0.856012  0.977368  0.120773  0.569773
    C   C4   0.004743  0.980763  0.171793  -0.322204
    H   H2   0.110102  0.969121  0.130210  0.106674
    C   C5   0.018994  0.001440  0.279031  0.013213
    C   C6   0.887298  0.022996  0.332765  -0.245084
    N   N1   0.834389  0.974306  0.010188  -0.257465
    N   N2   0.957022  0.000798  0.966636  -0.230861
    C   C7   0.065845  0.002076  0.797807  -0.293541
    H   H3   0.181273  0.009289  0.836783  0.111004
    C   C8   0.048947  0.988167  0.690462  0.178592
    C   C9   0.902611  0.972528  0.642307  -0.426014
    C   C10  0.771394  0.988730  0.696963  0.136219
    C   C11  0.786421  0.999879  0.804975  -0.092510
    H   H4   0.681550  0.007797  0.847131  0.033554
    C   C12  0.935142  0.000310  0.856019  0.384370
    H   H5   0.899993  0.050777  0.414158  0.144391
    H   H6   0.889698  0.951459  0.559925  0.140824
    O   O1   0.557118  0.124368  0.386583  -0.739362
    O   O2   0.555999  0.869772  0.380999  -0.734616
    C   C13  0.607179  0.998518  0.351279  0.882083
    O   O3   0.566352  0.869187  0.597317  -0.648984
    O   O4   0.566411  0.119268  0.603335  -0.775980
    C   C14  0.621141  0.992429  0.635659  0.814655
    O   O5   0.232400  0.866643  0.589644  -0.785468
    O   O6   0.232410  0.118952  0.594378  -0.766644
    C   C15  0.182246  0.991316  0.625012  0.961073
    O   O7   0.223251  0.120797  0.379387  -0.737044
    O   O8   0.222356  0.870599  0.373885  -0.713874
    C   C16  0.169043  0.997583  0.340580  0.854692
    Zn  Zn1  0.394559  0.829351  0.485226  0.953146
    Zn  Zn2  0.395086  0.160727  0.491094  1.014247
    C   C17  0.549879  0.575464  0.482143  -0.211958
    C   C18  0.550318  0.413596  0.506996  0.233987
    H   H7   0.637012  0.632910  0.534237  0.062100
    H   H8   0.602565  0.395990  0.586876  -0.090618
    H   H9   0.589345  0.588178  0.401671  0.042163
    H   H10  0.627645  0.360156  0.452553  0.008919
    C   C19  0.315461  0.581528  0.577090  -0.249813
    C   C20  0.299239  0.417422  0.574972  -0.202060
    C   C21  0.306287  0.576111  0.395065  -0.104494
    C   C22  0.324796  0.410401  0.393683  -0.033394
    N   N3   0.393152  0.636963  0.485938  0.406742
    N   N4   0.392326  0.353360  0.494168  0.213572
    H   H11  0.180208  0.601900  0.397764  0.045314
    H   H12  0.205074  0.368620  0.376443  0.067609
    H   H13  0.348273  0.622866  0.321829  0.077909
    H   H14  0.399395  0.378508  0.329618  0.020913
    H   H15  0.192549  0.619157  0.573073  0.138522
    H   H16  0.174403  0.395770  0.552176  0.112100
    C   C23  0.390075  0.633397  0.679359  0.652975
    O   O9   0.308116  0.686843  0.743951  -0.546520
    O   O10  0.544249  0.617737  0.702965  -0.142723
    C   C24  0.608537  0.670000  0.796257  0.063485
    C   C25  0.784118  0.647180  0.801655  -0.527144
    H   H17  0.555899  0.613789  0.862103  0.069478
    H   H18  0.582056  0.787353  0.801784  0.005851
    H   H19  0.835296  0.682797  0.879375  0.183441
    H   H20  0.835987  0.711417  0.739178  0.140223
    H   H21  0.811056  0.530622  0.789264  0.142592
    C   C26  0.326224  0.357195  0.684678  0.684639
    O   O11  0.211741  0.323240  0.731354  -0.565693
    O   O12  0.468468  0.348433  0.735810  -0.146641
    C   C27  0.481227  0.291946  0.835653  0.032648
    C   C28  0.649132  0.299806  0.880403  -0.153823
    H   H22  0.442831  0.176470  0.833200  0.061919
    H   H23  0.406505  0.354731  0.887345  0.034098
    H   H24  0.729705  0.278730  0.817623  0.036554
    H   H25  0.667339  0.218551  0.944205  0.078823
    H   H26  0.673704  0.408361  0.915096  0.045414
