# Generated by REPEAT Assigner based on pymatgen
data_DB0-m9_o27_o28_f0_sra.sym.42_sqe
_audit_creation_date              2022-05-24
_audit_creation_method            REPEAT_Assigner
_cell_length_a                    6.325843
_cell_length_b                    27.002927
_cell_length_c                    31.566296
_cell_angle_alpha                 101.550297
_cell_angle_beta                  89.575290
_cell_angle_gamma                 90.496682
_cell_volume                      5282.557194
_symmetry_space_group_name_H-M    P1
_symmetry_Int_Tables_number       1
loop_
    _symmetry_equiv_pos_site_id
    _symmetry_equiv_pos_as_xyz
    1  x,y,z
loop_
    _atom_site_type_symbol
    _atom_site_label
    _atom_site_fract_x
    _atom_site_fract_y
    _atom_site_fract_z
    _atom_type_partial_charge
    O  O1   0.528515  0.442089  0.467810  -0.461414
    O  O2   0.728216  0.441810  0.517697  -0.459914
    O  O3   0.945644  0.525454  0.559802  -0.607192
    C  C1   0.611284  0.454324  0.553361  0.705828
    O  O4   0.822528  0.469389  0.437979  -0.626409
    O  O5   0.032885  0.553159  0.480154  -0.380131
    C  C2   0.647174  0.443551  0.433935  0.625716
    O  O6   0.444500  0.483766  0.555144  -0.582473
    O  O7   0.635777  0.538661  0.504296  -0.553506
    V  V1   0.908538  0.493591  0.498603  1.421713
    O  O8   0.323952  0.520015  0.443502  -0.558975
    C  C3   0.149523  0.545375  0.445158  0.571079
    O  O9   0.232899  0.562236  0.531116  -0.464048
    C  C4   0.102097  0.558422  0.563682  0.592833
    V  V2   0.408646  0.505970  0.499974  1.447354
    O  O10  0.132978  0.460969  0.495790  -0.603515
    C  C5   0.923074  0.606899  0.629208  -0.036576
    C  C6   0.930819  0.643566  0.666370  0.155559
    H  H1   0.796668  0.648809  0.688180  0.031356
    C  C7   0.103509  0.675125  0.675006  -0.564018
    C  C8   0.272190  0.669741  0.646612  0.277190
    H  H2   0.407767  0.694661  0.653265  -0.002395
    C  C9   0.268858  0.631979  0.609966  -0.206458
    H  H3   0.403306  0.626980  0.588230  0.113270
    C  C10  0.095882  0.600072  0.601273  0.001245
    N  N1   0.259391  0.749137  0.721268  -0.350223
    N  N2   0.253891  0.785513  0.756205  -0.286764
    C  C11  0.091177  0.788085  0.784249  0.840292
    N  N3   0.934095  0.753677  0.776800  -0.333664
    N  N4   0.939179  0.717451  0.741807  -0.297513
    C  C12  0.101791  0.714822  0.713775  0.891797
    C  C13  0.925522  0.829115  0.852921  0.175386
    H  H4   0.805002  0.799936  0.848136  0.011870
    C  C14  0.921389  0.866913  0.889508  -0.200964
    H  H5   0.797975  0.867356  0.913449  0.120201
    C  C15  0.075477  0.904041  0.895484  0.042969
    C  C16  0.233263  0.903356  0.865012  -0.086524
    H  H6   0.354351  0.932401  0.869857  0.094598
    C  C17  0.238547  0.865370  0.828710  0.109671
    H  H7   0.363151  0.864698  0.804985  0.014477
    C  C18  0.084787  0.828247  0.822664  -0.449088
    C  C19  0.142694  0.651756  0.280381  0.415706
    N  N5   0.059744  0.667272  0.320256  -0.108315
    C  C20  0.965090  0.712706  0.331231  0.288566
    C  C21  0.948959  0.743968  0.301422  -0.033375
    C  C22  0.043077  0.729169  0.261348  0.025240
    C  C23  0.138546  0.682781  0.250753  -0.028534
    C  C24  0.848536  0.790575  0.311306  -0.011708
    C  C25  0.854412  0.822230  0.281932  -0.100229
    C  C26  0.951489  0.807247  0.242307  -0.114097
    C  C27  0.043858  0.760647  0.231973  0.080707
    C  C28  0.139141  0.745953  0.192224  -0.094827
    C  C29  0.231799  0.699077  0.181311  -0.062148
    C  C30  0.231138  0.667429  0.210606  -0.117352
    C  C31  0.954976  0.838727  0.212855  0.438766
    N  N6   0.049365  0.823967  0.173924  -0.124247
    C  C32  0.140942  0.778164  0.163371  0.410419
    O  O11  0.229334  0.605741  0.269181  -0.507195
    O  O12  0.899408  0.728766  0.372103  -0.339634
    H  H8   0.777625  0.858557  0.289692  0.153850
    O  O13  0.868498  0.884800  0.223654  -0.506160
    O  O14  0.230130  0.763145  0.124225  -0.486626
    H  H9   0.305961  0.687287  0.149990  0.121412
    H  H10  0.305325  0.630822  0.202298  0.135543
    C  C33  0.216593  0.855426  0.114619  -0.171499
    H  H11  0.348087  0.830395  0.115388  0.170621
    C  C34  0.220962  0.887516  0.085571  0.015805
    C  C35  0.055089  0.920660  0.084866  -0.136545
    C  C36  0.891027  0.921919  0.114096  0.023794
    H  H12  0.760841  0.947446  0.113548  0.089630
    C  C37  0.889221  0.890486  0.143486  -0.177222
    H  H13  0.756107  0.891326  0.165212  0.145536
    C  C38  0.051608  0.856856  0.143720  0.217094
    C  C39  0.930391  0.638404  0.384307  -0.258692
    H  H14  0.794380  0.662576  0.385685  0.199635
    C  C40  0.951762  0.608701  0.414916  -0.027006
    H  H15  0.834954  0.610466  0.440334  0.081937
    C  C41  0.121771  0.576692  0.412945  -0.070294
    C  C42  0.269884  0.574430  0.380427  -0.036714
    H  H16  0.404396  0.549747  0.379152  0.086311
    C  C43  0.249168  0.604070  0.349927  -0.192920
    H  H17  0.371136  0.603059  0.325691  0.154228
    C  C44  0.079057  0.636138  0.351623  0.252916
    C  C45  0.513942  0.220393  0.834759  0.402637
    N  N7   0.572967  0.171652  0.822596  -0.129014
    C  C46  0.638763  0.153438  0.781684  0.395720
    C  C47  0.648111  0.184470  0.751921  -0.069507
    C  C48  0.589369  0.234126  0.764012  0.067921
    C  C49  0.521408  0.252230  0.805599  -0.079621
    C  C50  0.715670  0.165941  0.710124  -0.083852
    C  C51  0.724998  0.197455  0.680666  -0.083723
    C  C52  0.666716  0.247415  0.693088  -0.083881
    C  C53  0.598680  0.265514  0.734670  0.072663
    C  C54  0.539986  0.315174  0.746762  -0.079971
    C  C55  0.472521  0.333707  0.788566  -0.079051
    C  C56  0.463217  0.302196  0.818026  -0.085101
    C  C57  0.674256  0.279255  0.663931  0.405485
    N  N8   0.615246  0.327999  0.676090  -0.137743
    C  C58  0.549384  0.346209  0.717000  0.410283
    O  O15  0.453578  0.238624  0.875740  -0.469563
    O  O16  0.691183  0.104570  0.769386  -0.473743
    H  H18  0.761598  0.126816  0.700471  0.129373
    H  H19  0.777964  0.183005  0.647920  0.124874
    O  O17  0.734717  0.261025  0.622957  -0.471114
    O  O18  0.496993  0.395078  0.729300  -0.479876
    H  H20  0.426676  0.372838  0.798224  0.129131
    H  H21  0.410352  0.316652  0.850778  0.124873
    C  C59  0.474316  0.399040  0.648903  -0.216182
    H  H22  0.356323  0.404666  0.674258  0.152622
    C  C60  0.473968  0.429692  0.618876  -0.039982
    H  H23  0.359053  0.459560  0.621464  0.092293
    C  C61  0.617673  0.422004  0.585238  -0.086543
    C  C62  0.762545  0.383513  0.581642  -0.083658
    H  H24  0.875703  0.377450  0.555315  0.103784
    C  C63  0.762501  0.352570  0.611587  -0.163785
    H  H25  0.878813  0.323051  0.608817  0.147755
    C  C64  0.618267  0.360258  0.645369  0.248222
    C  C65  0.714225  0.100644  0.849773  -0.227749
    H  H26  0.832175  0.095038  0.824411  0.154359
    C  C66  0.714724  0.069985  0.879793  -0.007743
    H  H27  0.829710  0.040131  0.877191  0.083251
    C  C67  0.571090  0.077653  0.913444  -0.062722
    C  C68  0.426164  0.116134  0.917065  -0.087540
    H  H28  0.313096  0.122189  0.943408  0.108460
    C  C69  0.426031  0.147077  0.887121  -0.173659
    H  H29  0.309662  0.176586  0.889904  0.148539
    C  C70  0.570160  0.139402  0.853321  0.248301
    C  C71  0.448739  0.391735  0.373702  -0.223733
    H  H30  0.307916  0.413228  0.384257  0.127954
    C  C72  0.446137  0.355128  0.336309  0.320699
    H  H31  0.302092  0.347764  0.317806  -0.029643
    C  C73  0.625525  0.327482  0.322555  -0.591501
    C  C74  0.811013  0.337677  0.345971  0.318032
    C  C75  0.814082  0.375517  0.382406  -0.222929
    H  H32  0.959507  0.384274  0.400204  0.194694
    C  C76  0.633990  0.402294  0.396436  0.065903
    N  N9   0.761243  0.251639  0.275170  -0.208657
    N  N10  0.744965  0.214981  0.240632  -0.339749
    C  C77  0.576638  0.212774  0.214556  0.756577
    N  N11  0.426534  0.248314  0.223486  -0.200516
    N  N12  0.442807  0.284972  0.258026  -0.343790
    C  C78  0.611150  0.287180  0.284099  0.760329
    C  C79  0.376959  0.162210  0.152670  0.312034
    C  C80  0.374067  0.124319  0.116264  -0.177480
    H  H33  0.228722  0.115523  0.098445  0.179503
    C  C81  0.554275  0.097560  0.102284  -0.012784
    C  C82  0.739425  0.108181  0.125039  -0.157451
    H  H34  0.880337  0.086706  0.114522  0.096685
    C  C83  0.741836  0.144824  0.162406  0.292571
    H  H35  0.885800  0.152224  0.180932  -0.025563
    C  C84  0.562361  0.172458  0.176108  -0.587791
    O  O19  0.744715  0.016025  0.943588  -0.545406
    O  O20  0.366485  0.030279  0.060733  -0.573983
    O  O21  0.156583  0.946561  0.018675  -0.157816
    C  C85  0.541478  0.056283  0.064796  0.593327
    O  O22  0.461468  0.057854  0.981031  -0.452608
    O  O23  0.244457  0.973859  0.938909  -0.605320
    C  C86  0.577722  0.045336  0.945318  0.621961
    O  O24  0.661011  0.057665  0.031004  -0.413042
    O  O25  0.554084  0.961053  0.994473  -0.509049
    V  V3   0.281154  0.006043  0.000074  1.394850
    O  O26  0.957185  0.937696  0.967682  -0.572908
    C  C87  0.077394  0.943702  0.934277  0.617966
    O  O27  0.866368  0.979862  0.055244  -0.506204
    C  C88  0.039614  0.954025  0.053665  0.448160
    V  V4   0.780995  0.993821  0.998783  1.394600
    O  O28  0.056788  0.038731  0.002785  -0.616117
    C  C89  0.725296  0.578138  0.620074  0.531776
    O  O29  0.673651  0.560190  0.583052  -0.344059
    O  O30  0.584177  0.576322  0.653742  -0.560138
    H  H36  0.451954  0.557090  0.642145  0.396694
    C  C90  0.405842  0.886009  0.057244  0.537544
    O  O31  0.433246  0.918244  0.035770  -0.429329
    O  O32  0.556856  0.848698  0.056482  -0.553087
    H  H37  0.676070  0.853320  0.036038  0.412203
    C  C91  0.007936  0.310382  0.333097  0.282775
    O  O33  0.036102  0.288011  0.296015  -0.220597
    O  O34  0.168179  0.311949  0.363309  -0.523603
    H  H38  0.291437  0.290537  0.349987  0.403745
    C  C92  0.179956  0.189492  0.165490  0.275803
    O  O35  0.151767  0.211968  0.202539  -0.221916
    O  O36  0.019672  0.187799  0.135269  -0.518217
    H  H39  0.896427  0.209251  0.148541  0.406377
    C  C93  0.727271  0.807339  0.351307  0.567724
    O  O37  0.655675  0.776932  0.371469  -0.444500
    O  O38  0.675361  0.858136  0.363902  -0.556349
    H  H40  0.585016  0.863444  0.391004  0.405112
