data_DB0-m29_o96_o420_f0_pts.sym.81_repeat
_audit_creation_date              2024-02-24
_audit_creation_method            'Materials Studio'
_symmetry_space_group_name_H-M    'P1'
_symmetry_Int_Tables_number       1
_symmetry_cell_setting            triclinic
loop_
_symmetry_equiv_pos_as_xyz
  x,y,z
_cell_length_a                    17.0494
_cell_length_b                    11.8832
_cell_length_c                    19.5102
_cell_angle_alpha                 91.0925
_cell_angle_beta                  90.7001
_cell_angle_gamma                 68.5861
loop_
_atom_site_label
_atom_site_type_symbol
_atom_site_fract_x
_atom_site_fract_y
_atom_site_fract_z
_atom_site_U_iso_or_equiv
_atom_site_adp_type
_atom_site_occupancy
C1     C     0.78185   0.97982   0.89965   0.00000  Uiso   1.00
C2     C     0.84126   0.93160   0.85076   0.00000  Uiso   1.00
C3     C     0.91685   0.92989   0.87749   0.00000  Uiso   1.00
N1     N     0.90605   0.97186   0.94285   0.00000  Uiso   1.00
C4     C     0.82328   0.00133   0.95681   0.00000  Uiso   1.00
C5     C     0.98809   0.90116   0.84182   0.00000  Uiso   1.00
C6     C     0.06336   0.92301   0.86608   0.00000  Uiso   1.00
C7     C     0.11831   0.94938   0.82378   0.00000  Uiso   1.00
C8     C     0.17972   0.96366   0.86390   0.00000  Uiso   1.00
C9     C     0.16107   0.94634   0.93080   0.00000  Uiso   1.00
N2     N     0.09008   0.92033   0.93165   0.00000  Uiso   1.00
C10    C     0.21024   0.95667   0.99142   0.00000  Uiso   1.00
C11    C     0.17499   0.99678   0.05222   0.00000  Uiso   1.00
C12    C     0.21574   0.02230   0.10860   0.00000  Uiso   1.00
C13    C     0.15601   0.07280   0.15693   0.00000  Uiso   1.00
C14    C     0.08085   0.07167   0.13072   0.00000  Uiso   1.00
N3     N     0.09226   0.02598   0.06612   0.00000  Uiso   1.00
C15    C     0.00955   0.10073   0.16627   0.00000  Uiso   1.00
C16    C     0.93557   0.07483   0.14260   0.00000  Uiso   1.00
C17    C     0.88218   0.04577   0.18523   0.00000  Uiso   1.00
C18    C     0.82131   0.02921   0.14578   0.00000  Uiso   1.00
C19    C     0.83861   0.04778   0.07863   0.00000  Uiso   1.00
N4     N     0.90838   0.07680   0.07724   0.00000  Uiso   1.00
C20    C     0.78872   0.03841   0.01821   0.00000  Uiso   1.00
H1     H     0.98776   0.87394   0.78871   0.00000  Uiso   1.00
H2     H     0.27581   0.94366   0.98410   0.00000  Uiso   1.00
H3     H     0.00928   0.13056   0.21896   0.00000  Uiso   1.00
H4     H     0.72320   0.05123   0.02577   0.00000  Uiso   1.00
H5     H     0.06344   0.89625   0.97402   0.00000  Uiso   1.00
H6     H     0.93367   0.10295   0.03479   0.00000  Uiso   1.00
C21    C     0.88496   0.03122   0.25470   0.00000  Uiso   1.00
C22    C     0.82331   0.99961   0.28529   0.00000  Uiso   1.00
C23    C     0.75829   0.98402   0.24516   0.00000  Uiso   1.00
C24    C     0.75824   0.99841   0.17422   0.00000  Uiso   1.00
C25    C     0.69754   0.00440   0.88638   0.00000  Uiso   1.00
C26    C     0.67584   0.97401   0.82174   0.00000  Uiso   1.00
C27    C     0.73801   0.91778   0.77348   0.00000  Uiso   1.00
C28    C     0.82140   0.89792   0.78722   0.00000  Uiso   1.00
C29    C     0.11626   0.96472   0.75421   0.00000  Uiso   1.00
C30    C     0.17989   0.99365   0.72534   0.00000  Uiso   1.00
C31    C     0.24421   0.00695   0.76567   0.00000  Uiso   1.00
C32    C     0.24414   0.99259   0.83636   0.00000  Uiso   1.00
C33    C     0.29978   0.99980   0.12154   0.00000  Uiso   1.00
C34    C     0.32107   0.03454   0.18519   0.00000  Uiso   1.00
C35    C     0.25864   0.09308   0.23286   0.00000  Uiso   1.00
C36    C     0.17539   0.11086   0.21952   0.00000  Uiso   1.00
H7     H     0.93371   0.04463   0.28587   0.00000  Uiso   1.00
H8     H     0.70988   0.98613   0.14204   0.00000  Uiso   1.00
H9     H     0.64960   0.04845   0.92395   0.00000  Uiso   1.00
H10    H     0.72158   0.89486   0.72285   0.00000  Uiso   1.00
H11    H     0.86823   0.85843   0.74818   0.00000  Uiso   1.00
H12    H     0.06677   0.95512   0.72233   0.00000  Uiso   1.00
H13    H     0.29310   0.00304   0.86857   0.00000  Uiso   1.00
H14    H     0.34800   0.95372   0.08457   0.00000  Uiso   1.00
H15    H     0.27492   0.11915   0.28281   0.00000  Uiso   1.00
H16    H     0.12827   0.15214   0.25811   0.00000  Uiso   1.00
H17    H     0.17895   0.00462   0.67047   0.00000  Uiso   1.00
O1     O     0.47571   0.94230   0.60760   0.00000  Uiso   1.00
O2     O     0.50378   0.78004   0.67674   0.00000  Uiso   1.00
C37    C     0.49547   0.82562   0.61515   0.00000  Uiso   1.00
O3     O     0.37929   0.03306   0.76557   0.00000  Uiso   1.00
O4     O     0.31181   0.03829   0.66451   0.00000  Uiso   1.00
C38    C     0.31298   0.03037   0.73150   0.00000  Uiso   1.00
O5     O     0.57716   0.12254   0.65041   0.00000  Uiso   1.00
O6     O     0.57202   0.94704   0.74861   0.00000  Uiso   1.00
C39    C     0.58797   0.00783   0.80016   0.00000  Uiso   1.00
O7     O     0.43662   0.19937   0.66492   0.00000  Uiso   1.00
C40    C     0.50450   0.20928   0.63860   0.00000  Uiso   1.00
O8     O     0.53094   0.11029   0.82116   0.00000  Uiso   1.00
Fe1    Fe    0.46673   0.03174   0.69721   0.00000  Uiso   1.00
O9     O     0.55673   0.80669   0.33924   0.00000  Uiso   1.00
C41    C     0.48888   0.80014   0.36780   0.00000  Uiso   1.00
O10    O     0.46503   0.89621   0.18740   0.00000  Uiso   1.00
O11    O     0.41720   0.89053   0.35898   0.00000  Uiso   1.00
O12    O     0.42593   0.06342   0.25670   0.00000  Uiso   1.00
C42    C     0.40897   0.00082   0.20656   0.00000  Uiso   1.00
Fe2    Fe    0.53013   0.97435   0.30835   0.00000  Uiso   1.00
O13    O     0.61901   0.97105   0.24100   0.00000  Uiso   1.00
O14    O     0.68955   0.93129   0.34116   0.00000  Uiso   1.00
C43    C     0.68791   0.95796   0.27619   0.00000  Uiso   1.00
O15    O     0.52203   0.06133   0.39863   0.00000  Uiso   1.00
O16    O     0.52259   0.21346   0.32998   0.00000  Uiso   1.00
C44    C     0.51939   0.17221   0.39139   0.00000  Uiso   1.00
C45    C     0.49898   0.73507   0.43227   0.00000  Uiso   1.00
C46    C     0.49711   0.62000   0.43642   0.00000  Uiso   1.00
H18    H     0.48899   0.57862   0.38873   0.00000  Uiso   1.00
C47    C     0.50255   0.56444   0.50019   0.00000  Uiso   1.00
C48    C     0.50701   0.63143   0.55871   0.00000  Uiso   1.00
H19    H     0.51280   0.59519   0.60926   0.00000  Uiso   1.00
C49    C     0.50211   0.74958   0.55398   0.00000  Uiso   1.00
C50    C     0.49971   0.79963   0.49087   0.00000  Uiso   1.00
C51    C     0.49373   0.38985   0.56951   0.00000  Uiso   1.00
H20    H     0.48629   0.43904   0.61728   0.00000  Uiso   1.00
C52    C     0.49683   0.27222   0.57361   0.00000  Uiso   1.00
C53    C     0.50454   0.20345   0.51526   0.00000  Uiso   1.00
C54    C     0.51099   0.24914   0.45245   0.00000  Uiso   1.00
C55    C     0.51169   0.36458   0.44793   0.00000  Uiso   1.00
H21    H     0.52219   0.39292   0.39810   0.00000  Uiso   1.00
C56    C     0.50196   0.43861   0.50610   0.00000  Uiso   1.00
H22    H     0.49676   0.89148   0.48625   0.00000  Uiso   1.00
H23    H     0.50763   0.11157   0.52011   0.00000  Uiso   1.00
N5     N     0.82526   0.99418   0.35769   0.00000  Uiso   1.00
C57    C     0.86485   0.87815   0.38653   0.00000  Uiso   1.00
C58    C     0.84351   0.85865   0.45222   0.00000  Uiso   1.00
C59    C     0.88103   0.74732   0.48203   0.00000  Uiso   1.00
C60    C     0.94059   0.65456   0.44660   0.00000  Uiso   1.00
C61    C     0.96290   0.67338   0.38142   0.00000  Uiso   1.00
C62    C     0.92557   0.78458   0.35129   0.00000  Uiso   1.00
H24    H     0.77124   0.04871   0.38210   0.00000  Uiso   1.00
H25    H     0.79706   0.93072   0.48079   0.00000  Uiso   1.00
H26    H     0.86373   0.73288   0.53332   0.00000  Uiso   1.00
H27    H     0.97008   0.56729   0.47001   0.00000  Uiso   1.00
H28    H     0.01011   0.60074   0.35381   0.00000  Uiso   1.00
H29    H     0.94585   0.79550   0.30049   0.00000  Uiso   1.00
