data_DB0-m3_o96_o155_f0_fsc.sym.1_repeat
_audit_creation_date              2024-02-23
_audit_creation_method            'Materials Studio'
_symmetry_space_group_name_H-M    'P1'
_symmetry_Int_Tables_number       1
_symmetry_cell_setting            triclinic
loop_
_symmetry_equiv_pos_as_xyz
  x,y,z
_cell_length_a                    13.2860
_cell_length_b                    16.2007
_cell_length_c                    17.4129
_cell_angle_alpha                 94.5670
_cell_angle_beta                  90.6095
_cell_angle_gamma                 90.0462
loop_
_atom_site_label
_atom_site_type_symbol
_atom_site_fract_x
_atom_site_fract_y
_atom_site_fract_z
_atom_site_U_iso_or_equiv
_atom_site_adp_type
_atom_site_occupancy
C1     C     0.17901   0.78225   0.97081   0.00000  Uiso   1.00
C2     C     0.82099   0.21775   0.02919   0.00000  Uiso   1.00
C3     C     0.24010   0.83731   0.93908   0.00000  Uiso   1.00
C4     C     0.75990   0.16269   0.06092   0.00000  Uiso   1.00
C5     C     0.19014   0.91168   0.94126   0.00000  Uiso   1.00
C6     C     0.80987   0.08832   0.05874   0.00000  Uiso   1.00
N1     N     0.09730   0.90289   0.97064   0.00000  Uiso   1.00
N2     N     0.90271   0.09711   0.02936   0.00000  Uiso   1.00
C7     C     0.08985   0.82287   0.98770   0.00000  Uiso   1.00
C8     C     0.91015   0.17713   0.01230   0.00000  Uiso   1.00
C9     C     0.23235   0.98271   0.92351   0.00000  Uiso   1.00
C10    C     0.76765   0.01729   0.07649   0.00000  Uiso   1.00
C11    C     0.19093   0.06572   0.94317   0.00000  Uiso   1.00
C12    C     0.80907   0.93428   0.05683   0.00000  Uiso   1.00
C13    C     0.24794   0.13688   0.95539   0.00000  Uiso   1.00
C14    C     0.75206   0.86312   0.04461   0.00000  Uiso   1.00
C15    C     0.18419   0.20083   0.97438   0.00000  Uiso   1.00
C16    C     0.81581   0.79917   0.02562   0.00000  Uiso   1.00
C17    C     0.08786   0.16692   0.97288   0.00000  Uiso   1.00
C18    C     0.91214   0.83308   0.02712   0.00000  Uiso   1.00
N3     N     0.09306   0.08460   0.95279   0.00000  Uiso   1.00
N4     N     0.90694   0.91541   0.04721   0.00000  Uiso   1.00
C19    C     0.99334   0.21248   0.98696   0.00000  Uiso   1.00
C20    C     0.00666   0.78753   0.01304   0.00000  Uiso   1.00
H1     H     0.30839   0.98070   0.90238   0.00000  Uiso   1.00
H2     H     0.69161   0.01930   0.09763   0.00000  Uiso   1.00
H3     H     0.99371   0.27843   0.98082   0.00000  Uiso   1.00
H4     H     0.00629   0.72157   0.01919   0.00000  Uiso   1.00
H5     H     0.03320   0.04395   0.94108   0.00000  Uiso   1.00
H6     H     0.96681   0.95605   0.05892   0.00000  Uiso   1.00
C21    C     0.65017   0.85167   0.04976   0.00000  Uiso   1.00
C22    C     0.34983   0.14834   0.95025   0.00000  Uiso   1.00
C23    C     0.61326   0.77221   0.03639   0.00000  Uiso   1.00
C24    C     0.38675   0.22779   0.96361   0.00000  Uiso   1.00
C25    C     0.67618   0.70586   0.01559   0.00000  Uiso   1.00
C26    C     0.32382   0.29414   0.98441   0.00000  Uiso   1.00
C27    C     0.77978   0.71889   0.00967   0.00000  Uiso   1.00
C28    C     0.22022   0.28112   0.99033   0.00000  Uiso   1.00
C29    C     0.21246   0.70454   0.98585   0.00000  Uiso   1.00
C30    C     0.78754   0.29546   0.01415   0.00000  Uiso   1.00
C31    C     0.30956   0.68388   0.96382   0.00000  Uiso   1.00
C32    C     0.69044   0.31613   0.03618   0.00000  Uiso   1.00
C33    C     0.36837   0.73837   0.92591   0.00000  Uiso   1.00
C34    C     0.63163   0.26163   0.07409   0.00000  Uiso   1.00
C35    C     0.33512   0.81668   0.91470   0.00000  Uiso   1.00
C36    C     0.66488   0.18332   0.08530   0.00000  Uiso   1.00
H7     H     0.59951   0.90220   0.06522   0.00000  Uiso   1.00
H8     H     0.40050   0.09780   0.93478   0.00000  Uiso   1.00
H9     H     0.83014   0.66773   0.99539   0.00000  Uiso   1.00
H10    H     0.16986   0.33227   0.00461   0.00000  Uiso   1.00
H11    H     0.16667   0.66192   0.01504   0.00000  Uiso   1.00
H12    H     0.83333   0.33808   0.98496   0.00000  Uiso   1.00
H13    H     0.44399   0.72134   0.90877   0.00000  Uiso   1.00
H14    H     0.55602   0.27866   0.09123   0.00000  Uiso   1.00
H15    H     0.38406   0.85925   0.88836   0.00000  Uiso   1.00
H16    H     0.61594   0.14076   0.11164   0.00000  Uiso   1.00
H17    H     0.53357   0.76150   0.04246   0.00000  Uiso   1.00
H18    H     0.46643   0.23850   0.95754   0.00000  Uiso   1.00
O1     O     0.61268   0.58526   0.93959   0.00000  Uiso   1.00
O2     O     0.38733   0.41474   0.06042   0.00000  Uiso   1.00
O3     O     0.58271   0.60137   0.06978   0.00000  Uiso   1.00
O4     O     0.41729   0.39863   0.93022   0.00000  Uiso   1.00
C37    C     0.62828   0.62356   0.00830   0.00000  Uiso   1.00
C38    C     0.37173   0.37644   0.99170   0.00000  Uiso   1.00
O5     O     0.37572   0.59221   0.05208   0.00000  Uiso   1.00
O6     O     0.62428   0.40779   0.94792   0.00000  Uiso   1.00
O7     O     0.40497   0.56973   0.92183   0.00000  Uiso   1.00
O8     O     0.59504   0.43027   0.07817   0.00000  Uiso   1.00
C39    C     0.35735   0.60669   0.97999   0.00000  Uiso   1.00
C40    C     0.64265   0.39331   0.02001   0.00000  Uiso   1.00
Zn1    Zn    0.48089   0.51187   0.08441   0.00000  Uiso   1.00
Zn2    Zn    0.51911   0.48813   0.91559   0.00000  Uiso   1.00
C41    C     0.55682   0.53984   0.22272   0.00000  Uiso   1.00
C42    C     0.44318   0.46017   0.77728   0.00000  Uiso   1.00
N5     N     0.46876   0.52502   0.18495   0.00000  Uiso   1.00
N6     N     0.53124   0.47498   0.81505   0.00000  Uiso   1.00
C43    C     0.38609   0.50736   0.22467   0.00000  Uiso   1.00
C44    C     0.61391   0.49262   0.77533   0.00000  Uiso   1.00
C45    C     0.48215   0.51699   0.34276   0.00000  Uiso   1.00
C46    C     0.51785   0.48301   0.65724   0.00000  Uiso   1.00
C47    C     0.56434   0.53655   0.30114   0.00000  Uiso   1.00
C48    C     0.43566   0.46346   0.69887   0.00000  Uiso   1.00
C49    C     0.65564   0.55009   0.33698   0.00000  Uiso   1.00
C50    C     0.34435   0.44994   0.66303   0.00000  Uiso   1.00
C51    C     0.39209   0.50339   0.30393   0.00000  Uiso   1.00
C52    C     0.60792   0.49660   0.69607   0.00000  Uiso   1.00
H19    H     0.72077   0.56566   0.30433   0.00000  Uiso   1.00
H20    H     0.27922   0.43439   0.69568   0.00000  Uiso   1.00
C53    C     0.59319   0.51255   0.53773   0.00000  Uiso   1.00
C54    C     0.40681   0.48744   0.46227   0.00000  Uiso   1.00
C55    C     0.41603   0.47832   0.54152   0.00000  Uiso   1.00
C56    C     0.58396   0.52169   0.45848   0.00000  Uiso   1.00
C57    C     0.50909   0.49101   0.57842   0.00000  Uiso   1.00
C58    C     0.49091   0.50898   0.42158   0.00000  Uiso   1.00
C59    C     0.68448   0.52441   0.57798   0.00000  Uiso   1.00
C60    C     0.31553   0.47555   0.42201   0.00000  Uiso   1.00
C61    C     0.69120   0.51677   0.65594   0.00000  Uiso   1.00
C62    C     0.30881   0.48320   0.34406   0.00000  Uiso   1.00
C63    C     0.66575   0.54325   0.41457   0.00000  Uiso   1.00
C64    C     0.33424   0.45678   0.58543   0.00000  Uiso   1.00
H21    H     0.76258   0.52757   0.68541   0.00000  Uiso   1.00
H22    H     0.23744   0.47238   0.31458   0.00000  Uiso   1.00
H23    H     0.75386   0.54050   0.55195   0.00000  Uiso   1.00
H24    H     0.24616   0.45944   0.44804   0.00000  Uiso   1.00
H25    H     0.74023   0.55500   0.43720   0.00000  Uiso   1.00
H26    H     0.25976   0.44506   0.56281   0.00000  Uiso   1.00
H27    H     0.31611   0.49294   0.19431   0.00000  Uiso   1.00
H28    H     0.68389   0.50704   0.80569   0.00000  Uiso   1.00
H29    H     0.62461   0.54994   0.19135   0.00000  Uiso   1.00
H30    H     0.37538   0.45008   0.80865   0.00000  Uiso   1.00
