# Generated by REPEAT Assigner based on pymatgen
data_DB0-m23_o151_o58_f0_pcu
_audit_creation_date              2022-05-24
_audit_creation_method            REPEAT_Assigner
_cell_length_a                    10.854343
_cell_length_b                    18.611521
_cell_length_c                    19.178574
_cell_angle_alpha                 75.903409
_cell_angle_beta                  91.451884
_cell_angle_gamma                 90.946106
_cell_volume                      3756.284695
_symmetry_space_group_name_H-M    P1
_symmetry_Int_Tables_number       1
loop_
    _symmetry_equiv_pos_site_id
    _symmetry_equiv_pos_as_xyz
    1  x,y,z
loop_
    _atom_site_type_symbol
    _atom_site_label
    _atom_site_fract_x
    _atom_site_fract_y
    _atom_site_fract_z
    _atom_type_partial_charge
    C   C1   0.990130  0.832599  0.222173  0.539226
    O   O1   0.994706  0.826854  0.155896  -0.678678
    O   O2   0.986364  0.898787  0.234090  -0.663407
    C   C2   0.999073  0.170964  0.780000  0.527445
    O   O3   0.998336  0.175507  0.846786  -0.666445
    O   O4   0.003304  0.105338  0.766789  -0.665588
    C   C3   0.003589  0.107936  0.068892  0.629827
    O   O5   0.994330  0.068423  0.134998  -0.637531
    O   O6   0.003923  0.073993  0.016161  -0.847971
    Cd  Cd1  0.994947  0.952317  0.103597  1.251712
    Cd  Cd2  0.004958  0.049581  0.897066  1.213952
    C   C4   0.006099  0.893864  0.930327  0.603832
    O   O7   0.009007  0.934574  0.864464  -0.651009
    O   O8   0.003180  0.926906  0.983904  -0.886294
    C   C5   0.762723  0.087932  0.932775  -0.166017
    N   N1   0.825666  0.050204  0.893842  0.022304
    C   C6   0.763435  0.016119  0.849126  -0.033070
    C   C7   0.636266  0.016204  0.845198  -0.197071
    C   C8   0.569471  0.051517  0.887709  0.031226
    C   C9   0.635613  0.087200  0.932083  0.207324
    C   C10  0.365584  0.022984  0.841642  -0.306518
    C   C11  0.440202  0.052276  0.887935  0.168735
    C   C12  0.382165  0.084460  0.935824  0.082056
    C   C13  0.449781  0.119553  0.979749  -0.151596
    C   C14  0.575874  0.122247  0.976793  -0.227079
    C   C15  0.238935  0.024841  0.845541  0.019115
    N   N2   0.184633  0.052177  0.895922  -0.059748
    C   C16  0.255417  0.082347  0.940253  -0.037069
    H   H1   0.812322  0.989020  0.814650  0.139634
    H   H2   0.214094  0.106151  0.979499  0.106400
    H   H3   0.404223  0.145718  0.016415  0.105957
    H   H4   0.627761  0.150198  0.011423  0.135823
    H   H5   0.593639  0.986701  0.809047  0.133190
    H   H6   0.401472  0.999919  0.800142  0.163787
    H   H7   0.810706  0.119799  0.964878  0.165046
    H   H8   0.184175  0.004322  0.806730  0.152180
    C   C17  0.237808  0.974856  0.127718  -0.105470
    N   N3   0.175174  0.934848  0.088349  -0.068395
    C   C18  0.237383  0.890587  0.055967  0.082552
    C   C19  0.363914  0.890915  0.056198  -0.293917
    C   C20  0.430647  0.935356  0.092291  0.111066
    C   C21  0.365314  0.975575  0.130373  0.162382
    C   C22  0.630955  0.904662  0.052609  -0.190936
    C   C23  0.559485  0.939308  0.093157  0.082374
    C   C24  0.619957  0.979935  0.135244  0.169226
    C   C25  0.553509  0.017721  0.174977  -0.226808
    C   C26  0.426757  0.016424  0.171727  -0.189829
    C   C27  0.757068  0.910189  0.055593  0.011036
    N   N4   0.815149  0.949200  0.097461  -0.079705
    C   C28  0.747519  0.983192  0.137815  -0.103843
    H   H9   0.189266  0.852210  0.030972  0.108854
    H   H10  0.792568  0.012852  0.173235  0.153844
    H   H11  0.600428  0.049693  0.207891  0.148429
    H   H12  0.375854  0.047367  0.202175  0.145840
    H   H13  0.405572  0.853344  0.029371  0.151685
    H   H14  0.593438  0.873502  0.016501  0.104065
    H   H15  0.189007  0.005500  0.158906  0.117130
    H   H16  0.807204  0.881445  0.023824  0.102838
    C   C29  0.896715  0.535074  0.001010  -0.031937
    C   C30  0.905998  0.458810  0.019825  -0.174452
    H   H17  0.824794  0.425426  0.036989  0.093537
    C   C31  0.015253  0.424383  0.012995  0.012164
    C   C32  0.118106  0.467480  0.987427  -0.026713
    C   C33  0.108512  0.543777  0.968186  -0.177781
    H   H18  0.189592  0.577375  0.951244  0.090685
    C   C34  0.999457  0.578074  0.975502  0.005565
    C   C35  0.723871  0.616632  0.946281  -0.149899
    H   H19  0.771537  0.631055  0.895889  0.090353
    C   C36  0.609343  0.646039  0.950621  -0.102875
    H   H20  0.568988  0.684025  0.904186  0.094144
    C   C37  0.545929  0.626704  0.013928  -0.069009
    H   H21  0.456141  0.649767  0.017268  0.085884
    C   C38  0.596719  0.577533  0.072816  -0.173898
    H   H22  0.546808  0.562122  0.122412  0.122192
    C   C39  0.711115  0.547933  0.068559  -0.103361
    H   H23  0.750343  0.509730  0.115231  0.091739
    C   C40  0.775995  0.568011  0.005535  0.180261
    C   C41  0.036313  0.703908  0.898282  -0.116658
    H   H24  0.062659  0.679514  0.855222  0.093542
    C   C42  0.037585  0.780142  0.887547  -0.219786
    C   C43  0.004864  0.812442  0.942175  0.030884
    C   C44  0.970200  0.767113  0.006994  -0.056074
    H   H25  0.942755  0.790192  0.049884  0.131954
    C   C45  0.967604  0.691285  0.017547  -0.249445
    H   H26  0.941720  0.657165  0.069291  0.120965
    C   C46  0.999372  0.659134  0.963064  0.215721
    C   C47  0.971269  0.300747  0.092405  -0.103527
    H   H27  0.939536  0.327249  0.132838  0.091758
    C   C48  0.968252  0.224346  0.105864  -0.216600
    C   C49  0.007753  0.189285  0.054750  -0.004015
    C   C50  0.052286  0.231721  0.990940  -0.047508
    H   H28  0.087671  0.205940  0.951489  0.107320
    C   C51  0.055281  0.307871  0.977386  -0.201767
    H   H29  0.087666  0.339747  0.926149  0.110594
    C   C52  0.015832  0.342992  0.028273  0.174846
    C   C53  0.291367  0.387622  0.044669  -0.167175
    H   H30  0.242545  0.373730  0.094683  0.093623
    C   C54  0.406806  0.358771  0.041771  -0.095687
    H   H31  0.446768  0.321734  0.088964  0.096255
    C   C55  0.471625  0.377469  0.978941  -0.070181
    H   H32  0.562133  0.354850  0.976734  0.085347
    C   C56  0.421327  0.425462  0.919083  -0.178538
    H   H33  0.472356  0.440402  0.869867  0.123952
    C   C57  0.306014  0.454500  0.921894  -0.091732
    H   H34  0.267201  0.491814  0.874500  0.087760
    C   C58  0.239723  0.434998  0.984427  0.182466
    H   H35  0.065906  0.813963  0.836189  0.139986
    H   H36  0.933023  0.192544  0.156406  0.138654
    C   C59  0.894290  0.490124  0.549681  -0.016729
    C   C60  0.903775  0.556170  0.497957  -0.210485
    H   H37  0.831607  0.596652  0.492303  0.094510
    C   C61  0.999378  0.569283  0.450143  0.030638
    C   C62  0.089039  0.515618  0.455247  -0.025303
    C   C63  0.079519  0.449585  0.506928  -0.205049
    H   H38  0.151673  0.409099  0.512555  0.093223
    C   C64  0.983771  0.436371  0.554628  0.028056
    C   C65  0.753202  0.529271  0.632041  -0.132706
    H   H39  0.810233  0.577972  0.629514  0.099519
    C   C66  0.649433  0.518581  0.673509  -0.151319
    H   H40  0.625394  0.558949  0.702833  0.114580
    C   C67  0.576294  0.456537  0.677572  -0.106129
    H   H41  0.494829  0.448277  0.709976  0.099496
    C   C68  0.606611  0.405314  0.639856  -0.125242
    H   H42  0.548546  0.357030  0.642415  0.107600
    C   C69  0.710473  0.415812  0.598468  -0.114732
    H   H43  0.731814  0.376031  0.567946  0.079992
    C   C70  0.785171  0.477473  0.595027  0.189085
    C   C71  0.982560  0.371030  0.683555  -0.084709
    H   H44  0.978871  0.423888  0.697358  0.070723
    C   C72  0.987063  0.306956  0.737757  -0.226612
    C   C73  0.994899  0.238708  0.721622  0.098509
    C   C74  0.999260  0.235436  0.650484  -0.200263
    H   H45  0.006035  0.182774  0.636575  0.127160
    C   C75  0.995376  0.299758  0.596229  -0.098198
    H   H46  0.998614  0.296372  0.540828  0.094242
    C   C76  0.985185  0.367849  0.612403  0.123775
    C   C77  0.000432  0.633188  0.320953  -0.081462
    H   H47  0.003753  0.579968  0.307862  0.071677
    C   C78  0.997371  0.696734  0.266138  -0.234358
    C   C79  0.990629  0.765474  0.281315  0.103513
    C   C80  0.985213  0.769746  0.352142  -0.205467
    H   H48  0.979331  0.822833  0.365282  0.131549
    C   C81  0.987740  0.705902  0.407057  -0.099226
    H   H49  0.984263  0.710043  0.462227  0.095665
    C   C82  0.997575  0.637342  0.391811  0.125329
    C   C83  0.230660  0.476449  0.373139  -0.126036
    H   H50  0.173870  0.427643  0.375718  0.097332
    C   C84  0.334532  0.487210  0.331756  -0.155875
    H   H51  0.358891  0.446790  0.302562  0.115201
    C   C85  0.407360  0.549393  0.327606  -0.108378
    H   H52  0.488901  0.557711  0.295264  0.099771
    C   C86  0.376625  0.600690  0.365149  -0.118095
    H   H53  0.434438  0.649090  0.362517  0.104508
    C   C87  0.272661  0.590121  0.406452  -0.116309
    H   H54  0.250976  0.629973  0.436830  0.080740
    C   C88  0.198282  0.528310  0.409990  0.189380
    H   H55  0.984691  0.311190  0.792901  0.148259
    H   H56  0.000458  0.691678  0.211270  0.149024
