# Generated by REPEAT Assigner based on pymatgen
data_DB0-m3_o25_o510_f0_fsc.sym.66
_audit_creation_date              2022-05-24
_audit_creation_method            REPEAT_Assigner
_cell_length_a                    8.532855
_cell_length_b                    13.069521
_cell_length_c                    14.287479
_cell_angle_alpha                 90.594726
_cell_angle_beta                  90.003148
_cell_angle_gamma                 95.306082
_cell_volume                      1586.430289
_symmetry_space_group_name_H-M    P1
_symmetry_Int_Tables_number       1
loop_
    _symmetry_equiv_pos_site_id
    _symmetry_equiv_pos_as_xyz
    1  x,y,z
loop_
    _atom_site_type_symbol
    _atom_site_label
    _atom_site_fract_x
    _atom_site_fract_y
    _atom_site_fract_z
    _atom_type_partial_charge
    C   C1   0.175453  0.692598  0.022289  0.029570
    C   C2   0.833623  0.284706  0.978313  -0.079744
    C   C3   0.185603  0.796280  0.001873  -0.345615
    C   C4   0.823031  0.179645  0.991884  -0.250352
    C   C5   0.049783  0.847101  0.997538  0.395207
    C   C6   0.958844  0.128641  0.994579  0.300866
    C   C7   0.904430  0.790829  0.002192  -0.322356
    C   C8   0.104428  0.184986  0.992293  -0.240941
    H   H1   0.796763  0.824884  0.987570  0.135720
    H   H2   0.212084  0.149869  0.004209  0.142716
    C   C9   0.895546  0.687919  0.022405  -0.037796
    C   C10  0.113364  0.289257  0.978414  -0.095946
    C   C11  0.030441  0.640840  0.038015  -0.138299
    C   C12  0.978765  0.337667  0.967270  -0.036498
    C   C13  0.062198  0.958856  0.982846  -0.255450
    C   C14  0.945752  0.016494  0.006615  -0.275634
    H   H3   0.170785  0.993692  0.953439  0.138927
    H   H4   0.837394  0.981653  0.036277  0.140915
    H   H5   0.299483  0.837733  0.990516  0.127248
    H   H6   0.708934  0.137395  0.999932  0.132280
    H   H7   0.022286  0.559712  0.052411  0.080828
    H   H8   0.987129  0.419662  0.957560  0.134150
    O   O1   0.355594  0.605336  0.931142  -0.595854
    O   O2   0.653254  0.371391  0.069730  -0.565573
    O   O3   0.357932  0.588331  0.091746  -0.708666
    O   O4   0.650825  0.388375  0.909126  -0.683593
    C   C15  0.310357  0.631276  0.015339  0.754426
    C   C16  0.698233  0.345371  0.985497  0.709401
    O   O5   0.316263  0.376168  0.070034  -0.668586
    O   O6   0.692607  0.600561  0.930866  -0.794470
    O   O7   0.323647  0.393012  0.909285  -0.690854
    O   O8   0.685278  0.583689  0.091625  -0.767062
    C   C17  0.262366  0.352250  0.985874  0.782452
    C   C18  0.746817  0.624325  0.015040  0.944391
    Zn  Zn1  0.502498  0.475615  0.104222  1.035682
    Zn  Zn2  0.506355  0.501112  0.896660  1.088156
    C   C19  0.651018  0.512268  0.529626  -0.193690
    C   C20  0.356355  0.462035  0.470977  -0.240687
    C   C21  0.589062  0.416082  0.477022  0.347117
    C   C22  0.417861  0.557936  0.523963  0.401071
    H   H9   0.773937  0.530260  0.554066  0.067903
    H   H10  0.233727  0.444079  0.445997  0.085849
    H   H11  0.404156  0.325179  0.572209  0.077945
    H   H12  0.603303  0.649097  0.429026  0.118185
    N   N1   0.500531  0.462738  0.226531  0.072021
    N   N2   0.508283  0.513941  0.774333  0.006444
    C   C23  0.560566  0.575048  0.461574  -0.272241
    C   C24  0.446796  0.399194  0.539562  -0.152619
    C   C25  0.501812  0.476876  0.409701  0.568366
    C   C26  0.505851  0.497586  0.591215  0.522216
    C   C27  0.501317  0.467027  0.307494  -0.281338
    C   C28  0.506990  0.508726  0.693384  -0.252300
    N   N3   0.686992  0.336473  0.451242  -0.790168
    C   C29  0.643394  0.283319  0.367253  0.541191
    C   C30  0.758745  0.253055  0.307934  -0.381754
    C   C31  0.717887  0.198033  0.227383  -0.031235
    C   C32  0.561649  0.172648  0.205823  -0.169847
    C   C33  0.446215  0.201651  0.265263  -0.075437
    C   C34  0.486699  0.256371  0.346083  -0.285646
    H   H13  0.805511  0.358436  0.457344  0.345918
    H   H14  0.881797  0.271856  0.324323  0.157480
    H   H15  0.808702  0.174292  0.181481  0.127323
    H   H16  0.529570  0.129161  0.142852  0.117789
    H   H17  0.323678  0.180601  0.248971  0.108329
    H   H18  0.394411  0.275671  0.392868  0.125880
    N   N4   0.323643  0.639564  0.549710  -0.796279
    C   C35  0.238717  0.626006  0.634355  0.521854
    C   C36  0.213165  0.710996  0.688669  -0.394439
    C   C37  0.124112  0.700070  0.769046  -0.013944
    C   C38  0.059272  0.604255  0.795282  -0.236883
    C   C39  0.084151  0.519297  0.741503  0.042721
    C   C40  0.173161  0.529884  0.661117  -0.250987
    H   H19  0.379922  0.711925  0.541106  0.340826
    H   H20  0.261581  0.786815  0.668165  0.153350
    H   H21  0.103925  0.766869  0.811024  0.111167
    H   H22  0.987545  0.595680  0.857404  0.199321
    H   H23  0.032072  0.444241  0.761736  0.046221
    H   H24  0.186285  0.462251  0.619236  0.093360
