# Generated by REPEAT Assigner based on pymatgen
data_DB0-m2_o11_o23_f0_pcu.sym.34_sqe
_audit_creation_date              2022-05-24
_audit_creation_method            REPEAT_Assigner
_cell_length_a                    15.896539
_cell_length_b                    11.071566
_cell_length_c                    9.563320
_cell_angle_alpha                 90.020556
_cell_angle_beta                  89.997339
_cell_angle_gamma                 89.998263
_cell_volume                      1683.140145
_symmetry_space_group_name_H-M    P1
_symmetry_Int_Tables_number       1
loop_
    _symmetry_equiv_pos_site_id
    _symmetry_equiv_pos_as_xyz
    1  x,y,z
loop_
    _atom_site_type_symbol
    _atom_site_label
    _atom_site_fract_x
    _atom_site_fract_y
    _atom_site_fract_z
    _atom_type_partial_charge
    O   O1   0.501124  0.325053  0.626054  -0.572457
    O   O2   0.495573  0.321668  0.385555  -0.521038
    C   C1   0.498626  0.266404  0.506259  0.647669
    O   O3   0.377031  0.504506  0.621666  -0.586350
    O   O4   0.379319  0.497142  0.380689  -0.530259
    C   C2   0.339177  0.500224  0.500026  0.673473
    Cu  Cu1  0.498270  0.500678  0.642897  0.971983
    Cu  Cu2  0.501944  0.497760  0.362792  0.861652
    O   O5   0.502688  0.675737  0.619838  -0.641313
    O   O6   0.499986  0.672240  0.380180  -0.558823
    O   O7   0.621504  0.502492  0.624849  -0.652002
    O   O8   0.623813  0.490684  0.384660  -0.619773
    C   C3   0.501730  0.730918  0.499288  0.834595
    C   C4   0.661979  0.496611  0.506343  0.844171
    C   C5   0.050734  0.414928  0.628853  0.478497
    C   C6   0.047895  0.437792  0.360481  0.270500
    C   C7   0.950788  0.418414  0.372629  0.586736
    C   C8   0.752104  0.494230  0.508514  -0.277720
    C   C9   0.080116  0.491414  0.502014  0.499181
    C   C10  0.954190  0.428013  0.639135  0.228508
    C   C11  0.919569  0.488095  0.503524  0.189652
    C   C12  0.951119  0.619280  0.500413  0.533650
    C   C13  0.046669  0.622747  0.516506  -0.059873
    C   C14  0.827527  0.492204  0.505553  -0.076246
    C   C15  0.172526  0.495547  0.498997  -0.141141
    C   C16  0.248913  0.497919  0.498492  -0.214275
    H   H1   0.071240  0.680133  0.431512  0.034681
    H   H2   0.942568  0.488032  0.728949  -0.003330
    H   H3   0.936658  0.658283  0.398121  -0.044950
    C   C17  0.499823  0.935062  0.387893  0.580927
    C   C18  0.502516  0.863681  0.502443  -0.576378
    H   H4   0.504337  0.901213  0.607236  0.208834
    C   C19  0.498935  0.068867  0.392943  -0.297579
    C   C20  0.497883  0.133658  0.510367  -0.188591
    H   H5   0.498506  0.115855  0.294414  0.138917
    H   H6   0.498160  0.090964  0.610411  0.124291
    C   C21  0.462730  0.419710  0.925727  -0.120369
    N   N1   0.495561  0.503249  0.852442  -0.232109
    H   H7   0.437943  0.341433  0.875008  0.100201
    H   H8   0.497731  0.587223  0.900138  0.211674
    C   C22  0.452724  0.430400  0.078417  0.524205
    N   N2   0.503536  0.494721  0.153470  -0.440563
    H   H9   0.555911  0.525056  0.101274  0.263171
    N   N3   0.912179  0.314478  0.674490  -0.777562
    H   H10  0.850255  0.333355  0.700879  0.288212
    H   H11  0.939032  0.279174  0.765832  0.261133
    N   N4   0.087272  0.462141  0.757594  -0.729183
    H   H12  0.058267  0.420978  0.843087  0.216876
    H   H13  0.151053  0.438597  0.762260  0.295282
    N   N5   0.497891  0.878528  0.252704  -0.647235
    H   H14  0.550099  0.909707  0.197579  0.260263
    H   H15  0.442876  0.907033  0.203539  0.254996
    N   N6   0.391129  0.357806  0.143902  -0.526061
    H   H16  0.333242  0.382714  0.100992  0.234725
    H   H17  0.404884  0.269829  0.112764  0.227761
    N   N7   0.079060  0.289438  0.615745  -0.902920
    H   H18  0.085990  0.253605  0.716401  0.275557
    H   H19  0.035368  0.235437  0.564799  0.341016
    N   N8   0.071403  0.519985  0.246421  -0.910304
    H   H20  0.075793  0.473719  0.151718  0.342195
    H   H21  0.030652  0.592557  0.233721  0.265150
    N   N9   0.088707  0.321661  0.332290  -0.726691
    H   H22  0.152402  0.335501  0.312122  0.318147
    H   H23  0.064841  0.285827  0.239320  0.253067
    N   N10  0.931390  0.290378  0.392419  -0.867039
    H   H24  0.867283  0.283841  0.414520  0.313464
    H   H25  0.936241  0.245701  0.296793  0.329612
    N   N11  0.904875  0.454278  0.246538  -0.962363
    H   H26  0.898295  0.546660  0.230179  0.323427
    H   H27  0.931821  0.413401  0.159228  0.314240
    N   N12  0.072670  0.680149  0.646798  -0.895512
    H   H28  0.058182  0.771619  0.638140  0.308026
    H   H29  0.138276  0.677400  0.653235  0.342185
    N   N13  0.906312  0.694362  0.601654  -0.964009
    H   H30  0.917358  0.784971  0.578446  0.340697
    H   H31  0.923103  0.678208  0.705260  0.350822
