# Generated by REPEAT Assigner based on pymatgen
data_DB0-m2_o9_o17_f0_nbo.sym.113
_audit_creation_date              2022-05-24
_audit_creation_method            REPEAT_Assigner
_cell_length_a                    21.120027
_cell_length_b                    21.367147
_cell_length_c                    21.289363
_cell_angle_alpha                 91.410392
_cell_angle_beta                  119.178978
_cell_angle_gamma                 119.058812
_cell_volume                      6888.753061
_symmetry_space_group_name_H-M    P1
_symmetry_Int_Tables_number       1
loop_
    _symmetry_equiv_pos_site_id
    _symmetry_equiv_pos_as_xyz
    1  x,y,z
loop_
    _atom_site_type_symbol
    _atom_site_label
    _atom_site_fract_x
    _atom_site_fract_y
    _atom_site_fract_z
    _atom_type_partial_charge
    C   C1    0.518637  0.430365  0.422620  0.772291
    C   C2    0.715757  0.745825  0.805506  -0.089196
    C   C3    0.276166  0.797394  0.182550  -0.179000
    C   C4    0.274604  0.744996  0.141570  0.276076
    C   C5    0.293661  0.695896  0.173644  -0.216721
    C   C6    0.313424  0.698873  0.246122  -0.086110
    C   C7    0.313186  0.750218  0.286306  -0.152926
    C   C8    0.322594  0.810002  0.065298  -0.171394
    C   C9    0.314063  0.813997  0.997261  -0.039612
    C   C10   0.241821  0.752192  0.930168  -0.284810
    C   C11   0.180667  0.687366  0.932498  0.489578
    C   C12   0.189101  0.684629  0.001003  -0.276634
    C   C13   0.802512  0.562322  0.824903  -0.077289
    C   C14   0.260609  0.746387  0.067436  0.030615
    C   C15   0.161272  0.756930  0.801318  -0.249198
    C   C16   0.146724  0.754926  0.730539  -0.097204
    C   C17   0.198666  0.747510  0.713891  -0.150688
    C   C18   0.265158  0.742123  0.768028  -0.101599
    C   C19   0.280230  0.744727  0.839071  -0.197849
    C   C20   0.228286  0.752151  0.855860  0.470455
    C   C21   0.799921  0.176520  0.749991  0.478057
    C   C22   0.742797  0.107448  0.749955  -0.217334
    C   C23   0.771009  0.086606  0.813808  -0.134304
    C   C24   0.816524  0.507092  0.815081  -0.024179
    C   C25   0.856368  0.134892  0.877878  -0.148424
    C   C26   0.913758  0.203688  0.877787  -0.019197
    C   C27   0.885786  0.224374  0.813738  -0.303183
    C   C28   0.789763  0.294459  0.413508  0.515250
    C   C29   0.879161  0.344262  0.469754  -0.336236
    C   C30   0.917714  0.329872  0.536218  -0.039731
    C   C31   0.867466  0.265337  0.546530  -0.166719
    C   C32   0.778511  0.215164  0.490396  -0.054643
    C   C33   0.739581  0.229469  0.423956  -0.308390
    C   C34   0.721647  0.522937  0.455742  0.376267
    C   C35   0.769807  0.457578  0.741739  0.042675
    C   C36   0.779799  0.586993  0.520653  -0.239307
    C   C37   0.822227  0.658581  0.516693  -0.083439
    C   C38   0.807446  0.666755  0.447872  -0.190722
    C   C39   0.750586  0.603241  0.383091  -0.062965
    C   C40   0.707726  0.531451  0.386630  -0.244728
    C   C41   0.113770  0.566470  0.845053  0.492683
    C   C42   0.037434  0.496894  0.791291  -0.326064
    C   C43   0.040904  0.437176  0.771873  -0.031041
    C   C44   0.120994  0.446603  0.805968  -0.162575
    C   C45   0.197575  0.515820  0.859393  -0.088577
    C   C46   0.713485  0.466623  0.679873  -0.176093
    C   C47   0.194484  0.575757  0.879118  -0.304865
    C   C48   0.701167  0.522649  0.689811  -0.017578
    C   C49   0.745206  0.570549  0.762740  -0.088640
    C   C50   0.788814  0.377896  0.676524  0.006130
    C   C51   0.788626  0.314430  0.662772  -0.437837
    C   C52   0.768789  0.262443  0.698998  0.544453
    C   C53   0.633015  0.523159  0.622927  0.773040
    C   C54   0.745794  0.273238  0.747063  -0.273539
    C   C55   0.747180  0.337216  0.761359  -0.189934
    C   C56   0.770822  0.390727  0.727762  0.053380
    C   C57   0.432531  0.128956  0.125276  -0.178262
    C   C58   0.509091  0.136566  0.144456  -0.180511
    C   C59   0.588446  0.192546  0.211450  -0.014690
    C   C60   0.591536  0.241847  0.258209  -0.054361
    C   C61   0.514622  0.233749  0.238676  0.035858
    C   C62   0.435159  0.176693  0.172716  0.199011
    C   C63   0.671023  0.299435  0.324362  0.317849
    C   C64   0.505266  0.599443  0.580228  0.711303
    C   C65   0.673360  0.349401  0.369083  -0.291750
    C   C66   0.596383  0.341477  0.349554  0.035301
    C   C67   0.516891  0.282692  0.284773  -0.048029
    C   C68   0.439401  0.272641  0.266029  0.144596
    C   C69   0.359990  0.214745  0.200837  -0.143248
    C   C70   0.357958  0.167358  0.153853  -0.253951
    C   C71   0.598508  0.391907  0.394376  0.231602
    C   C72   0.520101  0.380466  0.375834  -0.142769
    C   C73   0.441038  0.320384  0.312369  -0.195979
    C   C74   0.498260  0.515243  0.251379  -0.171923
    C   C75   0.390080  0.507261  0.379051  0.804645
    C   C76   0.446945  0.528657  0.263659  -0.081992
    C   C77   0.359073  0.471430  0.229828  0.062048
    C   C78   0.322158  0.401688  0.181337  -0.125456
    C   C79   0.373437  0.388463  0.168769  -0.092146
    C   C80   0.461716  0.444982  0.204382  -0.067518
    C   C81   0.233009  0.480485  0.177451  -0.095784
    C   C82   0.179910  0.495207  0.185170  -0.045457
    C   C83   0.194131  0.511305  0.256170  0.033203
    C   C84   0.264165  0.516133  0.318929  -0.149045
    C   C85   0.319133  0.504348  0.311520  -0.069970
    C   C86   0.741593  0.743616  0.757737  -0.066251
    C   C87   0.303239  0.485838  0.240327  0.011687
    C   C88   0.166312  0.582046  0.320914  -0.118343
    C   C89   0.109724  0.588871  0.330622  -0.150873
    C   C90   0.020551  0.532104  0.286021  -0.092299
    C   C91   0.988038  0.468150  0.232125  -0.113155
    C   C92   0.044513  0.461322  0.222274  -0.123145
    C   C93   0.133724  0.518872  0.265762  0.113716
    C   C94   0.494451  0.806728  0.875040  -0.292959
    C   C95   0.498232  0.871189  0.862563  0.051461
    C   C96   0.501566  0.890014  0.802121  -0.249502
    C   C97   0.750563  0.686213  0.743140  -0.213349
    C   C98   0.505446  0.846546  0.756815  0.216647
    C   C99   0.499187  0.781098  0.768171  -0.028535
    C   C100  0.491975  0.760447  0.826373  0.271463
    C   C101  0.516472  0.868827  0.700619  -0.234359
    C   C102  0.521717  0.825945  0.656258  -0.229999
    C   C103  0.513066  0.759348  0.666277  0.254186
    C   C104  0.500389  0.736385  0.721492  -0.061907
    C   C105  0.489186  0.668800  0.730217  0.176897
    C   C106  0.479925  0.647271  0.787347  -0.137714
    C   C107  0.482742  0.693654  0.836157  -0.298786
    C   C108  0.732733  0.630196  0.775627  0.209593
    C   C109  0.517163  0.715734  0.621308  -0.308894
    C   C110  0.503224  0.647004  0.628532  0.085331
    C   C111  0.487849  0.623033  0.682143  -0.252313
    C   C112  0.877831  0.386589  0.998501  0.610573
    C   C113  0.882959  0.504517  0.882689  0.543122
    C   C114  0.121168  0.618238  0.002625  0.739645
    C   C115  0.112915  0.497363  0.118234  0.629051
    C   C116  0.382728  0.883786  0.999209  0.695953
    C   C117  0.506317  0.086484  0.093270  0.807872
    C   C118  0.623814  0.120144  0.006245  0.710489
    C   C119  0.707983  0.633233  0.824273  -0.198259
    C   C120  0.500173  0.919714  0.914118  0.752503
    C   C121  0.734679  0.472807  0.064654  -0.131107
    C   C122  0.743750  0.413108  0.064781  -0.135977
    C   C123  0.739482  0.380538  0.004814  0.146736
    C   C124  0.723488  0.406570  0.943721  -0.120456
    C   C125  0.713962  0.465956  0.943417  -0.124257
    C   C126  0.720010  0.499386  0.004056  -0.112489
    C   C127  0.687548  0.250869  0.006632  -0.155155
    C   C128  0.692180  0.188524  0.006726  -0.082251
    C   C129  0.759794  0.192818  0.006213  -0.005198
    C   C130  0.699143  0.690708  0.838888  -0.086039
    C   C131  0.817732  0.257343  0.001391  -0.149242
    C   C132  0.811922  0.318789  0.000141  0.023590
    C   C133  0.747703  0.316352  0.004759  0.017631
    C   C134  0.849805  0.144924  0.073127  -0.229024
    C   C135  0.865653  0.089260  0.076953  -0.048804
    C   C136  0.805634  0.020567  0.017627  -0.164563
    C   C137  0.729992  0.007717  0.954443  -0.027512
    C   C138  0.713661  0.063170  0.950809  -0.089038
    C   C139  0.773209  0.131635  0.010621  0.240434
    C   C140  0.294418  0.799400  0.254464  -0.092867
    Cu  Cu1   0.570639  0.575191  0.498993  0.874915
    Cu  Cu2   0.452140  0.454611  0.502794  1.008879
    Cu  Cu3   0.000236  0.547011  0.044697  0.833769
    Cu  Cu4   0.998731  0.457762  0.956574  0.923342
    Cu  Cu5   0.562726  0.999865  0.062370  0.957069
    Cu  Cu6   0.443836  0.006125  0.945091  0.930015
    H   H1    0.708453  0.790699  0.816737  0.088599
    H   H2    0.725731  0.232222  0.773715  0.141495
    H   H3    0.728516  0.344772  0.798421  0.150457
    H   H4    0.369893  0.084924  0.073553  0.129414
    H   H5    0.648174  0.198578  0.225844  0.088852
    H   H6    0.736627  0.394624  0.419428  0.133813
    H   H7    0.380220  0.312104  0.298009  0.129250
    H   H8    0.299128  0.206835  0.185793  0.120230
    H   H9    0.295476  0.122650  0.102411  0.139762
    H   H10   0.502031  0.434432  0.194896  0.082179
    H   H11   0.567009  0.560125  0.278138  0.125784
    H   H12   0.755140  0.787089  0.731888  0.090951
    H   H13   0.475561  0.584535  0.298917  0.092274
    H   H14   0.253033  0.357021  0.153481  0.089400
    H   H15   0.344451  0.333623  0.131170  0.090684
    H   H16   0.222392  0.468374  0.122295  0.108280
    H   H17   0.275240  0.527519  0.374368  0.093516
    H   H18   0.236096  0.626866  0.356003  0.105374
    H   H19   0.135342  0.638797  0.373287  0.112270
    H   H20   0.976232  0.537481  0.293686  0.099364
    H   H21   0.918265  0.423209  0.197641  0.100501
    H   H22   0.018576  0.410439  0.180623  0.077047
    H   H23   0.772964  0.686068  0.707112  0.123436
    H   H24   0.490409  0.790861  0.921408  0.148579
    H   H25   0.505687  0.940875  0.792496  0.126908
    H   H26   0.522450  0.920530  0.691893  0.151559
    H   H27   0.531476  0.844296  0.613013  0.146498
    H   H28   0.528326  0.734011  0.578684  0.123066
    H   H29   0.478628  0.569826  0.688615  0.132139
    H   H30   0.471865  0.594661  0.794890  0.120060
    H   H31   0.476661  0.676934  0.881475  0.158344
    H   H32   0.712643  0.546046  0.003830  0.104703
    H   H33   0.738903  0.498679  0.112042  0.110012
    H   H34   0.694592  0.590178  0.850565  0.121765
    H   H35   0.755307  0.392538  0.112479  0.106836
    H   H36   0.717437  0.379967  0.895582  0.062144
    H   H37   0.701423  0.486035  0.895425  0.116148
    H   H38   0.636343  0.248930  0.008353  0.111189
    H   H39   0.869559  0.260264  0.999969  0.102425
    H   H40   0.897400  0.199008  0.119512  0.112038
    H   H41   0.925442  0.099698  0.126238  0.095225
    H   H42   0.818315  0.977075  0.020246  0.095230
    H   H43   0.684253  0.954416  0.907422  0.064806
    H   H44   0.655128  0.053591  0.900664  0.060501
    H   H45   0.678930  0.692432  0.876415  0.096043
    H   H46   0.328672  0.752514  0.343113  0.113918
    H   H47   0.295021  0.840156  0.286250  0.103061
    H   H48   0.262756  0.836810  0.158194  0.100389
    H   H49   0.294994  0.656156  0.142731  0.092416
    H   H50   0.329853  0.661380  0.271730  0.109198
    H   H51   0.378179  0.857303  0.118069  0.112256
    H   H52   0.120165  0.762340  0.814133  0.113257
    H   H53   0.094312  0.758817  0.687971  0.109044
    H   H54   0.187015  0.745579  0.658266  0.109715
    H   H55   0.305189  0.735552  0.754535  0.089274
    H   H56   0.838837  0.601399  0.881593  0.079213
    H   H57   0.332124  0.740160  0.881341  0.108383
    H   H58   0.804954  0.205826  0.661700  0.351284
    H   H59   0.675654  0.069869  0.699982  0.124939
    H   H60   0.726052  0.032491  0.813616  0.114718
    H   H61   0.878400  0.118751  0.928114  0.101467
    H   H62   0.980712  0.241451  0.927980  0.093117
    H   H63   0.930975  0.278433  0.813967  0.115406
    H   H64   0.794499  0.363024  0.349365  0.312969
    H   H65   0.919646  0.395060  0.462503  0.134953
    H   H66   0.987505  0.369232  0.580270  0.098175
    H   H67   0.674501  0.426674  0.622980  0.101838
    H   H68   0.897795  0.254126  0.598663  0.089066
    H   H69   0.739175  0.164414  0.498447  0.092161
    H   H70   0.669999  0.188648  0.380261  0.148426
    H   H71   0.677277  0.453082  0.509324  0.304730
    H   H72   0.792765  0.581464  0.575268  0.109814
    H   H73   0.867373  0.708336  0.567735  0.117765
    H   H74   0.840829  0.722903  0.444776  0.106952
    H   H75   0.739459  0.609657  0.329161  0.097231
    H   H76   0.664417  0.483408  0.334479  0.139083
    H   H77   0.047086  0.606648  0.854555  0.313524
    H   H78   0.805068  0.418399  0.648217  0.065914
    H   H79   0.974331  0.489065  0.763821  0.143886
    H   H80   0.980799  0.382966  0.729747  0.096181
    H   H81   0.123780  0.399816  0.790698  0.090954
    H   H82   0.260485  0.523244  0.886017  0.105282
    H   H83   0.256347  0.628791  0.921213  0.129403
    H   H84   0.804489  0.306094  0.623543  0.188798
    N   N1    0.770108  0.198151  0.685023  -0.769174
    N   N2    0.750819  0.309627  0.345464  -0.652307
    N   N3    0.679537  0.450279  0.462234  -0.568506
    N   N4    0.106831  0.626215  0.863190  -0.707568
    O   O1    0.549303  0.500988  0.422755  -0.489060
    O   O2    0.891411  0.377815  0.945635  -0.524544
    O   O3    0.896779  0.527053  0.949072  -0.460019
    O   O4    0.928783  0.483269  0.875186  -0.511268
    O   O5    0.076235  0.627980  0.023575  -0.607899
    O   O6    0.106351  0.551398  0.981110  -0.543574
    O   O7    0.103178  0.552887  0.126751  -0.427576
    O   O8    0.068578  0.445689  0.051451  -0.604953
    O   O9    0.462815  0.924219  0.063766  -0.588227
    O   O10   0.361950  0.904321  0.937834  -0.572006
    O   O11   0.573883  0.080798  0.121052  -0.617692
    O   O12   0.483219  0.401174  0.460172  -0.648399
    O   O13   0.436920  0.050185  0.021135  -0.609841
    O   O14   0.643882  0.076263  0.042251  -0.589139
    O   O15   0.544510  0.106754  0.970655  -0.589321
    O   O16   0.532847  0.919944  0.985235  -0.644693
    O   O17   0.469482  0.961115  0.887487  -0.607885
    O   O18   0.653943  0.559588  0.579835  -0.591414
    O   O19   0.552004  0.481625  0.605367  -0.633818
    O   O20   0.573809  0.630809  0.575881  -0.531672
    O   O21   0.439435  0.526610  0.544992  -0.629790
    O   O22   0.469011  0.572165  0.418775  -0.618983
    O   O23   0.370545  0.446282  0.399653  -0.632998
    O   O24   0.924019  0.452383  0.052286  -0.499980
