# Generated by REPEAT Assigner based on pymatgen
data_DB0-m3_o24_o1500_f0_fsc.sym.31
_audit_creation_date              2022-05-24
_audit_creation_method            REPEAT_Assigner
_cell_length_a                    9.172526
_cell_length_b                    8.449839
_cell_length_c                    15.046546
_cell_angle_alpha                 90.000000
_cell_angle_beta                  98.980287
_cell_angle_gamma                 90.000000
_cell_volume                      1151.907908
_symmetry_space_group_name_H-M    P1
_symmetry_Int_Tables_number       1
loop_
    _symmetry_equiv_pos_site_id
    _symmetry_equiv_pos_as_xyz
    1  x,y,z
loop_
    _atom_site_type_symbol
    _atom_site_label
    _atom_site_fract_x
    _atom_site_fract_y
    _atom_site_fract_z
    _atom_type_partial_charge
    H   H1   0.924639  0.990469  0.433022  0.131457
    H   H2   0.075360  0.990469  0.566979  0.131461
    C   C1   0.948629  0.131892  0.319596  -0.036347
    C   C2   0.051151  0.849152  0.680407  0.045577
    C   C3   0.051370  0.131892  0.680404  -0.036340
    C   C4   0.948849  0.849152  0.319593  0.045539
    C   C5   0.964493  0.132455  0.229993  -0.262984
    C   C6   0.034578  0.848710  0.769914  -0.203606
    C   C7   0.035506  0.132455  0.770007  -0.262995
    C   C8   0.965422  0.848710  0.230087  -0.203564
    H   H3   0.976854  0.243058  0.195841  0.100511
    H   H4   0.021655  0.738176  0.804009  0.077239
    H   H5   0.023145  0.243058  0.804160  0.100510
    H   H6   0.978345  0.738176  0.195992  0.077232
    C   C9   0.966769  0.990585  0.184381  0.288002
    C   C10  0.033231  0.990585  0.815620  0.288025
    C   C11  0.934575  0.990500  0.362576  -0.209503
    C   C12  0.065425  0.990499  0.637425  -0.209517
    C   C13  0.861829  0.989624  0.024558  -0.296186
    C   C14  0.138171  0.989621  0.975442  -0.296184
    H   H7   0.753893  0.989200  0.044559  0.167205
    H   H8   0.246107  0.989194  0.955441  0.167202
    C   C15  0.875345  0.988787  0.934467  -0.023676
    C   C16  0.124655  0.988783  0.065533  -0.023683
    C   C17  0.014578  0.990814  0.910085  0.112290
    C   C18  0.985422  0.990813  0.089915  0.112287
    N   N1   0.646539  0.490518  0.503634  0.330108
    N   N2   0.353461  0.490518  0.496367  0.330112
    H   H9   0.626474  0.490519  0.650339  0.098637
    H   H10  0.373525  0.490518  0.349662  0.098634
    Zn  Zn1  0.162342  0.490518  0.498193  1.016646
    Zn  Zn2  0.837657  0.490518  0.501808  1.016643
    C   C19  0.456437  0.370314  0.538283  -0.071712
    C   C20  0.543562  0.610722  0.461717  -0.059043
    C   C21  0.543562  0.370314  0.461718  -0.071700
    C   C22  0.456437  0.610722  0.538283  -0.059043
    C   C23  0.566736  0.490518  0.580323  -0.101642
    C   C24  0.433264  0.490518  0.419677  -0.101624
    H   H11  0.417153  0.264625  0.571253  0.090422
    H   H12  0.582847  0.716411  0.428748  0.088985
    H   H13  0.582847  0.264625  0.428748  0.090415
    H   H14  0.417152  0.716411  0.571252  0.088985
    O   O1   0.847904  0.329636  0.404381  -0.756823
    O   O2   0.152072  0.651445  0.595603  -0.723357
    O   O3   0.152095  0.329636  0.595619  -0.756832
    O   O4   0.847928  0.651445  0.404397  -0.723353
    O   O5   0.099737  0.323424  0.404725  -0.708357
    O   O6   0.900247  0.657578  0.595288  -0.763431
    O   O7   0.900263  0.323424  0.595275  -0.708353
    O   O8   0.099753  0.657578  0.404712  -0.763436
    C   C25  0.965023  0.275170  0.374354  0.878515
    C   C26  0.034919  0.705866  0.625651  0.857970
    C   C27  0.034976  0.275170  0.625647  0.878519
    C   C28  0.965080  0.705866  0.374350  0.857984
    C   C29  0.741922  0.982464  0.866230  0.542410
    O   O9   0.751275  0.996552  0.786679  -0.451174
    O   O10  0.609365  0.957547  0.892258  -0.374186
    C   C30  0.481089  0.936891  0.832549  0.437635
    C   C31  0.418008  0.775041  0.847130  -0.227270
    H   H15  0.499811  0.945542  0.761784  -0.029605
    H   H16  0.400552  0.029280  0.844385  -0.082853
    H   H17  0.497951  0.682695  0.834099  0.068925
    H   H18  0.313204  0.758578  0.800298  0.008238
    H   H19  0.397230  0.764720  0.917538  0.040962
    C   C32  0.258078  0.982457  0.133771  0.542422
    O   O11  0.248725  0.996542  0.213321  -0.451173
    O   O12  0.390635  0.957542  0.107743  -0.374187
    C   C33  0.518911  0.936884  0.167451  0.437633
    C   C34  0.581993  0.775036  0.152868  -0.227280
    H   H20  0.500189  0.945531  0.238216  -0.029602
    H   H21  0.599447  0.029275  0.155617  -0.082856
    H   H22  0.502051  0.682688  0.165896  0.068931
    H   H23  0.686797  0.758571  0.199699  0.008240
    H   H24  0.602772  0.764719  0.082459  0.040966
