# Generated by REPEAT Assigner based on pymatgen
data_DB0-m29_o80_o90_f0_pts.sym.84
_audit_creation_date              2022-05-24
_audit_creation_method            REPEAT_Assigner
_cell_length_a                    14.226455
_cell_length_b                    17.164135
_cell_length_c                    13.713928
_cell_angle_alpha                 108.018345
_cell_angle_beta                  92.174489
_cell_angle_gamma                 107.874499
_cell_volume                      2997.944246
_symmetry_space_group_name_H-M    P1
_symmetry_Int_Tables_number       1
loop_
    _symmetry_equiv_pos_site_id
    _symmetry_equiv_pos_as_xyz
    1  x,y,z
loop_
    _atom_site_type_symbol
    _atom_site_label
    _atom_site_fract_x
    _atom_site_fract_y
    _atom_site_fract_z
    _atom_type_partial_charge
    H   H1   0.890312  0.025407  0.359774  0.088018
    C   C1   0.728535  0.001134  0.857168  -0.065621
    C   C2   0.779209  0.985682  0.773935  -0.337661
    C   C3   0.867711  0.980861  0.810455  0.516454
    N   N1   0.874280  0.993957  0.912886  -0.497495
    C   C4   0.789052  0.006596  0.941923  0.355751
    C   C5   0.936198  0.965645  0.750371  -0.411682
    C   C6   0.035128  0.965347  0.785510  0.313871
    C   C7   0.110109  0.969007  0.725161  -0.231978
    C   C8   0.192896  0.972595  0.784246  -0.155071
    C   C9   0.164961  0.971295  0.880126  0.299760
    N   N2   0.067621  0.964592  0.878553  -0.250158
    C   C10  0.231048  0.978432  0.970847  -0.308799
    C   C11  0.210179  0.997623  0.068240  0.407113
    C   C12  0.273578  0.008216  0.153485  -0.198234
    C   C13  0.226457  0.029037  0.238259  -0.061850
    C   C14  0.135262  0.029889  0.202024  0.235027
    N   N3   0.125141  0.010552  0.098189  -0.468791
    C   C15  0.066894  0.046151  0.262719  0.080365
    C   C16  0.964654  0.038084  0.224372  0.070213
    C   C17  0.887580  0.028557  0.282303  -0.081830
    C   C18  0.804392  0.023013  0.222435  -0.152727
    C   C19  0.833301  0.028342  0.128356  0.297593
    N   N4   0.932047  0.039719  0.131721  -0.221575
    C   C20  0.767037  0.022756  0.038601  -0.310698
    H   H2   0.753298  0.976283  0.694755  0.202504
    H   H3   0.920292  0.957906  0.669341  0.179962
    H   H4   0.104954  0.970662  0.647019  0.175861
    H   H5   0.302875  0.971007  0.958557  0.185545
    H   H6   0.257797  0.042304  0.316817  0.045911
    H   H7   0.695431  0.030529  0.051112  0.193935
    H   H8   0.023347  0.955353  0.935031  0.215605
    H   H9   0.977229  0.054086  0.077619  0.244725
    O   O1   0.627960  0.010274  0.207486  -0.581394
    C   C21  0.708574  0.014733  0.261866  0.634622
    O   O2   0.512910  0.831255  0.224422  -0.525907
    O   O3   0.704143  0.013228  0.356657  -0.510685
    O   O4   0.498996  0.921592  0.378310  -0.434120
    C   C22  0.501562  0.845056  0.322151  0.515534
    Fe  Fe1  0.520526  0.999794  0.295076  1.439023
    O   O5   0.390062  0.948720  0.200030  -0.600506
    O   O6   0.448863  0.078215  0.175086  -0.543649
    C   C23  0.374999  0.006047  0.162171  0.714943
    O   O7   0.560514  0.121742  0.395314  -0.582005
    O   O8   0.410413  0.059816  0.438658  -0.494208
    C   C24  0.490311  0.128069  0.453882  0.634019
    C   C25  0.496840  0.211371  0.531460  -0.034147
    C   C26  0.502842  0.280773  0.497614  0.030433
    H   H10  0.507822  0.272771  0.416871  0.072982
    C   C27  0.493808  0.356627  0.563950  -0.388148
    C   C28  0.484073  0.364382  0.665814  0.047234
    H   H11  0.478601  0.423202  0.720080  0.054793
    C   C29  0.481723  0.297263  0.700958  -0.095926
    H   H12  0.474635  0.306511  0.781537  0.125932
    C   C30  0.486406  0.219740  0.634793  0.038667
    N   N5   0.455056  0.488683  0.585804  -0.243098
    N   N6   0.452886  0.554393  0.556163  -0.365441
    C   C31  0.487063  0.562050  0.468389  1.000697
    N   N7   0.519756  0.499829  0.408786  -0.342536
    N   N8   0.521292  0.433507  0.438032  -0.242375
    C   C32  0.490218  0.427927  0.527879  0.772913
    C   C33  0.483496  0.626135  0.332009  0.031669
    H   H13  0.477035  0.564045  0.275574  0.083949
    C   C34  0.487302  0.694109  0.297567  -0.094775
    H   H14  0.484257  0.682372  0.215273  0.138747
    C   C35  0.494493  0.774939  0.365865  -0.004511
    C   C36  0.496550  0.786152  0.471406  0.030038
    C   C37  0.495622  0.718059  0.506296  0.236563
    C   C38  0.487764  0.636780  0.436126  -0.572911
    O   O9   0.608457  0.053084  0.801352  -0.630311
    O   O10  0.553381  0.931319  0.844494  -0.554186
    C   C39  0.626139  0.001144  0.846864  0.672743
    O   O11  0.436961  0.877941  0.608690  -0.624864
    O   O12  0.587827  0.937234  0.563961  -0.529396
    C   C40  0.506688  0.870211  0.549616  0.582764
    O   O13  0.463805  0.161783  0.774535  -0.519904
    O   O14  0.370882  0.988478  0.798689  -0.586126
    C   C41  0.287852  0.978352  0.743213  0.669249
    O   O15  0.493732  0.077535  0.624939  -0.455165
    C   C42  0.480874  0.150333  0.678617  0.502890
    O   O16  0.289985  0.975584  0.646683  -0.524300
    Fe  Fe2  0.476339  0.000043  0.708725  1.484006
    S   S1   0.517418  0.741977  0.643930  0.077342
    C   C43  0.649772  0.757693  0.645336  -0.040034
    H   H15  0.688617  0.792426  0.726042  0.082352
    H   H16  0.681337  0.797469  0.596685  0.016993
    H   H17  0.661207  0.693895  0.616161  0.031551
    S   S2   0.096731  0.070627  0.399627  -0.048918
    C   C44  0.129814  0.186815  0.425807  -0.076919
    H   H18  0.185552  0.222199  0.497008  0.082505
    H   H19  0.062206  0.205954  0.436723  0.050641
    H   H20  0.163297  0.203701  0.360205  0.036630
