data_DB0-m3_o12_o29_f0_pcu.sym.59_repeat
_audit_creation_date              2024-02-20
_audit_creation_method            'Materials Studio'
_symmetry_space_group_name_H-M    'P1'
_symmetry_Int_Tables_number       1
_symmetry_cell_setting            triclinic
loop_
_symmetry_equiv_pos_as_xyz
  x,y,z
_cell_length_a                    10.0042
_cell_length_b                    11.2487
_cell_length_c                    27.6542
_cell_angle_alpha                 89.9796
_cell_angle_beta                  80.7829
_cell_angle_gamma                 92.4462
loop_
_atom_site_label
_atom_site_type_symbol
_atom_site_fract_x
_atom_site_fract_y
_atom_site_fract_z
_atom_site_U_iso_or_equiv
_atom_site_adp_type
_atom_site_occupancy
O1     O     0.41477   0.69243   0.50544   0.00000  Uiso   1.00
O2     O     0.56410   0.31104   0.49590   0.00000  Uiso   1.00
O3     O     0.64428   0.66128   0.49141   0.00000  Uiso   1.00
O4     O     0.33459   0.34219   0.50980   0.00000  Uiso   1.00
C1     C     0.54178   0.73172   0.49773   0.00000  Uiso   1.00
C2     C     0.43709   0.27176   0.50355   0.00000  Uiso   1.00
O5     O     0.37702   0.51658   0.57953   0.00000  Uiso   1.00
O6     O     0.60181   0.48671   0.42175   0.00000  Uiso   1.00
O7     O     0.60641   0.48554   0.56560   0.00000  Uiso   1.00
O8     O     0.37250   0.51810   0.43568   0.00000  Uiso   1.00
C3     C     0.49213   0.50087   0.59519   0.00000  Uiso   1.00
C4     C     0.48674   0.50259   0.40609   0.00000  Uiso   1.00
Zn1    Zn    0.33819   0.52243   0.50987   0.00000  Uiso   1.00
Zn2    Zn    0.64068   0.48104   0.49141   0.00000  Uiso   1.00
C5     C     0.55898   0.58609   0.82041   0.00000  Uiso   1.00
C6     C     0.40530   0.42740   0.18149   0.00000  Uiso   1.00
O9     O     0.62261   0.67489   0.79198   0.00000  Uiso   1.00
O10    O     0.32658   0.34784   0.21061   0.00000  Uiso   1.00
N1     N     0.49319   0.49752   0.80003   0.00000  Uiso   1.00
N2     N     0.48628   0.50578   0.20112   0.00000  Uiso   1.00
C7     C     0.42619   0.40872   0.82778   0.00000  Uiso   1.00
C8     C     0.56817   0.58478   0.17253   0.00000  Uiso   1.00
C9     C     0.37331   0.50852   0.73036   0.00000  Uiso   1.00
C10    C     0.36869   0.52553   0.28483   0.00000  Uiso   1.00
C11    C     0.37299   0.50976   0.68053   0.00000  Uiso   1.00
C12    C     0.36858   0.52461   0.33472   0.00000  Uiso   1.00
C13    C     0.61282   0.48979   0.66640   0.00000  Uiso   1.00
C14    C     0.60352   0.48242   0.32090   0.00000  Uiso   1.00
C15    C     0.61291   0.48930   0.71627   0.00000  Uiso   1.00
C16    C     0.60327   0.48316   0.27107   0.00000  Uiso   1.00
C17    C     0.49316   0.49831   0.74843   0.00000  Uiso   1.00
C18    C     0.48603   0.50491   0.25278   0.00000  Uiso   1.00
C19    C     0.49084   0.49797   0.89983   0.00000  Uiso   1.00
C20    C     0.48886   0.50539   0.10126   0.00000  Uiso   1.00
C21    C     0.55870   0.58739   0.87036   0.00000  Uiso   1.00
C22    C     0.40529   0.42651   0.13155   0.00000  Uiso   1.00
C23    C     0.62384   0.67962   0.89099   0.00000  Uiso   1.00
C24    C     0.32064   0.34730   0.11193   0.00000  Uiso   1.00
C25    C     0.42370   0.40724   0.87838   0.00000  Uiso   1.00
C26    C     0.57164   0.58560   0.12189   0.00000  Uiso   1.00
C27    C     0.49276   0.50016   0.64822   0.00000  Uiso   1.00
C28    C     0.48614   0.50317   0.35306   0.00000  Uiso   1.00
H1     H     0.70787   0.48220   0.64202   0.00000  Uiso   1.00
H2     H     0.69673   0.46493   0.33415   0.00000  Uiso   1.00
H3     H     0.70723   0.48057   0.73008   0.00000  Uiso   1.00
H4     H     0.69541   0.46556   0.24638   0.00000  Uiso   1.00
H5     H     0.67434   0.75270   0.86899   0.00000  Uiso   1.00
H6     H     0.25119   0.28686   0.13493   0.00000  Uiso   1.00
C29    C     0.56940   0.58615   0.02091   0.00000  Uiso   1.00
C30    C     0.41758   0.41239   0.97980   0.00000  Uiso   1.00
C31    C     0.40961   0.41897   0.03075   0.00000  Uiso   1.00
C32    C     0.56281   0.58928   0.97071   0.00000  Uiso   1.00
C33    C     0.48903   0.50374   0.05090   0.00000  Uiso   1.00
C34    C     0.49013   0.50002   0.95022   0.00000  Uiso   1.00
C35    C     0.65693   0.66252   0.04172   0.00000  Uiso   1.00
C36    C     0.35639   0.31843   0.95762   0.00000  Uiso   1.00
C37    C     0.65656   0.66489   0.09165   0.00000  Uiso   1.00
C38    C     0.35601   0.31648   0.90772   0.00000  Uiso   1.00
O11    O     0.64337   0.66443   0.19397   0.00000  Uiso   1.00
O12    O     0.36377   0.32125   0.80558   0.00000  Uiso   1.00
C39    C     0.62557   0.68112   0.94044   0.00000  Uiso   1.00
C40    C     0.32198   0.34375   0.06232   0.00000  Uiso   1.00
H7     H     0.27553   0.54148   0.35897   0.00000  Uiso   1.00
H8     H     0.27770   0.51804   0.66741   0.00000  Uiso   1.00
H9     H     0.27651   0.54374   0.27095   0.00000  Uiso   1.00
H10    H     0.27915   0.51672   0.75524   0.00000  Uiso   1.00
H11    H     0.73454   0.71631   0.01949   0.00000  Uiso   1.00
H12    H     0.31547   0.24016   0.97794   0.00000  Uiso   1.00
H13    H     0.67370   0.75900   0.95379   0.00000  Uiso   1.00
H14    H     0.24846   0.28283   0.05030   0.00000  Uiso   1.00
H15    H     0.61160   0.09679   0.49337   0.00000  Uiso   1.00
H16    H     0.36727   0.90668   0.50794   0.00000  Uiso   1.00
C41    C     0.57164   0.86050   0.49594   0.00000  Uiso   1.00
C42    C     0.40723   0.14297   0.50534   0.00000  Uiso   1.00
C43    C     0.47273   0.93757   0.50171   0.00000  Uiso   1.00
C44    C     0.50614   0.06591   0.49959   0.00000  Uiso   1.00
H17    H     0.30233   0.11034   0.51157   0.00000  Uiso   1.00
H18    H     0.67654   0.89313   0.48969   0.00000  Uiso   1.00
H19    H     0.10633   0.43004   0.46955   0.00000  Uiso   1.00
H20    H     0.87255   0.57345   0.53172   0.00000  Uiso   1.00
N3     N     0.83936   0.45318   0.47898   0.00000  Uiso   1.00
N4     N     0.13952   0.55030   0.52230   0.00000  Uiso   1.00
C45    C     0.91623   0.51093   0.50446   0.00000  Uiso   1.00
C46    C     0.06264   0.49255   0.49681   0.00000  Uiso   1.00
H21    H     0.09213   0.60841   0.54749   0.00000  Uiso   1.00
H22    H     0.88674   0.39506   0.45380   0.00000  Uiso   1.00
O13    O     0.74425   0.73952   0.11035   0.00000  Uiso   1.00
C47    C     0.77520   0.85280   0.09482   0.00000  Uiso   1.00
O14    O     0.70345   0.90363   0.07041   0.00000  Uiso   1.00
C48    C     0.89177   0.91940   0.11108   0.00000  Uiso   1.00
H23    H     0.94229   0.86047   0.13405   0.00000  Uiso   1.00
H24    H     0.85470   0.99775   0.13273   0.00000  Uiso   1.00
H25    H     0.96514   0.94959   0.07856   0.00000  Uiso   1.00
O15    O     0.29589   0.22331   0.88758   0.00000  Uiso   1.00
C49    C     0.17697   0.16897   0.90786   0.00000  Uiso   1.00
O16    O     0.10098   0.21714   0.94017   0.00000  Uiso   1.00
C50    C     0.13324   0.05353   0.88775   0.00000  Uiso   1.00
H26    H     0.21276   0.02532   0.85781   0.00000  Uiso   1.00
H27    H     0.03731   0.06418   0.87323   0.00000  Uiso   1.00
H28    H     0.11709   0.98510   0.91723   0.00000  Uiso   1.00
