# Generated by REPEAT Assigner based on pymatgen
data_DB0-m3_o146_o156_f0_fsc.sym.113
_audit_creation_date              2022-05-24
_audit_creation_method            REPEAT_Assigner
_cell_length_a                    15.396342
_cell_length_b                    11.737314
_cell_length_c                    17.466476
_cell_angle_alpha                 90.156197
_cell_angle_beta                  90.006435
_cell_angle_gamma                 90.000000
_cell_volume                      3156.384975
_symmetry_space_group_name_H-M    P1
_symmetry_Int_Tables_number       1
loop_
    _symmetry_equiv_pos_site_id
    _symmetry_equiv_pos_as_xyz
    1  x,y,z
loop_
    _atom_site_type_symbol
    _atom_site_label
    _atom_site_fract_x
    _atom_site_fract_y
    _atom_site_fract_z
    _atom_type_partial_charge
    C   C1   0.307898  0.742836  0.002639  -0.127878
    C   C2   0.692102  0.257164  0.997360  -0.127505
    C   C3   0.078836  0.944130  0.008777  0.012695
    C   C4   0.921164  0.055870  0.991223  0.012767
    C   C5   0.185206  0.816877  0.072128  -0.117767
    C   C6   0.814794  0.183123  0.927871  -0.117865
    C   C7   0.284420  0.809872  0.940283  0.089298
    C   C8   0.715580  0.190129  0.059717  0.088987
    C   C9   0.258419  0.749422  0.068814  -0.033484
    C   C10  0.741581  0.250578  0.931186  -0.033395
    H   H1   0.274559  0.699004  0.118470  0.114321
    H   H2   0.725441  0.300996  0.881529  0.114260
    C   C11  0.160752  0.880375  0.009322  0.184738
    C   C12  0.839248  0.119625  0.990678  0.184602
    C   C13  0.211236  0.877337  0.944182  -0.204960
    C   C14  0.788764  0.122663  0.055818  -0.204767
    H   H3   0.192261  0.926158  0.894531  0.133759
    H   H4   0.807739  0.073842  0.105469  0.133724
    C   C15  0.300784  0.270480  0.996255  -0.076642
    C   C16  0.699216  0.729520  0.003745  -0.076589
    C   C17  0.077167  0.060581  0.996035  -0.044887
    C   C18  0.922833  0.939419  0.003965  -0.045030
    C   C19  0.177676  0.191772  0.931156  -0.195991
    C   C20  0.822324  0.808228  0.068844  -0.196179
    H   H5   0.137294  0.186956  0.880611  0.128189
    H   H6   0.862706  0.813044  0.119389  0.128230
    C   C21  0.279475  0.208011  0.060573  -0.068991
    C   C22  0.720525  0.791990  0.939427  -0.068991
    H   H7   0.318001  0.214343  0.112135  0.098279
    H   H8   0.681999  0.785657  0.887865  0.098311
    C   C23  0.250081  0.260889  0.931199  -0.089382
    C   C24  0.749919  0.739111  0.068801  -0.089315
    H   H9   0.264713  0.309922  0.880541  0.113959
    H   H10  0.735287  0.690079  0.119459  0.113944
    C   C25  0.156853  0.128776  0.995121  0.244687
    C   C26  0.843148  0.871224  0.004878  0.245053
    C   C27  0.208236  0.136695  0.059715  -0.225925
    C   C28  0.791764  0.863306  0.940284  -0.226258
    H   H11  0.191308  0.089683  0.110708  0.118017
    H   H12  0.808692  0.910317  0.889292  0.118130
    C   C29  0.001531  0.884593  0.012515  -0.140140
    C   C30  0.998469  0.115407  0.987485  -0.140190
    H   H13  0.002759  0.793073  0.019246  0.101251
    H   H14  0.997241  0.206927  0.980754  0.101278
    O   O1   0.596800  0.609834  0.067345  -0.642045
    O   O2   0.403200  0.390167  0.932655  -0.642044
    O   O3   0.594141  0.618756  0.935569  -0.662476
    O   O4   0.405859  0.381245  0.064430  -0.662486
    C   C31  0.625832  0.649931  0.002159  0.709487
    C   C32  0.374168  0.350069  0.997841  0.709542
    O   O5   0.592424  0.381696  0.934380  -0.613884
    O   O6   0.407576  0.618305  0.065620  -0.613919
    O   O7   0.588616  0.373783  0.065833  -0.542960
    O   O8   0.411384  0.626218  0.934166  -0.543040
    C   C33  0.619434  0.339224  0.999624  0.651456
    C   C34  0.380566  0.660776  0.000376  0.651730
    Zn  Zn1  0.501305  0.501492  0.915140  0.987925
    Zn  Zn2  0.498695  0.498508  0.084859  0.987921
    C   C35  0.492169  0.403485  0.776636  -0.103117
    C   C36  0.507831  0.596515  0.223364  -0.103063
    N   N1   0.502060  0.502733  0.814717  -0.036041
    N   N2   0.497940  0.497267  0.185283  -0.036066
    C   C37  0.512335  0.601229  0.776239  -0.130471
    C   C38  0.487665  0.398771  0.223761  -0.130521
    C   C39  0.481060  0.299891  0.658632  -0.342332
    C   C40  0.518940  0.700109  0.341367  -0.342374
    C   C41  0.491588  0.401404  0.697645  0.192062
    C   C42  0.508412  0.598596  0.302355  0.192053
    C   C43  0.501450  0.501346  0.657728  -0.051136
    C   C44  0.498550  0.498655  0.342272  -0.051124
    C   C45  0.512051  0.601937  0.697185  0.202140
    C   C46  0.487949  0.398063  0.302815  0.202150
    C   C47  0.522133  0.702735  0.657617  -0.334799
    C   C48  0.477867  0.297265  0.342383  -0.334795
    C   C49  0.469615  0.197741  0.540259  -0.211839
    C   C50  0.530385  0.802259  0.459741  -0.211854
    C   C51  0.480274  0.298946  0.579578  0.209322
    C   C52  0.519726  0.701054  0.420422  0.209361
    C   C53  0.490118  0.399430  0.539733  0.001933
    C   C54  0.509882  0.600570  0.460267  0.001923
    C   C55  0.468775  0.197094  0.461312  -0.217981
    C   C56  0.531225  0.802907  0.538688  -0.218034
    C   C57  0.478628  0.297645  0.421454  0.224142
    C   C58  0.521372  0.702355  0.578546  0.224176
    C   C59  0.500774  0.500666  0.578864  0.005304
    C   C60  0.499226  0.499335  0.421136  0.005303
    C   C61  0.510677  0.601232  0.539216  -0.017767
    C   C62  0.489323  0.398769  0.460784  -0.017762
    H   H15  0.484821  0.324917  0.808054  0.119116
    H   H16  0.515179  0.675084  0.191945  0.119115
    H   H17  0.473294  0.221223  0.689934  0.158843
    H   H18  0.526707  0.778777  0.310066  0.158854
    H   H19  0.530481  0.781927  0.688489  0.149976
    H   H20  0.469519  0.218073  0.311511  0.149987
    H   H21  0.461865  0.118613  0.571038  0.140583
    H   H22  0.538135  0.881388  0.428961  0.140593
    H   H23  0.460393  0.117462  0.430959  0.145863
    H   H24  0.539607  0.882538  0.569041  0.145901
    H   H25  0.520767  0.680112  0.807297  0.195763
    H   H26  0.479233  0.319888  0.192703  0.195784
    C   C63  0.135423  0.820590  0.141643  0.395016
    N   N3   0.095410  0.823520  0.197687  -0.461186
    C   C64  0.864577  0.179410  0.858357  0.395066
    N   N4   0.904590  0.176480  0.802313  -0.461195
    C   C65  0.334178  0.813676  0.870794  0.280290
    N   N5   0.373678  0.817790  0.814533  -0.414534
    C   C66  0.665822  0.186324  0.129206  0.280357
    N   N6   0.626322  0.182210  0.185467  -0.414542
