# Generated by REPEAT Assigner based on pymatgen
data_DB0-m3_o460_o13_f0_fsc.sym.2_sqe
_audit_creation_date              2022-05-24
_audit_creation_method            REPEAT_Assigner
_cell_length_a                    8.534373
_cell_length_b                    8.841684
_cell_length_c                    11.498978
_cell_angle_alpha                 95.162971
_cell_angle_beta                  90.068699
_cell_angle_gamma                 82.154671
_cell_volume                      856.029499
_symmetry_space_group_name_H-M    P1
_symmetry_Int_Tables_number       1
loop_
    _symmetry_equiv_pos_site_id
    _symmetry_equiv_pos_as_xyz
    1  x,y,z
loop_
    _atom_site_type_symbol
    _atom_site_label
    _atom_site_fract_x
    _atom_site_fract_y
    _atom_site_fract_z
    _atom_type_partial_charge
    C   C1   0.901300  0.197582  0.013813  -0.102118
    C   C2   0.098701  0.802419  0.986186  -0.102125
    C   C3   0.030517  0.274076  0.019049  -0.236287
    C   C4   0.969483  0.725924  0.980951  -0.236283
    H   H1   0.013060  0.395920  0.035605  0.147024
    H   H2   0.986941  0.604081  0.964395  0.147021
    C   C5   0.180623  0.199021  0.999462  0.045332
    C   C6   0.819377  0.800980  0.000537  0.045328
    C   C7   0.205190  0.041052  0.988831  -0.357658
    C   C8   0.794810  0.958949  0.011168  -0.357655
    H   H3   0.324205  0.981769  0.976834  0.137621
    H   H4   0.675795  0.018232  0.023165  0.137625
    C   C9   0.076723  0.960882  0.994886  0.189826
    C   C10  0.923277  0.039118  0.005114  0.189826
    O   O1   0.314901  0.638360  0.892471  -0.626319
    O   O2   0.685100  0.361641  0.107529  -0.626309
    O   O3   0.309315  0.678125  0.093431  -0.589539
    O   O4   0.690685  0.321876  0.906568  -0.589522
    C   C11  0.253575  0.709015  0.990365  0.754029
    C   C12  0.746425  0.290986  0.009634  0.754000
    O   O5   0.345324  0.363159  0.095627  -0.720449
    O   O6   0.654676  0.636841  0.904372  -0.720445
    O   O7   0.363243  0.321981  0.894682  -0.713889
    O   O8   0.636757  0.678019  0.105318  -0.713883
    C   C13  0.308930  0.292665  0.996324  0.848036
    C   C14  0.691070  0.707336  0.003676  0.848023
    Zn  Zn1  0.492290  0.521031  0.130613  0.991985
    Zn  Zn2  0.507711  0.478970  0.869387  0.991983
    N   N1   0.520067  0.459103  0.715492  -0.112919
    N   N2   0.479934  0.540897  0.284508  -0.112925
    C   C15  0.427322  0.691669  0.466983  -0.243835
    C   C16  0.572678  0.308331  0.533016  -0.243841
    C   C17  0.434830  0.679295  0.346556  0.184050
    C   C18  0.565170  0.320705  0.653444  0.184045
    C   C19  0.519003  0.415468  0.347006  0.208980
    C   C20  0.480997  0.584532  0.652994  0.208980
    C   C21  0.523246  0.431098  0.469484  0.022770
    C   C22  0.476755  0.568902  0.530515  0.022757
    H   H5   0.378181  0.801664  0.508609  0.143686
    H   H6   0.621820  0.198337  0.491391  0.143688
    C   C23  0.447117  0.746563  0.708938  -0.288657
    H   H7   0.476984  0.768486  0.800051  0.126243
    H   H8   0.521322  0.818559  0.665117  0.089983
    H   H9   0.320090  0.790241  0.699033  0.093598
    C   C24  0.552883  0.253438  0.291062  -0.288651
    H   H10  0.523016  0.231514  0.199949  0.126239
    H   H11  0.679911  0.209760  0.300966  0.093597
    H   H12  0.478679  0.181442  0.334883  0.089981
    C   C25  0.619619  0.174778  0.707644  -0.234306
    H   H13  0.608153  0.075289  0.643975  0.053565
    H   H14  0.747139  0.167791  0.728479  0.085196
    H   H15  0.547138  0.157234  0.782857  0.104071
    C   C26  0.380382  0.825223  0.292356  -0.234318
    H   H16  0.391847  0.924711  0.356025  0.053569
    H   H17  0.452863  0.842767  0.217143  0.104075
    H   H18  0.252861  0.832210  0.271521  0.085197
