# Generated by REPEAT Assigner based on pymatgen
data_DB0-m2_o11_o11_f0_nbo.sym.58
_audit_creation_date              2022-05-24
_audit_creation_method            REPEAT_Assigner
_cell_length_a                    19.055123
_cell_length_b                    18.945796
_cell_length_c                    18.928078
_cell_angle_alpha                 109.374900
_cell_angle_beta                  109.609284
_cell_angle_gamma                 109.584109
_cell_volume                      5250.202117
_symmetry_space_group_name_H-M    P1
_symmetry_Int_Tables_number       1
loop_
    _symmetry_equiv_pos_site_id
    _symmetry_equiv_pos_as_xyz
    1  x,y,z
loop_
    _atom_site_type_symbol
    _atom_site_label
    _atom_site_fract_x
    _atom_site_fract_y
    _atom_site_fract_z
    _atom_type_partial_charge
    O   O1   0.420241  0.858161  0.952595  -0.614715
    O   O2   0.579759  0.141838  0.047405  -0.614729
    O   O3   0.418166  0.960827  0.058466  -0.585593
    O   O4   0.581834  0.039173  0.941534  -0.585612
    C   C1   0.393746  0.880306  0.007668  0.733306
    C   C2   0.606254  0.119694  0.992332  0.733379
    O   O5   0.601503  0.963668  0.042935  -0.608527
    O   O6   0.398497  0.036331  0.957065  -0.608466
    O   O7   0.589351  0.060470  0.143836  -0.595498
    O   O8   0.410649  0.939530  0.856164  -0.595578
    C   C3   0.625939  0.015674  0.123254  0.739115
    C   C4   0.374061  0.984325  0.876746  0.739108
    Cu  Cu1  0.504352  0.941009  0.941877  0.983024
    Cu  Cu2  0.495648  0.058991  0.058123  0.983323
    C   C5   0.820667  0.006216  0.252277  -0.021888
    C   C6   0.179333  0.993784  0.747723  -0.021908
    C   C7   0.807488  0.983241  0.308164  -0.302681
    C   C8   0.192512  0.016759  0.691836  -0.302666
    H   H1   0.882198  0.024728  0.254877  0.118723
    H   H2   0.117802  0.975272  0.745123  0.118729
    H   H3   0.743583  0.955533  0.300063  0.176684
    H   H4   0.256417  0.044466  0.699937  0.176671
    C   C9   0.750510  0.998629  0.181040  -0.002560
    C   C10  0.249491  0.001371  0.818960  -0.002559
    C   C11  0.695334  0.022226  0.193836  -0.304157
    C   C12  0.304666  0.977774  0.806164  -0.304136
    H   H5   0.748092  0.979530  0.119210  0.115236
    H   H6   0.251908  0.020469  0.880790  0.115239
    H   H7   0.703179  0.049864  0.257983  0.172073
    H   H8   0.296821  0.950135  0.742017  0.172074
    C   C13  0.263272  0.761677  0.087128  -0.002300
    C   C14  0.736728  0.238323  0.912872  -0.002341
    C   C15  0.187492  0.697105  0.016227  -0.256643
    C   C16  0.812508  0.302895  0.983773  -0.256667
    H   H9   0.170101  0.699903  0.956935  0.171920
    H   H10  0.829899  0.300096  0.043065  0.171935
    C   C17  0.320475  0.830235  0.079545  -0.059130
    C   C18  0.679525  0.169764  0.920455  -0.058989
    C   C19  0.334822  0.811592  0.013007  -0.262062
    C   C20  0.665178  0.188407  0.986993  -0.262208
    H   H11  0.354544  0.896746  0.131193  0.141368
    H   H12  0.645456  0.103253  0.868808  0.141319
    H   H13  0.306457  0.744880  0.964239  0.159018
    H   H14  0.693543  0.255119  0.035762  0.159058
    O   O9   0.041039  0.139604  0.581468  -0.614639
    O   O10  0.958961  0.860395  0.418532  -0.614594
    O   O11  0.947197  0.032137  0.589683  -0.600873
    O   O12  0.052803  0.967863  0.410316  -0.600885
    C   C21  0.992216  0.113514  0.612924  0.735762
    C   C22  0.007784  0.886486  0.387076  0.735715
    O   O13  0.957233  0.043828  0.403675  -0.589640
    O   O14  0.042767  0.956171  0.596325  -0.589598
    O   O15  0.857737  0.940871  0.411515  -0.622498
    O   O16  0.142263  0.059128  0.588485  -0.622524
    C   C23  0.877656  0.989482  0.377686  0.752379
    C   C24  0.122344  0.010517  0.622314  0.752362
    Cu  Cu3  0.057360  0.062412  0.498368  0.988093
    Cu  Cu4  0.942640  0.937587  0.501631  0.988195
    O   O17  0.041720  0.586603  0.139466  -0.563926
    O   O18  0.958280  0.413397  0.860534  -0.563937
    O   O19  0.935520  0.577900  0.026746  -0.623840
    O   O20  0.064480  0.422100  0.973254  -0.623835
    C   C25  0.984469  0.608260  0.109594  0.733485
    C   C26  0.015531  0.391739  0.890406  0.733494
    O   O21  0.141425  0.599221  0.067824  -0.500915
    O   O22  0.858575  0.400779  0.932176  -0.500905
    O   O23  0.041026  0.591064  0.951142  -0.593718
    O   O24  0.958974  0.408936  0.048858  -0.593723
    C   C27  0.120488  0.626518  0.012930  0.662003
    C   C28  0.879512  0.373482  0.987070  0.662011
    Cu  Cu5  0.058460  0.501945  0.064810  0.961287
    Cu  Cu6  0.941540  0.498055  0.935189  0.961223
    C   C29  0.000072  0.318077  0.748965  -0.018030
    C   C30  0.999928  0.681923  0.251035  -0.018047
    C   C31  0.024325  0.329382  0.828549  -0.272434
    C   C32  0.975675  0.670617  0.171451  -0.272401
    H   H15  0.978720  0.359108  0.731325  0.110253
    H   H16  0.021281  0.640891  0.268674  0.110255
    H   H17  0.054477  0.295278  0.849738  0.159927
    H   H18  0.945522  0.704721  0.150261  0.159913
    C   C33  0.008445  0.255585  0.686206  -0.014063
    C   C34  0.991555  0.744415  0.313794  -0.014061
    C   C35  0.988237  0.177750  0.678217  -0.284705
    C   C36  0.011763  0.822250  0.321783  -0.284675
    H   H19  0.024037  0.270731  0.641119  0.119727
    H   H20  0.975963  0.729267  0.358880  0.119731
    H   H21  0.963344  0.158908  0.716713  0.170148
    H   H22  0.036656  0.841090  0.283286  0.170131
    C   C37  0.288825  0.772469  0.175843  0.678147
    F   F1   0.363551  0.850913  0.236938  -0.225535
    F   F2   0.304506  0.707451  0.180209  -0.221182
    F   F3   0.224542  0.770983  0.194937  -0.220089
    C   C38  0.711175  0.227530  0.824157  0.678140
    F   F4   0.636449  0.149087  0.763062  -0.225529
    F   F5   0.775458  0.229017  0.805063  -0.220085
    F   F6   0.695494  0.292548  0.819791  -0.221180
