# Generated by REPEAT Assigner based on pymatgen
data_DB0-m3_o14_o47_f0_fsc.sym.38
_audit_creation_date              2022-05-24
_audit_creation_method            REPEAT_Assigner
_cell_length_a                    8.615724
_cell_length_b                    9.305256
_cell_length_c                    11.255842
_cell_angle_alpha                 90.527617
_cell_angle_beta                  80.690077
_cell_angle_gamma                 92.602306
_cell_volume                      889.591376
_symmetry_space_group_name_H-M    P1
_symmetry_Int_Tables_number       1
loop_
    _symmetry_equiv_pos_site_id
    _symmetry_equiv_pos_as_xyz
    1  x,y,z
loop_
    _atom_site_type_symbol
    _atom_site_label
    _atom_site_fract_x
    _atom_site_fract_y
    _atom_site_fract_z
    _atom_type_partial_charge
    C   C1   0.899990  0.001932  0.256610  -0.169625
    C   C2   0.013421  0.986665  0.327688  -0.170105
    C   C3   0.171280  0.998975  0.282208  -0.034468
    C   C4   0.216714  0.020103  0.161081  -0.273727
    C   C5   0.107541  0.015175  0.084091  0.248541
    C   C6   0.948064  0.009097  0.131064  0.104189
    C   C7   0.159212  0.010689  0.960204  -0.346505
    C   C8   0.053924  0.006251  0.880495  0.098820
    C   C9   0.895247  0.006745  0.927337  0.325597
    C   C10  0.843428  0.002070  0.050568  -0.390424
    C   C11  0.101806  0.002321  0.755031  -0.139111
    C   C12  0.987593  0.004940  0.682714  -0.154319
    C   C13  0.829917  0.009427  0.729244  -0.029078
    C   C14  0.785575  0.012298  0.851072  -0.322756
    H   H1   0.973894  0.967692  0.421000  0.146097
    H   H2   0.338518  0.038075  0.127075  0.152335
    H   H3   0.026696  0.008187  0.588155  0.122572
    H   H4   0.664102  0.024724  0.884615  0.159672
    O   O1   0.654793  0.883086  0.615671  -0.717474
    O   O2   0.658150  0.133539  0.621572  -0.673256
    C   C15  0.708393  0.008867  0.651383  0.824932
    O   O3   0.686809  0.127171  0.372828  -0.798063
    O   O4   0.671411  0.881894  0.367370  -0.784582
    C   C16  0.737356  0.004475  0.325468  1.051862
    O   O5   0.343758  0.120813  0.398895  -0.718480
    O   O6   0.338599  0.875400  0.394435  -0.770696
    C   C17  0.290004  0.997945  0.362223  0.916562
    O   O7   0.316748  0.876408  0.642050  -0.737044
    O   O8   0.330390  0.126595  0.646297  -0.706469
    C   C18  0.265599  0.001213  0.687659  0.928495
    Zn  Zn1  0.505904  0.163739  0.506488  1.023732
    Zn  Zn2  0.494850  0.842133  0.505808  1.062401
    H   H5   0.504498  0.375624  0.690582  0.197882
    C   C19  0.510833  0.353150  0.291237  -0.160607
    H   H6   0.526158  0.243437  0.281630  0.192013
    C   C20  0.499068  0.419259  0.186009  -0.044216
    H   H7   0.500536  0.357308  0.104150  0.114182
    C   C21  0.491719  0.563725  0.184081  -0.130044
    H   H8   0.485312  0.614923  0.099860  0.129629
    C   C22  0.497715  0.641805  0.287327  -0.103581
    H   H9   0.504972  0.753817  0.271841  0.118236
    C   C23  0.497404  0.575477  0.398830  0.100199
    C   C24  0.505552  0.426172  0.399800  0.130598
    N   N1   0.510262  0.353635  0.503654  0.056080
    C   C25  0.503898  0.430531  0.606455  -0.111640
    H   H10  0.492322  0.638260  0.689819  0.192702
    C   C26  0.495155  0.579711  0.606168  -0.146291
    N   N2   0.491055  0.652336  0.503416  0.083497
    C   C27  0.677588  0.973244  0.092886  0.765402
    O   O9   0.600304  0.066347  0.145963  -0.478930
    O   O10  0.603327  0.852163  0.050659  -0.551617
    H   H11  0.485692  0.854552  0.076221  0.347929
    C   C28  0.324686  0.999269  0.912088  0.693270
    O   O11  0.409729  0.107870  0.896419  -0.468784
    O   O12  0.378043  0.866696  0.868662  -0.543273
    H   H12  0.489839  0.875790  0.825037  0.387739
