# Generated by REPEAT Assigner based on pymatgen
data_DB0-m9_o13_o17_f0_sra.sym.38_sqe
_audit_creation_date              2022-05-24
_audit_creation_method            REPEAT_Assigner
_cell_length_a                    20.360900
_cell_length_b                    6.818000
_cell_length_c                    18.945900
_cell_angle_alpha                 90.000000
_cell_angle_beta                  98.406314
_cell_angle_gamma                 90.000000
_cell_volume                      2601.824572
_symmetry_space_group_name_H-M    P1
_symmetry_Int_Tables_number       1
loop_
    _symmetry_equiv_pos_site_id
    _symmetry_equiv_pos_as_xyz
    1  x,y,z
loop_
    _atom_site_type_symbol
    _atom_site_label
    _atom_site_fract_x
    _atom_site_fract_y
    _atom_site_fract_z
    _atom_type_partial_charge
    O  O1   0.674210  0.334488  0.690154  -0.488452
    O  O2   0.325812  0.674885  0.309916  -0.509387
    O  O3   0.825790  0.834488  0.809846  -0.488441
    O  O4   0.174189  0.174883  0.190084  -0.509394
    O  O5   0.808794  0.681780  0.674094  -0.585462
    O  O6   0.191328  0.327560  0.325828  -0.581612
    O  O7   0.691207  0.181779  0.825906  -0.585466
    O  O8   0.308672  0.827559  0.174173  -0.581607
    C  C1   0.834911  0.503521  0.668466  0.631032
    C  C2   0.165201  0.505574  0.331698  0.622490
    C  C3   0.665089  0.003521  0.831534  0.631018
    C  C4   0.334799  0.005575  0.168301  0.622491
    O  O9   0.674377  0.681565  0.667178  -0.519204
    O  O10  0.325728  0.327680  0.332614  -0.496881
    O  O11  0.825623  0.181566  0.832823  -0.519208
    O  O12  0.174273  0.827682  0.167386  -0.496882
    O  O13  0.682284  0.834796  0.802697  -0.568381
    O  O14  0.317677  0.174520  0.197052  -0.592516
    O  O15  0.817716  0.334797  0.697303  -0.568399
    O  O16  0.182323  0.674520  0.302949  -0.592520
    C  C5   0.649490  0.500067  0.659078  0.477422
    C  C6   0.350574  0.509197  0.340859  0.477091
    C  C7   0.850511  0.000067  0.840922  0.477413
    C  C8   0.149426  0.009197  0.159141  0.477107
    O  O17  0.755351  0.515257  0.793854  -0.479014
    O  O18  0.244590  0.494056  0.206312  -0.529872
    O  O19  0.744649  0.015258  0.706146  -0.479023
    O  O20  0.255410  0.994056  0.293688  -0.529858
    V  V1   0.747654  0.785228  0.737347  1.407165
    V  V2   0.252391  0.224099  0.262498  1.488404
    V  V3   0.752346  0.285228  0.762653  1.407043
    V  V4   0.247609  0.724097  0.237502  1.488479
    C  C9   0.091821  0.035699  0.103093  0.056450
    C  C10  0.908134  0.973460  0.896938  0.070405
    C  C11  0.408179  0.535699  0.396908  0.056495
    C  C12  0.591867  0.473460  0.603062  0.070406
    C  C13  0.989849  0.760338  0.961042  -0.251669
    C  C14  0.010147  0.248861  0.038935  -0.252047
    C  C15  0.510152  0.260338  0.538958  -0.251673
    C  C16  0.489853  0.748861  0.461065  -0.252030
    C  C17  0.936912  0.790277  0.907498  -0.115406
    C  C18  0.063050  0.218898  0.092508  -0.109887
    C  C19  0.563089  0.290276  0.592502  -0.115403
    C  C20  0.436950  0.718897  0.407492  -0.109919
    C  C21  0.932945  0.126896  0.940786  -0.255042
    C  C22  0.067052  0.882283  0.059213  -0.242560
    C  C23  0.567055  0.626895  0.559214  -0.255041
    C  C24  0.432948  0.382282  0.440786  -0.242584
    C  C25  0.985748  0.096257  0.994867  0.196993
    C  C26  0.014249  0.912923  0.005126  0.196759
    C  C27  0.514252  0.596257  0.505133  0.196983
    C  C28  0.485752  0.412924  0.494874  0.196764
    H  H1   0.089399  0.738529  0.066593  0.150776
    H  H2   0.910630  0.270673  0.933394  0.156985
    H  H3   0.410601  0.238529  0.433407  0.150786
    H  H4   0.589370  0.770673  0.566607  0.156978
    H  H5   0.082122  0.339884  0.126308  0.118847
    H  H6   0.917810  0.669284  0.873715  0.118000
    H  H7   0.417878  0.839884  0.373692  0.118856
    H  H8   0.582191  0.169283  0.626285  0.118001
    H  H9   0.012086  0.616543  0.968578  0.145370
    H  H10  0.987926  0.392690  0.031368  0.144845
    H  H11  0.487914  0.116543  0.531422  0.145369
    H  H12  0.512074  0.892690  0.468632  0.144843
    C  C29  0.549380  0.989083  0.857136  -0.333527
    C  C30  0.450344  0.012885  0.142495  -0.352529
    C  C31  0.950620  0.489084  0.642864  -0.333533
    C  C32  0.049657  0.512885  0.357505  -0.352560
    C  C33  0.616595  0.989513  0.882296  0.108328
    C  C34  0.383168  0.018987  0.117394  0.144515
    C  C35  0.883405  0.489514  0.617703  0.108335
    C  C36  0.116833  0.518987  0.382606  0.144556
    C  C37  0.637444  0.997661  0.955385  -0.310668
    C  C38  0.362256  0.026042  0.044207  -0.341501
    C  C39  0.862557  0.497661  0.544615  -0.310689
    C  C40  0.137743  0.526042  0.455793  -0.341523
    C  C41  0.590647  0.001621  0.002649  0.254214
    C  C42  0.409063  0.018333  0.996907  0.271199
    C  C43  0.909353  0.501622  0.497351  0.254232
    C  C44  0.090937  0.518334  0.503093  0.271221
    C  C45  0.523409  0.004898  0.976572  -0.062931
    C  C46  0.476306  0.012430  0.022981  -0.079952
    C  C47  0.976591  0.504898  0.523428  -0.062962
    C  C48  0.023695  0.512431  0.477019  -0.079948
    C  C49  0.503219  0.998441  0.903936  0.254222
    C  C50  0.496505  0.011412  0.095652  0.267356
    C  C51  0.996781  0.498442  0.596064  0.254246
    C  C52  0.003495  0.511412  0.404349  0.267366
    C  C53  0.609987  0.997877  0.075892  -0.241457
    C  C54  0.389690  0.009522  0.923680  -0.232293
    C  C55  0.890013  0.497877  0.424107  -0.241460
    C  C56  0.110310  0.509523  0.576320  -0.232313
    C  C57  0.563219  0.002842  0.121786  -0.205146
    C  C58  0.436444  0.000112  0.877830  -0.208106
    C  C59  0.936781  0.502842  0.378214  -0.205156
    C  C60  0.063555  0.500113  0.622170  -0.208111
    H  H13  0.532702  0.987038  0.800288  0.146077
    H  H14  0.466985  0.006239  0.199303  0.148713
    H  H15  0.967298  0.487040  0.699712  0.146075
    H  H16  0.033016  0.506238  0.300697  0.148715
    H  H17  0.661363  0.985854  0.098836  0.203535
    H  H18  0.338225  0.003315  0.900678  0.198740
    H  H19  0.838638  0.485854  0.401164  0.203541
    H  H20  0.161775  0.503316  0.599322  0.198747
    H  H21  0.579079  0.998419  0.178763  0.134666
    H  H22  0.420471  0.992341  0.820920  0.135650
    H  H23  0.920921  0.498418  0.321237  0.134670
    H  H24  0.079529  0.492342  0.679080  0.135647
    C  C61  0.709098  0.000910  0.981501  0.680104
    O  O21  0.730059  0.069869  0.039754  -0.533416
    C  C62  0.757203  0.921102  0.936635  -0.582899
    H  H25  0.742683  0.769476  0.919838  0.147599
    H  H26  0.807514  0.918976  0.968309  0.143787
    H  H27  0.758392  0.014652  0.889139  0.258311
    C  C63  0.290863  0.046856  0.017951  0.685082
    O  O22  0.272179  0.111560  0.958492  -0.529758
    C  C64  0.240322  0.001588  0.065052  -0.624252
    H  H28  0.247066  0.099219  0.112300  0.233726
    H  H29  0.244515  0.845595  0.081505  0.191373
    H  H30  0.190107  0.026923  0.034948  0.149631
    C  C65  0.790901  0.500909  0.518499  0.680131
    O  O23  0.769941  0.569866  0.460246  -0.533421
    C  C66  0.742797  0.421106  0.563366  -0.582943
    H  H31  0.757317  0.269481  0.580165  0.147607
    H  H32  0.692485  0.418978  0.531692  0.143796
    H  H33  0.741608  0.514659  0.610860  0.258319
    C  C67  0.209138  0.546856  0.482049  0.685078
    O  O24  0.227822  0.611559  0.541508  -0.529754
    C  C68  0.259678  0.501588  0.434948  -0.624242
    H  H34  0.252934  0.599219  0.387700  0.233721
    H  H35  0.255486  0.345596  0.418495  0.191376
    H  H36  0.309893  0.526923  0.465052  0.149621
