# Generated by REPEAT Assigner based on pymatgen
data_DB0-m29_o99_o143_f0_pts.sym.61
_audit_creation_date              2022-05-24
_audit_creation_method            REPEAT_Assigner
_cell_length_a                    15.912026
_cell_length_b                    16.994129
_cell_length_c                    11.769451
_cell_angle_alpha                 71.699183
_cell_angle_beta                  96.739303
_cell_angle_gamma                 98.121172
_cell_volume                      2982.280611
_symmetry_space_group_name_H-M    P1
_symmetry_Int_Tables_number       1
loop_
    _symmetry_equiv_pos_site_id
    _symmetry_equiv_pos_as_xyz
    1  x,y,z
loop_
    _atom_site_type_symbol
    _atom_site_label
    _atom_site_fract_x
    _atom_site_fract_y
    _atom_site_fract_z
    _atom_type_partial_charge
    C   C1   0.216053  0.012416  0.822670  -0.155545
    H   H1   0.227549  0.011250  0.734535  0.167614
    C   C2   0.133984  0.011051  0.849182  -0.167563
    H   H2   0.081616  0.007739  0.782862  0.147381
    C   C3   0.118649  0.014351  0.959869  0.294574
    C   C4   0.185402  0.017624  0.045073  -0.207891
    H   H3   0.171122  0.017855  0.132451  0.162388
    C   C5   0.268677  0.018359  0.019980  0.010991
    C   C6   0.283712  0.017597  0.905899  0.051882
    C   C7   0.032527  0.011962  0.986900  -0.139169
    C   C8   0.959860  0.009233  0.008723  -0.126233
    C   C9   0.807048  0.001774  0.950468  -0.241756
    H   H4   0.821977  0.004433  0.862054  0.169340
    C   C10  0.723154  0.995065  0.977396  0.108171
    C   C11  0.707441  0.990680  0.093751  -0.008154
    C   C12  0.774795  0.996803  0.177045  -0.137113
    H   H5   0.762685  0.994053  0.266755  0.159854
    C   C13  0.857348  0.003416  0.148849  -0.173129
    H   H6   0.909427  0.006366  0.215710  0.147911
    C   C14  0.873484  0.004949  0.036124  0.296050
    O   O1   0.530582  0.103856  0.632514  -0.539991
    C   C15  0.469830  0.123820  0.546456  0.593931
    O   O2   0.425561  0.086039  0.869471  -0.496865
    O   O3   0.399061  0.073453  0.548138  -0.488610
    O   O4   0.383776  0.968108  0.816085  -0.569194
    C   C16  0.368828  0.022272  0.867596  0.612670
    Fe  Fe1  0.496772  0.995021  0.750195  1.373493
    O   O5   0.574108  0.987411  0.899891  -0.412202
    O   O6   0.675475  0.009452  0.770187  -0.433295
    C   C17  0.655000  0.997048  0.879761  0.433061
    O   O7   0.501616  0.916637  0.654848  -0.444342
    O   O8   0.564709  0.843379  0.830134  -0.363184
    C   C18  0.532416  0.847489  0.721198  0.443941
    O   O9   0.478013  0.068663  0.354368  -0.402962
    O   O10  0.484004  0.161890  0.169382  -0.458616
    C   C19  0.477973  0.146067  0.284833  0.482604
    O   O11  0.413512  0.998422  0.107137  -0.447646
    O   O12  0.319695  0.022969  0.219209  -0.479928
    C   C20  0.337008  0.014965  0.117385  0.514408
    O   O13  0.589874  0.923737  0.464670  -0.505942
    O   O14  0.602899  0.031647  0.187502  -0.564714
    C   C21  0.622122  0.979897  0.134588  0.646766
    O   O15  0.465504  0.882738  0.371922  -0.580765
    C   C22  0.524231  0.867870  0.462000  0.587237
    O   O16  0.571004  0.911639  0.137443  -0.485839
    Fe  Fe2  0.490996  0.994420  0.255841  1.386185
    C   C23  0.520253  0.785508  0.552250  0.065540
    C   C24  0.510241  0.717755  0.509172  -0.211701
    H   H7   0.504626  0.728236  0.413305  0.169231
    C   C25  0.508665  0.637827  0.586246  0.126867
    C   C26  0.514527  0.625533  0.707996  -0.146324
    H   H8   0.515314  0.562466  0.766659  0.133251
    C   C27  0.521370  0.691934  0.754585  -0.111186
    C   C28  0.526701  0.774152  0.676002  0.002540
    C   C29  0.450107  0.493682  0.592126  -0.129917
    C   C30  0.445456  0.425226  0.551673  -0.102320
    C   C31  0.492050  0.427834  0.458284  0.040870
    C   C32  0.542672  0.500438  0.405199  -0.112139
    C   C33  0.547276  0.568957  0.445664  -0.125562
    C   C34  0.501437  0.565943  0.539978  0.059535
    C   C35  0.485331  0.364403  0.294401  -0.150567
    H   H9   0.486161  0.425631  0.229333  0.135462
    C   C36  0.480546  0.295961  0.254149  -0.130650
    H   H10  0.479904  0.306506  0.158667  0.147779
    C   C37  0.476862  0.215971  0.333666  0.024269
    C   C38  0.477382  0.205778  0.455955  0.031496
    C   C39  0.483812  0.274976  0.495604  -0.210760
    H   H11  0.485898  0.265745  0.590950  0.149905
    C   C40  0.487353  0.354581  0.415509  0.136302
    H   H12  0.411830  0.490323  0.663869  0.116241
    H   H13  0.403426  0.370288  0.592568  0.101435
    H   H14  0.581190  0.503765  0.333743  0.114179
    H   H15  0.589297  0.623980  0.405002  0.110482
    C   C41  0.518965  0.671269  0.888687  0.689577
    F   F1   0.498346  0.586717  0.940936  -0.232001
    F   F2   0.457483  0.711745  0.914508  -0.229296
    F   F3   0.597959  0.693732  0.939353  -0.222345
