# Generated by REPEAT Assigner based on pymatgen
data_DB0-m3_o1_o3_f0_nbo.sym.1
_audit_creation_date              2022-05-24
_audit_creation_method            REPEAT_Assigner
_cell_length_a                    21.817833
_cell_length_b                    21.817718
_cell_length_c                    38.875834
_cell_angle_alpha                 90.000000
_cell_angle_beta                  90.000000
_cell_angle_gamma                 90.000000
_cell_volume                      18505.492731
_symmetry_space_group_name_H-M    P1
_symmetry_Int_Tables_number       1
loop_
    _symmetry_equiv_pos_site_id
    _symmetry_equiv_pos_as_xyz
    1  x,y,z
loop_
    _atom_site_type_symbol
    _atom_site_label
    _atom_site_fract_x
    _atom_site_fract_y
    _atom_site_fract_z
    _atom_type_partial_charge
    O   O1    0.591172  0.051453  0.501323  -0.706559
    O   O2    0.948281  0.591246  0.499629  -0.706062
    O   O3    0.408819  0.948366  0.499671  -0.706807
    O   O4    0.051457  0.408935  0.501414  -0.706891
    O   O5    0.591515  0.945692  0.498908  -0.691733
    O   O6    0.945695  0.408548  0.498939  -0.692342
    O   O7    0.408489  0.054226  0.499995  -0.692446
    O   O8    0.054136  0.591620  0.500014  -0.691840
    O   O9    0.091164  0.551534  0.999977  -0.707555
    O   O10   0.448527  0.091224  0.999959  -0.706743
    O   O11   0.908837  0.448356  0.001067  -0.705777
    O   O12   0.551611  0.908855  0.001036  -0.706302
    O   O13   0.091533  0.445674  0.000347  -0.692114
    O   O14   0.445853  0.908542  0.998514  -0.692574
    O   O15   0.908480  0.554114  0.998606  -0.691688
    O   O16   0.554382  0.091551  0.000390  -0.691098
    C   C1    0.619837  0.998642  0.500197  0.688598
    C   C2    0.001126  0.619923  0.499760  0.686704
    C   C3    0.380170  0.001225  0.499784  0.689235
    C   C4    0.998656  0.380255  0.500269  0.690413
    C   C5    0.119833  0.498687  0.000209  0.689743
    C   C6    0.501383  0.119878  0.000233  0.686465
    C   C7    0.880165  0.501156  0.999821  0.686421
    C   C8    0.498801  0.880211  0.999748  0.689314
    O   O17   0.497635  0.054420  0.551317  -0.673869
    O   O18   0.948663  0.498207  0.551302  -0.690204
    O   O19   0.501924  0.948763  0.551299  -0.690139
    O   O20   0.054316  0.502537  0.551365  -0.674139
    O   O21   0.500794  0.945419  0.448623  -0.671947
    O   O22   0.945437  0.499203  0.448624  -0.671861
    O   O23   0.499669  0.051140  0.448645  -0.689223
    O   O24   0.051157  0.500371  0.448693  -0.689399
    O   O25   0.997520  0.551167  0.051295  -0.690086
    O   O26   0.448788  0.997511  0.051246  -0.689932
    O   O27   0.001847  0.445512  0.051373  -0.674142
    O   O28   0.554443  0.001799  0.051373  -0.674180
    O   O29   0.000892  0.448636  0.948695  -0.688880
    O   O30   0.445713  0.999852  0.948573  -0.672327
    O   O31   0.999729  0.554358  0.948622  -0.672159
    O   O32   0.551433  0.000979  0.948693  -0.688934
    C   C9    0.499766  0.001599  0.567409  0.633473
    C   C10   0.001475  0.500405  0.567435  0.634006
    C   C11   0.500282  0.998274  0.432530  0.632297
    C   C12   0.998313  0.499713  0.432554  0.632185
    C   C13   0.999529  0.498355  0.067435  0.634064
    C   C14   0.501580  0.999478  0.067411  0.634395
    C   C15   0.000426  0.501479  0.932555  0.631813
    C   C16   0.498613  0.000552  0.932529  0.631886
    Zn  Zn1   0.500087  0.069344  0.499830  1.312182
    Zn  Zn2   0.930485  0.500108  0.500124  1.311443
    Zn  Zn3   0.499949  0.930526  0.500129  1.311494
    Zn  Zn4   0.069300  0.500029  0.499885  1.312299
    Zn  Zn5   0.000023  0.569329  0.000123  1.312372
    Zn  Zn6   0.430686  0.000092  0.000069  1.312349
    Zn  Zn7   0.999946  0.430509  0.999887  1.311679
    Zn  Zn8   0.569501  0.999957  0.999891  1.311580
    C   C17   0.553441  0.998666  0.876931  -0.161907
    C   C18   0.002945  0.555982  0.876857  -0.165010
    C   C19   0.444180  0.003162  0.876812  -0.164855
    C   C20   0.998490  0.446719  0.876937  -0.161504
    C   C21   0.555843  0.004219  0.123130  -0.165587
    C   C22   0.004362  0.444046  0.123143  -0.166721
    C   C23   0.446980  0.993874  0.123006  -0.163196
    C   C24   0.993974  0.552905  0.123043  -0.163431
    C   C25   0.053047  0.497200  0.376932  -0.161707
    C   C26   0.502736  0.052954  0.376894  -0.161035
    C   C27   0.943784  0.501654  0.376861  -0.163016
    C   C28   0.498237  0.943693  0.376850  -0.162882
    C   C29   0.055795  0.505799  0.623122  -0.166401
    C   C30   0.504798  0.947124  0.623054  -0.163813
    C   C31   0.946937  0.495410  0.623063  -0.163940
    C   C32   0.494451  0.055987  0.623080  -0.166435
    H   H1    0.596792  0.996991  0.890326  0.133527
    H   H2    0.004469  0.599414  0.890175  0.133256
    H   H3    0.400734  0.004686  0.890115  0.133223
    H   H4    0.996847  0.403352  0.890317  0.133435
    H   H5    0.599134  0.008238  0.109831  0.133953
    H   H6    0.008386  0.400766  0.109832  0.134281
    H   H7    0.403771  0.990032  0.109606  0.134009
    H   H8    0.990103  0.596123  0.109655  0.134087
    H   H9    0.096422  0.495685  0.390309  0.133904
    H   H10   0.504284  0.096339  0.390259  0.133581
    H   H11   0.900361  0.503306  0.390183  0.132700
    H   H12   0.496584  0.900280  0.390183  0.132741
    H   H13   0.099071  0.509698  0.609796  0.134212
    H   H14   0.508764  0.903886  0.609696  0.134455
    H   H15   0.903715  0.491415  0.609691  0.134591
    H   H16   0.490555  0.099250  0.609740  0.134294
    C   C33   0.553529  0.998627  0.841477  -0.131464
    C   C34   0.003304  0.555851  0.841403  -0.128231
    C   C35   0.444352  0.003560  0.841359  -0.128362
    C   C36   0.998411  0.446671  0.841484  -0.131928
    C   C37   0.555681  0.004226  0.158583  -0.127281
    C   C38   0.004399  0.444187  0.158597  -0.126868
    C   C39   0.446926  0.993446  0.158460  -0.130331
    C   C40   0.993575  0.552939  0.158495  -0.130279
    C   C41   0.053070  0.496801  0.341479  -0.132514
    C   C42   0.503093  0.052953  0.341441  -0.132018
    C   C43   0.943891  0.501693  0.341407  -0.129820
    C   C44   0.498157  0.943775  0.341395  -0.129983
    C   C45   0.055669  0.506142  0.658576  -0.128329
    C   C46   0.504919  0.947141  0.658507  -0.131875
    C   C47   0.946917  0.495317  0.658517  -0.132054
    C   C48   0.494137  0.055897  0.658534  -0.129039
    H   H17   0.596906  0.997934  0.828074  0.107307
    H   H18   0.004088  0.599144  0.827916  0.106947
    H   H19   0.401074  0.004372  0.827857  0.107010
    H   H20   0.997723  0.403308  0.828066  0.107481
    H   H21   0.598865  0.007232  0.172082  0.106214
    H   H22   0.007432  0.400996  0.172088  0.106245
    H   H23   0.403659  0.990300  0.171865  0.107116
    H   H24   0.990423  0.596196  0.171909  0.107036
    H   H25   0.096422  0.496000  0.328052  0.107680
    H   H26   0.503897  0.096297  0.328007  0.107374
    H   H27   0.900587  0.502363  0.327929  0.107018
    H   H28   0.497455  0.900464  0.327925  0.107209
    H   H29   0.098864  0.509281  0.672054  0.106757
    H   H30   0.507957  0.903901  0.671947  0.107477
    H   H31   0.903666  0.492271  0.671944  0.107567
    H   H32   0.491021  0.099107  0.671999  0.107015
    C   C49   0.499007  0.001171  0.823444  0.061114
    C   C50   0.000916  0.501215  0.823470  0.061134
    C   C51   0.501248  0.998747  0.176495  0.060004
    C   C52   0.998905  0.498608  0.176520  0.060236
    C   C53   0.998514  0.499158  0.323469  0.062511
    C   C54   0.500702  0.998385  0.323444  0.061090
    C   C55   0.001256  0.500790  0.676520  0.063129
    C   C56   0.499481  0.001500  0.676495  0.063329
    C   C57   0.498745  0.000811  0.894820  0.103707
    C   C58   0.000636  0.501395  0.894845  0.103512
    C   C59   0.501465  0.999170  0.105120  0.103142
    C   C60   0.999271  0.498433  0.105144  0.104029
    C   C61   0.998383  0.499520  0.394845  0.102337
    C   C62   0.500420  0.998304  0.394820  0.101995
    C   C63   0.001403  0.500540  0.605145  0.104375
    C   C64   0.499673  0.001573  0.605119  0.104739
    C   C65   0.459449  0.038810  0.767680  -0.141583
    C   C66   0.963590  0.461288  0.767728  -0.141511
    C   C67   0.538968  0.963859  0.767708  -0.140909
    C   C68   0.038511  0.540835  0.767711  -0.141554
    C   C69   0.463376  0.959011  0.232170  -0.143073
    C   C70   0.959147  0.536451  0.232193  -0.142465
    C   C71   0.538760  0.038120  0.232320  -0.140362
    C   C72   0.038286  0.461099  0.232347  -0.141078
    C   C73   0.958852  0.536371  0.267642  -0.140287
    C   C74   0.463462  0.958719  0.267621  -0.141060
    C   C75   0.038399  0.461450  0.267796  -0.142415
    C   C76   0.538414  0.038236  0.267769  -0.143994
    C   C77   0.963458  0.461387  0.732279  -0.140800
    C   C78   0.459771  0.039107  0.732230  -0.140549
    C   C79   0.038810  0.540526  0.732261  -0.140664
    C   C80   0.538881  0.963724  0.732259  -0.141048
    H   H33   0.428519  0.069186  0.781113  0.111016
    H   H34   0.933155  0.430434  0.781175  0.111042
    H   H35   0.569802  0.933408  0.781158  0.110945
    H   H36   0.068879  0.571770  0.781147  0.111053
    H   H37   0.434214  0.927026  0.218668  0.112011
    H   H38   0.927148  0.565600  0.218691  0.111745
    H   H39   0.568010  0.070187  0.218939  0.111549
    H   H40   0.070362  0.431860  0.218966  0.111738
    H   H41   0.927928  0.566828  0.281023  0.110879
    H   H42   0.432996  0.927807  0.281003  0.111142
    H   H43   0.069263  0.431104  0.281299  0.111287
    H   H44   0.568776  0.069088  0.281268  0.111841
    H   H45   0.934295  0.429309  0.718847  0.111545
    H   H46   0.427786  0.068339  0.718776  0.111319
    H   H47   0.068035  0.572524  0.718811  0.111241
    H   H48   0.570949  0.934545  0.718830  0.111518
    C   C81   0.499380  0.001450  0.714267  0.081325
    C   C82   0.001175  0.500904  0.714292  0.081444
    C   C83   0.500866  0.998440  0.285673  0.085723
    C   C84   0.998585  0.498985  0.285697  0.083683
    C   C85   0.998768  0.498712  0.214292  0.083568
    C   C86   0.501131  0.998615  0.214267  0.084054
    C   C87   0.001009  0.501112  0.785698  0.083983
    C   C88   0.499147  0.001289  0.785672  0.083587
    C   C89   0.718646  0.959203  0.479294  -0.178299
    C   C90   0.041519  0.718455  0.479047  -0.177207
    C   C91   0.281661  0.040806  0.478577  -0.172686
    C   C92   0.960131  0.281470  0.478843  -0.174881
    C   C93   0.718103  0.038708  0.521514  -0.168454
    C   C94   0.037859  0.282001  0.522093  -0.166109
    C   C95   0.281671  0.961071  0.520664  -0.171015
    C   C96   0.960082  0.718433  0.520094  -0.176439
    C   C97   0.218598  0.459149  0.979351  -0.177536
    C   C98   0.541810  0.218663  0.979925  -0.179943
    C   C99   0.781619  0.540575  0.978537  -0.174511
    C   C100  0.460246  0.781684  0.977954  -0.173078
    C   C101  0.218074  0.538910  0.021421  -0.168715
    C   C102  0.537938  0.781698  0.021226  -0.171503
    C   C103  0.781636  0.461095  0.020773  -0.172383
    C   C104  0.460339  0.218135  0.020949  -0.169934
    H   H49   0.694335  0.928157  0.462462  0.142114
    H   H50   0.073326  0.693916  0.462776  0.140225
    H   H51   0.306225  0.071924  0.461902  0.139613
    H   H52   0.929792  0.305808  0.461620  0.141772
    H   H53   0.693363  0.069588  0.538245  0.139934
    H   H54   0.068028  0.306759  0.539220  0.139603
    H   H55   0.306239  0.930093  0.537419  0.138624
    H   H56   0.928434  0.693881  0.536456  0.139475
    H   H57   0.194239  0.428003  0.962599  0.140149
    H   H58   0.573631  0.194326  0.963567  0.140426
    H   H59   0.806139  0.571605  0.961791  0.141833
    H   H60   0.429934  0.806228  0.960809  0.141628
    H   H61   0.193301  0.569881  0.038085  0.138404
    H   H62   0.568104  0.806249  0.038448  0.140445
    H   H63   0.806167  0.430218  0.037602  0.140502
    H   H64   0.428677  0.193381  0.037207  0.138387
    C   C105  0.781805  0.960638  0.478723  -0.170981
    C   C106  0.040136  0.781606  0.478218  -0.174318
    C   C107  0.218511  0.039393  0.477763  -0.178501
    C   C108  0.961619  0.218315  0.478268  -0.175411
    C   C109  0.781261  0.037727  0.522329  -0.181354
    C   C110  0.036841  0.218840  0.522891  -0.183594
    C   C111  0.218507  0.962127  0.521274  -0.176499
    C   C112  0.961083  0.781599  0.520705  -0.171552
    C   C113  0.281756  0.460610  0.978752  -0.170977
    C   C114  0.540399  0.281822  0.979325  -0.168631
    C   C115  0.718470  0.539170  0.977734  -0.179253
    C   C116  0.461686  0.718532  0.977168  -0.178783
    C   C117  0.281231  0.537902  0.022248  -0.180054
    C   C118  0.536871  0.718533  0.021812  -0.177092
    C   C119  0.718468  0.462105  0.021355  -0.177046
    C   C120  0.461310  0.281293  0.021789  -0.178661
    H   H65   0.806557  0.930111  0.461794  0.134859
    H   H66   0.071441  0.806170  0.461654  0.136344
    H   H67   0.193933  0.069984  0.460790  0.135549
    H   H68   0.931834  0.193552  0.460933  0.134374
    H   H69   0.805581  0.068446  0.539345  0.137223
    H   H70   0.066819  0.194492  0.540306  0.136092
    H   H71   0.193928  0.931394  0.538165  0.134764
    H   H72   0.929645  0.806155  0.537193  0.135239
    H   H73   0.306541  0.430026  0.961871  0.133686
    H   H74   0.571690  0.306591  0.962849  0.134818
    H   H75   0.693936  0.569709  0.960713  0.137113
    H   H76   0.431891  0.693975  0.959746  0.135135
    H   H77   0.305603  0.568662  0.039218  0.135656
    H   H78   0.566810  0.693979  0.039157  0.134594
    H   H79   0.693932  0.431418  0.038291  0.136028
    H   H80   0.429831  0.305643  0.038348  0.136934
    C   C121  0.813199  0.999301  0.500584  0.127926
    C   C122  0.000517  0.813259  0.499409  0.123626
    C   C123  0.186860  0.000671  0.499468  0.129569
    C   C124  0.999351  0.186919  0.500632  0.134176
    C   C125  0.313142  0.499371  0.000556  0.127636
    C   C126  0.500742  0.313213  0.000615  0.121847
    C   C127  0.686803  0.500539  0.999489  0.131001
    C   C128  0.499372  0.686874  0.999440  0.133339
    C   C129  0.686704  0.998846  0.500341  0.115232
    C   C130  0.000900  0.686782  0.499628  0.123012
    C   C131  0.313320  0.001029  0.499672  0.117703
    C   C132  0.998880  0.313397  0.500410  0.112046
    C   C133  0.186682  0.498917  0.000329  0.118214
    C   C134  0.501179  0.186737  0.000374  0.121741
    C   C135  0.813298  0.500937  0.999711  0.117168
    C   C136  0.498998  0.813353  0.999641  0.114024
    O   O33   0.999220  0.091468  0.471034  -0.696200
    O   O34   0.908702  0.996861  0.471055  -0.697143
    O   O35   0.003280  0.908457  0.469616  -0.684900
    O   O36   0.091712  0.000957  0.469598  -0.684622
    O   O37   0.997387  0.908689  0.528972  -0.698125
    O   O38   0.908358  0.002648  0.530409  -0.683783
    O   O39   0.000240  0.091722  0.530474  -0.683192
    O   O40   0.091393  0.999831  0.529039  -0.697669
    O   O41   0.499148  0.591683  0.969591  -0.683064
    O   O42   0.408623  0.499171  0.970997  -0.697729
    O   O43   0.503245  0.408673  0.971065  -0.698217
    O   O44   0.591634  0.503234  0.969656  -0.683551
    O   O45   0.497334  0.408381  0.030420  -0.684987
    O   O46   0.408275  0.500281  0.030438  -0.684872
    O   O47   0.500151  0.591416  0.029031  -0.696192
    O   O48   0.591308  0.497428  0.029010  -0.696713
    C   C137  0.999619  0.120066  0.500725  0.673828
    C   C138  0.880060  0.999582  0.500695  0.675243
    C   C139  0.000355  0.880109  0.499321  0.678205
    C   C140  0.120017  0.000474  0.499358  0.678674
    C   C141  0.499567  0.620021  0.999344  0.673625
    C   C142  0.379984  0.499612  0.000675  0.679433
    C   C143  0.500461  0.380063  0.000712  0.680321
    C   C144  0.619942  0.500353  0.999374  0.673188
    Zn  Zn9   0.999957  0.000152  0.461019  1.304858
    Zn  Zn10  0.000066  0.999955  0.539030  1.305011
    Zn  Zn11  0.499952  0.499924  0.961021  1.304585
    Zn  Zn12  0.500029  0.500092  0.039032  1.304982
