data_DB0-m3_o11_o29_f0_pcu.sym.7_repeat
_audit_creation_date              2024-02-23
_audit_creation_method            'Materials Studio'
_symmetry_space_group_name_H-M    'P1'
_symmetry_Int_Tables_number       1
_symmetry_cell_setting            triclinic
loop_
_symmetry_equiv_pos_as_xyz
  x,y,z
_cell_length_a                    27.6724
_cell_length_b                    11.1372
_cell_length_c                    9.8954
_cell_angle_alpha                 89.9974
_cell_angle_beta                  89.9929
_cell_angle_gamma                 89.9936
loop_
_atom_site_label
_atom_site_type_symbol
_atom_site_fract_x
_atom_site_fract_y
_atom_site_fract_z
_atom_site_U_iso_or_equiv
_atom_site_adp_type
_atom_site_occupancy
O1     O     0.50355   0.31137   0.60836   0.00000  Uiso   1.00
O2     O     0.50041   0.31179   0.37584   0.00000  Uiso   1.00
C1     C     0.50212   0.25551   0.49230   0.00000  Uiso   1.00
O3     O     0.43082   0.48788   0.62059   0.00000  Uiso   1.00
O4     O     0.42760   0.48888   0.38879   0.00000  Uiso   1.00
C2     C     0.40629   0.48769   0.50724   0.00000  Uiso   1.00
Zn1    Zn    0.50332   0.48946   0.64904   0.00000  Uiso   1.00
Zn2    Zn    0.49887   0.49133   0.34208   0.00000  Uiso   1.00
O5     O     0.50203   0.66886   0.61555   0.00000  Uiso   1.00
O6     O     0.49913   0.66977   0.38218   0.00000  Uiso   1.00
O7     O     0.57466   0.49184   0.60310   0.00000  Uiso   1.00
O8     O     0.57144   0.49228   0.36974   0.00000  Uiso   1.00
C3     C     0.50028   0.72528   0.49919   0.00000  Uiso   1.00
C4     C     0.59565   0.49263   0.48405   0.00000  Uiso   1.00
C5     C     0.17686   0.40393   0.42837   0.00000  Uiso   1.00
O9     O     0.20184   0.31550   0.36789   0.00000  Uiso   1.00
N1     N     0.20069   0.49007   0.49688   0.00000  Uiso   1.00
C6     C     0.17610   0.57773   0.56075   0.00000  Uiso   1.00
C7     C     0.27868   0.49576   0.38374   0.00000  Uiso   1.00
C8     C     0.32842   0.49507   0.38805   0.00000  Uiso   1.00
C9     C     0.32590   0.47964   0.62921   0.00000  Uiso   1.00
C10    C     0.27606   0.48069   0.62336   0.00000  Uiso   1.00
C11    C     0.25225   0.48879   0.50134   0.00000  Uiso   1.00
C12    C     0.10105   0.49319   0.48734   0.00000  Uiso   1.00
C13    C     0.12688   0.40452   0.42281   0.00000  Uiso   1.00
C14    C     0.10268   0.31714   0.35204   0.00000  Uiso   1.00
C15    C     0.12612   0.58029   0.55670   0.00000  Uiso   1.00
C16    C     0.35287   0.48725   0.51014   0.00000  Uiso   1.00
H1     H     0.25558   0.47360   0.71608   0.00000  Uiso   1.00
H2     H     0.12193   0.24781   0.29786   0.00000  Uiso   1.00
C17    C     0.64865   0.49391   0.47921   0.00000  Uiso   1.00
C18    C     0.97555   0.40121   0.41861   0.00000  Uiso   1.00
C19    C     0.97509   0.59199   0.53389   0.00000  Uiso   1.00
C20    C     0.95041   0.49706   0.47453   0.00000  Uiso   1.00
C21    C     0.94916   0.30462   0.36774   0.00000  Uiso   1.00
C22    C     0.89957   0.30577   0.36730   0.00000  Uiso   1.00
C23    C     0.87479   0.40277   0.41776   0.00000  Uiso   1.00
C24    C     0.90010   0.49783   0.47150   0.00000  Uiso   1.00
C25    C     0.87448   0.59344   0.52274   0.00000  Uiso   1.00
C26    C     0.82448   0.59264   0.52037   0.00000  Uiso   1.00
N2     N     0.80040   0.49809   0.46868   0.00000  Uiso   1.00
C27    C     0.82476   0.40382   0.41730   0.00000  Uiso   1.00
C28    C     0.72480   0.50231   0.59380   0.00000  Uiso   1.00
C29    C     0.67503   0.50066   0.59770   0.00000  Uiso   1.00
C30    C     0.67275   0.48833   0.35684   0.00000  Uiso   1.00
C31    C     0.72261   0.48930   0.35330   0.00000  Uiso   1.00
C32    C     0.74883   0.49663   0.47177   0.00000  Uiso   1.00
O10    O     0.80020   0.30905   0.36883   0.00000  Uiso   1.00
C33    C     0.02618   0.40333   0.41628   0.00000  Uiso   1.00
C34    C     0.05077   0.49468   0.48266   0.00000  Uiso   1.00
C35    C     0.02555   0.58746   0.54451   0.00000  Uiso   1.00
C36    C     0.05311   0.31648   0.34828   0.00000  Uiso   1.00
H3     H     0.65727   0.50499   0.69482   0.00000  Uiso   1.00
H4     H     0.74494   0.50674   0.68729   0.00000  Uiso   1.00
H5     H     0.88077   0.22866   0.32702   0.00000  Uiso   1.00
H6     H     0.96536   0.22347   0.33048   0.00000  Uiso   1.00
H7     H     0.03738   0.24721   0.28690   0.00000  Uiso   1.00
O11    O     0.20043   0.66463   0.62594   0.00000  Uiso   1.00
C37    C     0.10115   0.66931   0.62262   0.00000  Uiso   1.00
H8     H     0.34771   0.50155   0.29345   0.00000  Uiso   1.00
H9     H     0.26052   0.50341   0.28738   0.00000  Uiso   1.00
H10    H     0.11973   0.73757   0.68023   0.00000  Uiso   1.00
C38    C     0.94846   0.68986   0.58044   0.00000  Uiso   1.00
C39    C     0.89892   0.69014   0.57510   0.00000  Uiso   1.00
O12    O     0.79966   0.68728   0.56814   0.00000  Uiso   1.00
C40    C     0.05163   0.67293   0.61715   0.00000  Uiso   1.00
H11    H     0.96449   0.77070   0.61912   0.00000  Uiso   1.00
H12    H     0.65305   0.48293   0.26276   0.00000  Uiso   1.00
H13    H     0.87989   0.76781   0.61316   0.00000  Uiso   1.00
H14    H     0.74103   0.48571   0.25703   0.00000  Uiso   1.00
H15    H     0.03515   0.74319   0.67552   0.00000  Uiso   1.00
C41    C     0.49978   0.92272   0.38898   0.00000  Uiso   1.00
C42    C     0.49989   0.85685   0.50247   0.00000  Uiso   1.00
H16    H     0.49952   0.87756   0.29201   0.00000  Uiso   1.00
H17    H     0.49952   0.89719   0.60157   0.00000  Uiso   1.00
C43    C     0.49951   0.05582   0.38643   0.00000  Uiso   1.00
C44    C     0.50286   0.12408   0.49726   0.00000  Uiso   1.00
H18    H     0.49667   0.09877   0.28849   0.00000  Uiso   1.00
H19    H     0.50629   0.08549   0.59676   0.00000  Uiso   1.00
C45    C     0.51828   0.57814   0.92346   0.00000  Uiso   1.00
N3     N     0.50694   0.48678   0.85091   0.00000  Uiso   1.00
H20    H     0.52750   0.66228   0.87496   0.00000  Uiso   1.00
H21    H     0.50404   0.40593   0.90017   0.00000  Uiso   1.00
C46    C     0.52190   0.56923   0.07221   0.00000  Uiso   1.00
N4     N     0.49586   0.49514   0.14018   0.00000  Uiso   1.00
H22    H     0.54578   0.63025   0.12529   0.00000  Uiso   1.00
H23    H     0.46940   0.44964   0.08841   0.00000  Uiso   1.00
Cl1    Cl    0.35171   0.46688   0.79076   0.00000  Uiso   1.00
