data_DB0-m3_o11_o29_f0_pcu.sym.39_repeat
_audit_creation_date              2024-02-20
_audit_creation_method            'Materials Studio'
_symmetry_space_group_name_H-M    'P1'
_symmetry_Int_Tables_number       1
_symmetry_cell_setting            triclinic
loop_
_symmetry_equiv_pos_as_xyz
  x,y,z
_cell_length_a                    27.6044
_cell_length_b                    11.0915
_cell_length_c                    9.8998
_cell_angle_alpha                 89.9974
_cell_angle_beta                  89.9930
_cell_angle_gamma                 89.9936
loop_
_atom_site_label
_atom_site_type_symbol
_atom_site_fract_x
_atom_site_fract_y
_atom_site_fract_z
_atom_site_U_iso_or_equiv
_atom_site_adp_type
_atom_site_occupancy
O1     O     0.49409   0.31752   0.61465   0.00000  Uiso   1.00
O2     O     0.49698   0.31393   0.38248   0.00000  Uiso   1.00
C1     C     0.49342   0.25923   0.49944   0.00000  Uiso   1.00
O3     O     0.42848   0.51263   0.60258   0.00000  Uiso   1.00
O4     O     0.43066   0.50705   0.37010   0.00000  Uiso   1.00
C2     C     0.40693   0.51421   0.48461   0.00000  Uiso   1.00
Zn1    Zn    0.49981   0.49723   0.64742   0.00000  Uiso   1.00
Zn2    Zn    0.50303   0.49205   0.34035   0.00000  Uiso   1.00
O5     O     0.50694   0.67510   0.60607   0.00000  Uiso   1.00
O6     O     0.50835   0.67213   0.37241   0.00000  Uiso   1.00
O7     O     0.57217   0.48123   0.61803   0.00000  Uiso   1.00
O8     O     0.57448   0.47898   0.38478   0.00000  Uiso   1.00
C3     C     0.50939   0.72950   0.48871   0.00000  Uiso   1.00
C4     C     0.59587   0.47420   0.50313   0.00000  Uiso   1.00
C5     C     0.17863   0.42045   0.43858   0.00000  Uiso   1.00
O9     O     0.20447   0.32333   0.40119   0.00000  Uiso   1.00
N1     N     0.20181   0.52175   0.47664   0.00000  Uiso   1.00
C6     C     0.17654   0.61909   0.51727   0.00000  Uiso   1.00
C7     C     0.27814   0.53979   0.59742   0.00000  Uiso   1.00
C8     C     0.32805   0.53759   0.59958   0.00000  Uiso   1.00
C9     C     0.32913   0.50828   0.36057   0.00000  Uiso   1.00
C10    C     0.27915   0.50932   0.35893   0.00000  Uiso   1.00
C11    C     0.25349   0.52462   0.47740   0.00000  Uiso   1.00
C12    C     0.10201   0.51326   0.48290   0.00000  Uiso   1.00
C13    C     0.12857   0.41486   0.44182   0.00000  Uiso   1.00
C14    C     0.10500   0.31122   0.40375   0.00000  Uiso   1.00
C15    C     0.12642   0.61624   0.52011   0.00000  Uiso   1.00
C16    C     0.35387   0.52128   0.48120   0.00000  Uiso   1.00
H1     H     0.34838   0.49512   0.26668   0.00000  Uiso   1.00
H2     H     0.26017   0.49807   0.26425   0.00000  Uiso   1.00
H3     H     0.12476   0.23336   0.36818   0.00000  Uiso   1.00
C17    C     0.64900   0.46885   0.50537   0.00000  Uiso   1.00
C18    C     0.97747   0.39510   0.46878   0.00000  Uiso   1.00
C19    C     0.97476   0.60750   0.51983   0.00000  Uiso   1.00
C20    C     0.95116   0.49887   0.49668   0.00000  Uiso   1.00
C21    C     0.95249   0.28650   0.45604   0.00000  Uiso   1.00
C22    C     0.90287   0.28250   0.46373   0.00000  Uiso   1.00
C23    C     0.87677   0.38631   0.48444   0.00000  Uiso   1.00
C24    C     0.90081   0.49397   0.50125   0.00000  Uiso   1.00
C25    C     0.87389   0.59673   0.52228   0.00000  Uiso   1.00
C26    C     0.82381   0.59084   0.52495   0.00000  Uiso   1.00
N2     N     0.80103   0.48448   0.50856   0.00000  Uiso   1.00
C27    C     0.82668   0.38269   0.48886   0.00000  Uiso   1.00
C28    C     0.72501   0.41367   0.60505   0.00000  Uiso   1.00
C29    C     0.67493   0.40600   0.60356   0.00000  Uiso   1.00
C30    C     0.67384   0.53371   0.40829   0.00000  Uiso   1.00
C31    C     0.72362   0.53962   0.41001   0.00000  Uiso   1.00
C32    C     0.74937   0.48010   0.50868   0.00000  Uiso   1.00
O10    O     0.80329   0.27782   0.46963   0.00000  Uiso   1.00
C33    C     0.02791   0.40186   0.45567   0.00000  Uiso   1.00
C34    C     0.05165   0.50858   0.48721   0.00000  Uiso   1.00
C35    C     0.02548   0.61056   0.52329   0.00000  Uiso   1.00
C36    C     0.05541   0.30453   0.41039   0.00000  Uiso   1.00
H4     H     0.74563   0.36519   0.68030   0.00000  Uiso   1.00
H5     H     0.88512   0.19621   0.45314   0.00000  Uiso   1.00
H6     H     0.97002   0.20066   0.44411   0.00000  Uiso   1.00
H7     H     0.03995   0.22157   0.37460   0.00000  Uiso   1.00
O11    O     0.20029   0.71995   0.55294   0.00000  Uiso   1.00
C37    C     0.10065   0.71549   0.56171   0.00000  Uiso   1.00
H8     H     0.34641   0.54800   0.69526   0.00000  Uiso   1.00
H9     H     0.25838   0.55064   0.69093   0.00000  Uiso   1.00
H10    H     0.11877   0.79685   0.59410   0.00000  Uiso   1.00
C38    C     0.94678   0.71089   0.53782   0.00000  Uiso   1.00
C39    C     0.89711   0.70526   0.53892   0.00000  Uiso   1.00
O12    O     0.79761   0.69117   0.54632   0.00000  Uiso   1.00
C40    C     0.05094   0.71303   0.56333   0.00000  Uiso   1.00
H11    H     0.96179   0.79987   0.54714   0.00000  Uiso   1.00
H12    H     0.65432   0.58333   0.33170   0.00000  Uiso   1.00
H13    H     0.87698   0.78788   0.55285   0.00000  Uiso   1.00
H14    H     0.74239   0.59074   0.33315   0.00000  Uiso   1.00
H15    H     0.03385   0.79313   0.60150   0.00000  Uiso   1.00
C41    C     0.49921   0.92915   0.38658   0.00000  Uiso   1.00
C42    C     0.51300   0.86116   0.49102   0.00000  Uiso   1.00
H16    H     0.48960   0.88675   0.29168   0.00000  Uiso   1.00
H17    H     0.52502   0.90295   0.58400   0.00000  Uiso   1.00
C43    C     0.50032   0.06218   0.39311   0.00000  Uiso   1.00
C44    C     0.48656   0.12749   0.50117   0.00000  Uiso   1.00
H18    H     0.51432   0.10818   0.30483   0.00000  Uiso   1.00
C45    C     0.52974   0.55961   0.91833   0.00000  Uiso   1.00
N3     N     0.49759   0.50284   0.84927   0.00000  Uiso   1.00
H19    H     0.55892   0.60562   0.86627   0.00000  Uiso   1.00
H20    H     0.46730   0.47392   0.90013   0.00000  Uiso   1.00
C46    C     0.52657   0.56948   0.06709   0.00000  Uiso   1.00
N4     N     0.50600   0.48745   0.13853   0.00000  Uiso   1.00
H21    H     0.54384   0.64517   0.11677   0.00000  Uiso   1.00
H22    H     0.49539   0.41053   0.08894   0.00000  Uiso   1.00
C47    C     0.45995   0.07348   0.61589   0.00000  Uiso   1.00
O13    O     0.46377   0.11596   0.72896   0.00000  Uiso   1.00
O14    O     0.42753   0.97929   0.59428   0.00000  Uiso   1.00
H23    H     0.41157   0.95562   0.68241   0.00000  Uiso   1.00
C48    C     0.65146   0.32490   0.70149   0.00000  Uiso   1.00
O15    O     0.67090   0.30504   0.80983   0.00000  Uiso   1.00
O16    O     0.60965   0.26175   0.66730   0.00000  Uiso   1.00
H24    H     0.59965   0.20743   0.74456   0.00000  Uiso   1.00
