# Generated by REPEAT Assigner based on pymatgen
data_DB0-m2_o11_o23_f0_pcu.sym.140
_audit_creation_date              2022-05-24
_audit_creation_method            REPEAT_Assigner
_cell_length_a                    15.859478
_cell_length_b                    11.119978
_cell_length_c                    9.582575
_cell_angle_alpha                 90.020605
_cell_angle_beta                  89.997351
_cell_angle_gamma                 89.998275
_cell_volume                      1689.954536
_symmetry_space_group_name_H-M    P1
_symmetry_Int_Tables_number       1
loop_
    _symmetry_equiv_pos_site_id
    _symmetry_equiv_pos_as_xyz
    1  x,y,z
loop_
    _atom_site_type_symbol
    _atom_site_label
    _atom_site_fract_x
    _atom_site_fract_y
    _atom_site_fract_z
    _atom_type_partial_charge
    O   O1   0.500991  0.323312  0.625426  -0.585019
    O   O2   0.505563  0.318979  0.384903  -0.506843
    C   C1   0.500144  0.264513  0.505795  0.701931
    O   O3   0.381653  0.502028  0.616922  -0.601714
    O   O4   0.384718  0.495930  0.376755  -0.566862
    C   C2   0.344010  0.503825  0.495421  0.754309
    Cu  Cu1  0.503924  0.498663  0.640348  0.909903
    Cu  Cu2  0.507525  0.493209  0.361217  0.804393
    O   O5   0.512093  0.672480  0.615614  -0.503075
    O   O6   0.514549  0.668106  0.377186  -0.514286
    O   O7   0.626446  0.486785  0.624826  -0.612562
    O   O8   0.629577  0.483216  0.385185  -0.603057
    C   C3   0.512176  0.727151  0.495397  0.608153
    C   C4   0.667366  0.486184  0.506288  0.845943
    C   C5   0.056351  0.430618  0.630446  -0.110746
    C   C6   0.051516  0.436872  0.366084  -0.135826
    C   C7   0.958136  0.413013  0.383377  -0.184993
    H   H1   0.936916  0.340614  0.652336  0.073359
    H   H2   0.060448  0.499978  0.277689  0.070759
    H   H3   0.947434  0.316049  0.403804  0.074477
    H   H4   0.924531  0.438923  0.286439  0.070503
    C   C8   0.757847  0.483814  0.508594  -0.173879
    C   C9   0.085334  0.495580  0.498596  0.727699
    C   C10  0.961013  0.433513  0.638916  -0.177073
    C   C11  0.926082  0.487032  0.505225  0.541123
    C   C12  0.955659  0.616476  0.487920  -0.086385
    C   C13  0.050651  0.622404  0.504529  -0.199868
    C   C14  0.833841  0.484093  0.508054  -0.296438
    C   C15  0.177537  0.499607  0.494587  -0.435172
    C   C16  0.253510  0.502317  0.493407  -0.069192
    H   H5   0.066638  0.664417  0.606106  0.058687
    H   H6   0.077977  0.677518  0.419324  0.078955
    H   H7   0.082283  0.477891  0.722881  0.074375
    H   H8   0.941288  0.487476  0.730563  0.068274
    H   H9   0.938314  0.648487  0.382125  0.074231
    C   C17  0.491965  0.930635  0.396841  -0.013533
    C   C18  0.521719  0.858707  0.497348  -0.171063
    H   H10  0.555078  0.897182  0.585260  0.182497
    C   C19  0.508166  0.061234  0.397124  0.012746
    C   C20  0.491898  0.132004  0.508975  -0.197001
    C   C21  0.457280  0.432043  0.925337  0.050318
    N   N1   0.501338  0.503616  0.848973  -0.117997
    H   H11  0.424577  0.357245  0.877050  0.157603
    C   C22  0.448177  0.450243  0.077907  0.092195
    N   N2   0.509906  0.489153  0.152507  -0.120804
    H   H12  0.390102  0.422220  0.127565  0.102303
    H   H13  0.567766  0.490101  0.104058  0.209191
    C   C23  0.450109  0.880951  0.276669  0.356226
    N   N3   0.416357  0.841223  0.180047  -0.384069
    C   C24  0.538121  0.109978  0.266993  0.383496
    N   N4   0.562257  0.148622  0.162237  -0.405357
    C   C25  0.456915  0.080670  0.634130  0.396196
    N   N5   0.428696  0.039575  0.734742  -0.380428
    C   C26  0.514563  0.617773  0.903194  0.342634
    N   N6   0.525618  0.713045  0.948211  -0.366622
    C   C27  0.086179  0.306066  0.634498  0.305504
    N   N7   0.109754  0.207636  0.637900  -0.409505
    C   C28  0.096328  0.325362  0.332538  0.326559
    N   N8   0.131753  0.237313  0.306000  -0.421030
    C   C29  0.915130  0.694302  0.591313  0.340560
    N   N9   0.883040  0.755776  0.673005  -0.444703
