# Generated by REPEAT Assigner based on pymatgen
data_DB0-m9_o20_o22_f0_sra.sym.110
_audit_creation_date              2022-05-24
_audit_creation_method            REPEAT_Assigner
_cell_length_a                    6.323424
_cell_length_b                    14.603553
_cell_length_c                    19.353411
_cell_angle_alpha                 109.158954
_cell_angle_beta                  90.809308
_cell_angle_gamma                 91.066233
_cell_volume                      1687.511692
_symmetry_space_group_name_H-M    P1
_symmetry_Int_Tables_number       1
loop_
    _symmetry_equiv_pos_site_id
    _symmetry_equiv_pos_as_xyz
    1  x,y,z
loop_
    _atom_site_type_symbol
    _atom_site_label
    _atom_site_fract_x
    _atom_site_fract_y
    _atom_site_fract_z
    _atom_type_partial_charge
    O  O1   0.419313  0.397352  0.523689  -0.419338
    O  O2   0.214561  0.377824  0.438105  -0.528153
    O  O3   0.003732  0.526027  0.411357  -0.588265
    C  C1   0.331127  0.388518  0.384255  0.827448
    O  O4   0.133680  0.462747  0.589016  -0.563152
    O  O5   0.929960  0.609914  0.561597  -0.385622
    C  C2   0.308122  0.415528  0.583191  0.878225
    O  O6   0.499425  0.445992  0.396986  -0.698492
    O  O7   0.322482  0.572514  0.512775  -0.544563
    V  V1   0.044012  0.486421  0.498376  1.356679
    O  O8   0.639412  0.558712  0.606227  -0.613246
    C  C3   0.817125  0.607260  0.617115  0.533483
    O  O9   0.726082  0.607414  0.479296  -0.339560
    C  C4   0.834647  0.579498  0.417601  0.821390
    V  V2   0.545090  0.509875  0.502706  1.169752
    O  O10  0.815089  0.423486  0.485730  -0.572148
    C  C5   0.824428  0.635211  0.368581  -0.332702
    C  C6   0.828220  0.677757  0.324570  0.147776
    C  C7   0.841116  0.724654  0.271173  -0.053266
    C  C8   0.854071  0.764018  0.225317  -0.044821
    C  C9   0.866415  0.811462  0.172243  0.152232
    C  C10  0.869255  0.854946  0.128834  -0.347168
    C  C11  0.758933  0.856571  0.756510  -0.146089
    H  H1   0.599499  0.883822  0.774523  0.048570
    H  H2   0.860691  0.917004  0.752170  0.051937
    C  C12  0.740373  0.777623  0.683118  -0.048865
    H  H3   0.570578  0.762086  0.667879  0.089622
    H  H4   0.556477  0.757363  0.830996  -0.021687
    H  H5   0.550668  0.634315  0.723864  0.033693
    C  C13  0.719637  0.732343  0.816756  -0.040866
    C  C14  0.076834  0.780284  0.788026  0.350814
    C  C15  0.856088  0.815420  0.811413  -0.184256
    H  H6   0.145122  0.748626  0.827952  -0.010570
    H  H7   0.178686  0.842261  0.786670  -0.006160
    C  C16  0.837858  0.685808  0.688438  0.286903
    C  C17  0.716739  0.652610  0.743475  -0.049767
    C  C18  0.066614  0.703959  0.712994  -0.405745
    H  H8   0.157324  0.728521  0.673479  0.024822
    H  H9   0.134181  0.635920  0.716234  0.090278
    H  H10  0.786036  0.704812  0.859300  0.045236
    H  H11  0.791689  0.587448  0.749389  0.014598
    C  C19  0.554536  0.269579  0.302459  0.638436
    H  H12  0.667292  0.326082  0.297533  -0.041508
    H  H13  0.601453  0.247574  0.350055  -0.079386
    C  C20  0.557177  0.182550  0.233594  -0.503493
    H  H14  0.563406  0.115174  0.248049  0.073407
    H  H15  0.696766  0.187981  0.200978  0.042020
    H  H16  0.380369  0.419274  0.261178  0.058512
    H  H17  0.480866  0.299810  0.159076  0.024610
    C  C21  0.282967  0.352469  0.253025  -0.158875
    C  C22  0.175689  0.230220  0.309320  0.163994
    C  C23  0.333666  0.310190  0.312930  -0.279125
    H  H18  0.016988  0.260689  0.324407  -0.101827
    H  H19  0.227144  0.191672  0.347165  -0.014749
    C  C24  0.356452  0.181423  0.190310  0.320488
    C  C25  0.331510  0.278738  0.179876  -0.049843
    C  C26  0.168448  0.160950  0.231589  -0.142230
    H  H20  0.173272  0.085357  0.232218  0.029514
    H  H21  0.020118  0.170863  0.203893  0.071527
    H  H22  0.112823  0.369977  0.254631  0.067360
    H  H23  0.199843  0.274753  0.140451  0.037948
    C  C27  0.335129  0.360339  0.632187  -0.385597
    C  C28  0.344081  0.317948  0.676323  0.175918
    C  C29  0.345210  0.271005  0.729974  -0.046775
    C  C30  0.343959  0.231594  0.776055  -0.046934
    C  C31  0.345571  0.184216  0.829440  0.174266
    C  C32  0.355409  0.141076  0.873078  -0.396431
    O  O11  0.192572  0.046090  0.104594  -0.692736
    O  O12  0.558803  0.037366  0.914271  -0.634744
    O  O13  0.762193  0.887585  0.937845  -0.451073
    C  C33  0.384074  0.084557  0.921059  0.979034
    O  O14  0.477390  0.116672  0.065528  -0.571044
    O  O15  0.687876  0.965776  0.088412  -0.577748
    C  C34  0.360247  0.104012  0.118530  0.751720
    O  O16  0.272969  0.100679  0.980434  -0.500547
    O  O17  0.369426  0.923164  0.986891  -0.594446
    V  V3   0.648003  0.009563  0.003344  1.390404
    O  O18  0.965704  0.886443  0.019207  -0.508642
    C  C35  0.857420  0.912315  0.081016  0.883970
    O  O19  0.052667  0.941298  0.894936  -0.726396
    C  C36  0.875035  0.892762  0.883057  0.814663
    V  V4   0.146873  0.986014  0.998487  1.389803
    O  O20  0.877014  0.072600  0.017456  -0.576895
    C  C37  0.844768  0.810946  0.626820  0.067350
    C  C38  0.738159  0.799644  0.561924  -0.016226
    C  C39  0.523965  0.753331  0.549395  -0.142759
    C  C40  0.829254  0.831443  0.509327  -0.113111
    C  C41  0.025482  0.877258  0.522590  -0.133522
    C  C42  0.130087  0.891154  0.588396  -0.100976
    C  C43  0.040404  0.857640  0.640432  -0.185832
    H  H24  0.530995  0.683206  0.559572  0.051777
    H  H25  0.469256  0.742061  0.492438  0.054041
    H  H26  0.412805  0.800436  0.588312  0.105694
    H  H27  0.745644  0.821776  0.458222  0.107177
    H  H28  0.096045  0.903424  0.481828  0.103270
    H  H29  0.281559  0.929233  0.599439  0.078245
    H  H30  0.121588  0.870434  0.692344  0.139367
