# Generated by REPEAT Assigner based on pymatgen
data_DB0-m3_o1_o22_f0_nbo.sym.35
_audit_creation_date              2022-05-24
_audit_creation_method            REPEAT_Assigner
_cell_length_a                    18.791028
_cell_length_b                    18.870239
_cell_length_c                    18.921175
_cell_angle_alpha                 109.416000
_cell_angle_beta                  109.671411
_cell_angle_gamma                 109.103953
_cell_volume                      5178.833028
_symmetry_space_group_name_H-M    P1
_symmetry_Int_Tables_number       1
loop_
    _symmetry_equiv_pos_site_id
    _symmetry_equiv_pos_as_xyz
    1  x,y,z
loop_
    _atom_site_type_symbol
    _atom_site_label
    _atom_site_fract_x
    _atom_site_fract_y
    _atom_site_fract_z
    _atom_type_partial_charge
    O   O1   0.409639  0.354560  0.447884  -0.657370
    O   O2   0.405195  0.461778  0.547465  -0.714743
    C   C1   0.378484  0.380164  0.497720  0.678480
    O   O3   0.590469  0.443830  0.536987  -0.637925
    O   O4   0.591117  0.551441  0.641290  -0.638961
    C   C2   0.619466  0.497600  0.618144  0.401057
    Zn  Zn1  0.499430  0.429141  0.429653  1.298098
    Zn  Zn2  0.499669  0.569368  0.567104  1.311680
    O   O5   0.591649  0.536723  0.446875  -0.650056
    O   O6   0.591793  0.644009  0.551241  -0.687459
    O   O7   0.405864  0.444990  0.355542  -0.664493
    O   O8   0.410941  0.556895  0.459817  -0.629771
    C   C3   0.620496  0.618385  0.498860  0.604843
    C   C4   0.379752  0.500918  0.378828  0.581420
    C   C5   0.671658  0.406489  0.663129  -0.160978
    H   H1   0.662460  0.371261  0.598081  0.064843
    H   H2   0.611284  0.370310  0.662419  0.014976
    C   C6   0.746593  0.408224  0.729052  -0.006434
    H   H3   0.720072  0.362300  0.749809  0.017479
    H   H4   0.783066  0.387600  0.699203  -0.004272
    H   H5   0.884726  0.531844  0.747495  0.111989
    C   C7   0.777865  0.556459  0.704004  0.043531
    C   C8   0.687814  0.536628  0.771650  -0.332906
    C   C9   0.688697  0.498489  0.687576  0.526866
    H   H6   0.706107  0.605573  0.795335  0.087007
    H   H7   0.621699  0.500953  0.760955  0.092059
    C   C10  0.806317  0.499345  0.805488  0.536420
    C   C11  0.847891  0.556439  0.773664  -0.381803
    C   C12  0.750796  0.527249  0.838364  0.087684
    H   H8   0.711699  0.475271  0.846477  -0.003995
    H   H9   0.788748  0.623374  0.728428  0.015715
    H   H10  0.894410  0.623804  0.826922  0.114313
    C   C13  0.240084  0.322085  0.497248  -0.157454
    H   H11  0.234296  0.377001  0.496502  0.139257
    C   C14  0.174821  0.258070  0.494275  -0.203572
    H   H12  0.119009  0.263933  0.492535  0.137504
    C   C15  0.182540  0.188580  0.496825  0.153831
    C   C16  0.254499  0.182185  0.499941  -0.140318
    H   H13  0.260825  0.127709  0.501405  0.152793
    C   C17  0.317221  0.243595  0.497952  -0.199398
    H   H14  0.372649  0.237293  0.498962  0.140857
    C   C18  0.310812  0.314311  0.497886  0.107385
    C   C19  0.307514  0.575192  0.326332  -0.265478
    H   H15  0.353303  0.633224  0.388408  0.202713
    C   C20  0.244086  0.575866  0.263234  0.013382
    C   C21  0.184662  0.500791  0.183476  0.083090
    C   C22  0.189895  0.425675  0.168379  0.031381
    C   C23  0.253780  0.426440  0.232512  -0.255486
    H   H16  0.258302  0.368438  0.220858  0.208929
    C   C24  0.312513  0.500852  0.311242  0.235160
    C   C25  0.757196  0.755093  0.577230  -0.268479
    H   H17  0.759931  0.759348  0.636555  0.190481
    C   C26  0.821630  0.819744  0.579792  0.086959
    C   C27  0.815400  0.814255  0.502389  0.044469
    C   C28  0.745799  0.743660  0.424670  -0.133491
    H   H18  0.740959  0.738406  0.364384  0.150307
    C   C29  0.683703  0.678083  0.423111  -0.228893
    H   H19  0.629830  0.623079  0.361832  0.150878
    C   C30  0.688655  0.684519  0.499468  0.265397
    O   O9   0.941972  0.358308  0.902674  -0.666977
    O   O10  0.053307  0.462443  0.906866  -0.704832
    C   C31  0.997213  0.381629  0.876158  0.739953
    O   O11  0.850001  0.449792  0.906253  -0.669787
    O   O12  0.956721  0.549750  0.901853  -0.647313
    C   C32  0.874771  0.499825  0.875103  0.359639
    Zn  Zn3  0.926327  0.431829  0.995744  1.312490
    Zn  Zn4  0.065945  0.569334  0.995428  1.324711
    O   O13  0.940967  0.538752  0.086424  -0.691017
    O   O14  0.048215  0.642931  0.086436  -0.696363
    O   O15  0.035523  0.449362  0.087458  -0.615064
    O   O16  0.142401  0.553432  0.086927  -0.610493
    C   C33  0.994656  0.619665  0.114726  0.728693
    C   C34  0.117515  0.501149  0.115887  0.466116
    O   O17  0.951217  0.913667  0.356315  -0.665846
    O   O18  0.053808  0.908732  0.461310  -0.645447
    C   C35  0.003460  0.883737  0.380213  0.614527
    O   O19  0.033566  0.095643  0.446673  -0.642126
    O   O20  0.140809  0.090673  0.546938  -0.723023
    C   C36  0.115562  0.122093  0.497118  0.659698
    Zn  Zn5  0.928042  0.999958  0.428831  1.306481
    Zn  Zn6  0.069406  0.001195  0.567491  1.314947
    O   O21  0.941657  0.090554  0.534842  -0.670265
    O   O22  0.048297  0.089725  0.640051  -0.630322
    O   O23  0.856676  0.908420  0.447397  -0.656190
    O   O24  0.963974  0.907438  0.551725  -0.671968
    C   C37  0.993706  0.117408  0.615983  0.594796
    C   C38  0.882001  0.879696  0.500220  0.664175
    C   C39  0.072208  0.319776  0.812980  -0.098456
    H   H20  0.134004  0.375252  0.865575  0.146858
    C   C40  0.070161  0.253420  0.751343  -0.204554
    H   H21  0.130503  0.258609  0.755133  0.152914
    C   C41  0.991834  0.182422  0.683123  0.145001
    C   C42  0.914290  0.177005  0.677972  0.019586
    C   C43  0.917370  0.242555  0.741997  -0.223763
    H   H22  0.857976  0.238652  0.739932  0.179582
    C   C44  0.995779  0.313784  0.808946  0.065099
    C   C45  0.015599  0.765909  0.185139  -0.341813
    H   H23  0.028066  0.775626  0.136439  0.207101
    C   C46  0.019337  0.831615  0.249655  0.074947
    C   C47  0.004978  0.818613  0.312938  0.039280
    C   C48  0.986849  0.740431  0.310236  -0.134489
    H   H24  0.974745  0.729801  0.358768  0.147293
    C   C49  0.980905  0.674555  0.244338  -0.155276
    H   H25  0.966389  0.613657  0.243100  0.134096
    C   C50  0.996222  0.687555  0.182189  0.255578
    N   N1   0.803687  0.606321  0.922139  0.606726
    O   O25  0.799358  0.603918  0.988510  -0.409606
    O   O26  0.849291  0.680270  0.930264  -0.374837
    N   N2   0.239698  0.653802  0.282752  0.646996
    O   O27  0.164904  0.650953  0.259271  -0.353518
    O   O28  0.310057  0.727743  0.339851  -0.379755
    N   N3   0.131948  0.347611  0.086776  0.582438
    O   O29  0.110554  0.350238  0.015191  -0.307045
    O   O30  0.115974  0.273781  0.083470  -0.358612
    N   N4   0.891292  0.891771  0.662324  0.550609
    O   O31  0.912568  0.881575  0.729663  -0.383595
    O   O32  0.920834  0.969794  0.674077  -0.313361
    N   N5   0.831215  0.104423  0.609658  0.604068
    O   O33  0.820482  0.026704  0.579307  -0.327594
    O   O34  0.762875  0.113834  0.589905  -0.410146
    N   N6   0.041095  0.912433  0.251302  0.564619
    O   O35  0.026818  0.914735  0.180130  -0.363986
    O   O36  0.090226  0.984632  0.324576  -0.331911
    N   N7   0.783669  0.531656  0.625386  0.631119
    O   O37  0.785639  0.461028  0.588928  -0.406132
    O   O38  0.795680  0.585353  0.596170  -0.414151
