data_DB0-m3_o11_o18_f0_pcu.sym.26_repeat
_audit_creation_date              2024-02-23
_audit_creation_method            'Materials Studio'
_symmetry_space_group_name_H-M    'P1'
_symmetry_Int_Tables_number       1
_symmetry_cell_setting            triclinic
loop_
_symmetry_equiv_pos_as_xyz
  x,y,z
_cell_length_a                    9.9267
_cell_length_b                    11.1415
_cell_length_c                    15.9879
_cell_angle_alpha                 90.0016
_cell_angle_beta                  72.3361
_cell_angle_gamma                 89.9974
loop_
_atom_site_label
_atom_site_type_symbol
_atom_site_fract_x
_atom_site_fract_y
_atom_site_fract_z
_atom_site_U_iso_or_equiv
_atom_site_adp_type
_atom_site_occupancy
O1     O     0.38469   0.67037   0.50490   0.00000  Uiso   1.00
O2     O     0.61781   0.67276   0.50315   0.00000  Uiso   1.00
C1     C     0.49940   0.72756   0.50582   0.00000  Uiso   1.00
O3     O     0.32069   0.48199   0.62952   0.00000  Uiso   1.00
O4     O     0.55340   0.48578   0.62787   0.00000  Uiso   1.00
C2     C     0.41774   0.48134   0.66987   0.00000  Uiso   1.00
Zn1    Zn    0.34697   0.49245   0.49900   0.00000  Uiso   1.00
Zn2    Zn    0.65416   0.49347   0.49723   0.00000  Uiso   1.00
O5     O     0.38370   0.31317   0.49225   0.00000  Uiso   1.00
O6     O     0.61641   0.31558   0.49117   0.00000  Uiso   1.00
O7     O     0.44726   0.49952   0.36827   0.00000  Uiso   1.00
O8     O     0.68062   0.50270   0.36661   0.00000  Uiso   1.00
C3     C     0.50164   0.25789   0.49057   0.00000  Uiso   1.00
C4     C     0.58317   0.50444   0.32638   0.00000  Uiso   1.00
C5     C     0.37295   0.47214   0.76603   0.00000  Uiso   1.00
C6     C     0.62745   0.51842   0.23054   0.00000  Uiso   1.00
C7     C     0.19773   0.42360   0.89996   0.00000  Uiso   1.00
C8     C     0.23693   0.43771   0.81053   0.00000  Uiso   1.00
C9     C     0.46788   0.49547   0.81210   0.00000  Uiso   1.00
C10    C     0.42745   0.48692   0.90364   0.00000  Uiso   1.00
C11    C     0.29180   0.44771   0.94599   0.00000  Uiso   1.00
C12    C     0.51869   0.51415   0.95369   0.00000  Uiso   1.00
C13    C     0.47541   0.49395   0.04433   0.00000  Uiso   1.00
C14    C     0.33822   0.45245   0.08359   0.00000  Uiso   1.00
C15    C     0.24825   0.43154   0.03505   0.00000  Uiso   1.00
C16    C     0.65107   0.56442   0.91533   0.00000  Uiso   1.00
C17    C     0.74207   0.58751   0.96276   0.00000  Uiso   1.00
C18    C     0.70393   0.56101   0.05148   0.00000  Uiso   1.00
C19    C     0.56956   0.51644   0.09349   0.00000  Uiso   1.00
C20    C     0.79861   0.58059   0.09866   0.00000  Uiso   1.00
C21    C     0.76111   0.55860   0.18716   0.00000  Uiso   1.00
C22    C     0.53311   0.49643   0.18407   0.00000  Uiso   1.00
H1     H     0.14219   0.40054   0.06795   0.00000  Uiso   1.00
H2     H     0.43197   0.46255   0.22166   0.00000  Uiso   1.00
H3     H     0.83650   0.57703   0.22208   0.00000  Uiso   1.00
H4     H     0.09195   0.39312   0.93411   0.00000  Uiso   1.00
H5     H     0.16136   0.41779   0.77602   0.00000  Uiso   1.00
H6     H     0.57341   0.51847   0.77374   0.00000  Uiso   1.00
H7     H     0.29333   0.43603   0.15256   0.00000  Uiso   1.00
H8     H     0.68887   0.59125   0.84773   0.00000  Uiso   1.00
H9     H     0.90388   0.61434   0.06800   0.00000  Uiso   1.00
C23    C     0.60914   0.05850   0.49998   0.00000  Uiso   1.00
C24    C     0.50289   0.12549   0.48847   0.00000  Uiso   1.00
H10    H     0.41190   0.08368   0.47704   0.00000  Uiso   1.00
C25    C     0.60825   0.92569   0.49871   0.00000  Uiso   1.00
C26    C     0.49271   0.85901   0.50806   0.00000  Uiso   1.00
H11    H     0.70782   0.88107   0.49242   0.00000  Uiso   1.00
H12    H     0.39005   0.89913   0.51759   0.00000  Uiso   1.00
C27    C     0.10152   0.42591   0.44810   0.00000  Uiso   1.00
N1     N     0.14572   0.49510   0.49850   0.00000  Uiso   1.00
H13    H     0.17306   0.35890   0.40961   0.00000  Uiso   1.00
H14    H     0.08471   0.56852   0.52418   0.00000  Uiso   1.00
C28    C     0.95860   0.43839   0.43740   0.00000  Uiso   1.00
N2     N     0.85604   0.48881   0.49661   0.00000  Uiso   1.00
H15    H     0.87392   0.50930   0.55491   0.00000  Uiso   1.00
N3     N     0.73045   0.11467   0.51297   0.00000  Uiso   1.00
H16    H     0.81897   0.08598   0.46279   0.00000  Uiso   1.00
H17    H     0.74001   0.08376   0.57256   0.00000  Uiso   1.00
N4     N     0.93407   0.38824   0.36116   0.00000  Uiso   1.00
H18    H     0.03075   0.35950   0.31869   0.00000  Uiso   1.00
H19    H     0.87045   0.31259   0.38079   0.00000  Uiso   1.00
N5     N     0.87473   0.64134   0.91781   0.00000  Uiso   1.00
H20    H     0.88324   0.72316   0.94769   0.00000  Uiso   1.00
H21    H     0.95617   0.58363   0.92027   0.00000  Uiso   1.00
