# Generated by REPEAT Assigner based on pymatgen
data_DB0-m5_o23_o25_f0_bcu.sym.8
_audit_creation_date              2022-05-24
_audit_creation_method            REPEAT_Assigner
_cell_length_a                    17.301646
_cell_length_b                    17.289064
_cell_length_c                    17.269568
_cell_angle_alpha                 91.003165
_cell_angle_beta                  119.558170
_cell_angle_gamma                 119.370576
_cell_volume                      3679.446372
_symmetry_space_group_name_H-M    P1
_symmetry_Int_Tables_number       1
loop_
    _symmetry_equiv_pos_site_id
    _symmetry_equiv_pos_as_xyz
    1  x,y,z
loop_
    _atom_site_type_symbol
    _atom_site_label
    _atom_site_fract_x
    _atom_site_fract_y
    _atom_site_fract_z
    _atom_type_partial_charge
    O   O1   0.045435  0.552270  0.873984  -0.514305
    O   O2   0.215513  0.651650  0.926029  -0.588232
    C   C1   0.113119  0.601034  0.852683  0.535817
    O   O3   0.953306  0.331540  0.002327  -0.500674
    O   O4   0.783302  0.212824  0.930938  -0.550597
    C   C2   0.885773  0.242361  0.983154  0.512571
    O   O5   0.173917  0.506297  0.049151  -0.471664
    O   O6   0.222045  0.435759  0.148786  -0.543493
    C   C3   0.244365  0.487665  0.098294  0.442652
    O   O7   0.824888  0.377618  0.827178  -0.508579
    O   O8   0.776852  0.428892  0.708239  -0.571390
    C   C4   0.754543  0.356091  0.737814  0.567496
    O   O9   0.952813  0.450660  0.121553  -0.513849
    O   O10  0.782764  0.351192  0.069480  -0.579466
    C   C5   0.885143  0.401841  0.142843  0.533025
    O   O11  0.045057  0.671415  0.993269  -0.509373
    O   O12  0.215052  0.790069  0.064593  -0.573583
    C   C6   0.112628  0.760592  0.012431  0.516883
    O   O13  0.824473  0.496734  0.946416  -0.469809
    O   O14  0.776393  0.567284  0.846802  -0.560485
    C   C7   0.754026  0.515362  0.897270  0.451282
    O   O15  0.173468  0.625372  0.168386  -0.496190
    O   O16  0.221499  0.574119  0.287303  -0.572777
    C   C8   0.243761  0.646942  0.257766  0.527137
    Cd  Cd1  0.195984  0.647853  0.049017  1.110218
    Cd  Cd2  0.802332  0.355031  0.946514  1.103983
    Cd  Cd3  0.094990  0.451050  0.144548  1.114691
    Cd  Cd4  0.903405  0.551937  0.851009  1.112027
    C   C9   0.438625  0.456432  0.907239  -0.126683
    C   C10  0.425292  0.414452  0.979169  -0.086759
    H   H1   0.586659  0.426575  0.084417  0.116826
    C   C11  0.315671  0.494665  0.074668  0.128948
    C   C12  0.682814  0.508480  0.920989  0.136575
    C   C13  0.452556  0.543284  0.950756  -0.231311
    C   C14  0.440094  0.500777  0.023196  0.994717
    C   C15  0.574867  0.590629  0.017059  -0.194567
    C   C16  0.558872  0.503066  0.972781  0.925822
    C   C17  0.560311  0.547310  0.088513  -0.175180
    C   C18  0.546610  0.460448  0.045286  -0.135071
    C   C19  0.372929  0.498295  0.052370  -0.613461
    C   C20  0.625709  0.505052  0.943404  -0.616934
    H   H2   0.639619  0.664322  0.033780  0.106610
    H   H3   0.411904  0.576661  0.911418  0.111947
    C   C21  0.924650  0.426216  0.526679  -0.008178
    C   C22  0.117171  0.531453  0.584075  -0.001563
    C   C23  0.080166  0.491569  0.484170  -0.373994
    H   H4   0.876175  0.331866  0.404235  0.039622
    H   H5   0.943208  0.377456  0.558956  0.000635
    H   H6   0.188520  0.606025  0.617039  0.007295
    H   H7   0.140347  0.489833  0.626646  0.012836
    H   H8   0.070923  0.423288  0.474049  0.074041
    H   H9   0.141538  0.541706  0.472660  0.096323
    C   C24  0.915668  0.425602  0.238113  -0.005803
    C   C25  0.025647  0.526601  0.580968  0.731821
    C   C26  0.887207  0.399552  0.424569  -0.228467
    C   C27  0.972285  0.476467  0.414450  0.817253
    C   C28  0.984380  0.568830  0.436584  -0.081405
    C   C29  0.002286  0.591585  0.531442  -0.296689
    C   C30  0.941222  0.447794  0.317848  -0.453889
    C   C31  0.056849  0.555328  0.677591  -0.498812
    C   C32  0.082531  0.577397  0.757376  0.014395
    H   H10  0.928583  0.581098  0.520555  0.057223
    H   H11  0.071880  0.666211  0.575176  0.096975
    H   H12  0.859367  0.420573  0.529297  0.017671
    H   H13  0.808196  0.389702  0.377868  0.028071
    H   H14  0.055653  0.626198  0.440216  0.089108
    C   C33  0.488977  0.987704  0.399513  -0.408222
    C   C34  0.532809  0.930630  0.534597  -0.245262
    C   C35  0.606841  0.032377  0.599482  0.066859
    H   H15  0.637020  0.126265  0.483453  0.122033
    H   H16  0.544723  0.977151  0.394285  0.145192
    H   H17  0.502156  0.883013  0.569481  0.044803
    H   H18  0.579920  0.913423  0.521128  0.060636
    H   H19  0.686281  0.066064  0.609804  0.010174
    H   H20  0.621434  0.035166  0.669872  0.043482
    C   C36  0.682691  0.260955  0.673295  -0.079623
    C   C37  0.440161  0.918195  0.441345  0.850363
    C   C38  0.553129  0.087656  0.464280  0.015877
    C   C39  0.556730  0.084799  0.554044  0.353043
    C   C40  0.442728  0.034460  0.530440  -0.252034
    C   C41  0.371304  0.937118  0.457992  0.146772
    C   C42  0.624763  0.181255  0.619328  -0.286300
    C   C43  0.372447  0.821710  0.376156  -0.502412
    C   C44  0.315065  0.742027  0.322288  0.007629
    H   H21  0.307661  0.933673  0.391243  0.008176
    H   H22  0.407662  0.074533  0.501087  0.149819
    C   C45  0.913163  0.902364  0.911058  -0.347634
    C   C46  0.104863  0.037182  0.997713  -0.143509
    C   C47  0.080945  0.108477  0.008428  0.044545
    H   H23  0.884558  0.998906  0.844978  -0.019332
    H   H24  0.909270  0.881649  0.847432  0.066824
    H   H25  0.093992  0.024227  0.928813  0.094774
    H   H26  0.077287  0.142173  0.953805  0.062794
    H   H27  0.146225  0.163624  0.079662  -0.008124
    C   C48  0.916617  0.177949  0.990275  -0.046301
    C   C49  0.026041  0.945125  0.999536  0.638771
    C   C50  0.886834  0.974702  0.904654  0.052571
    C   C51  0.973184  0.058422  0.996498  0.484138
    C   C52  0.984043  0.023831  0.078874  -0.306157
    C   C53  0.025415  0.962957  0.085678  0.106123
    C   C54  0.942295  0.123955  0.993975  -0.357304
    C   C55  0.056743  0.879452  0.001891  -0.411699
    C   C56  0.082005  0.825157  0.005400  0.004908
    H   H28  0.971178  0.894660  0.088070  -0.000305
    H   H29  0.107974  0.998547  0.151835  -0.023957
    H   H30  0.903793  0.981671  0.067439  0.060672
    H   H31  0.853260  0.838858  0.914488  0.102903
    H   H32  0.806331  0.942028  0.891955  0.018555
    H   H33  0.041825  0.084880  0.145713  0.080142
    Cl  Cl1  0.321650  0.296247  0.952526  -0.140081
    Cl  Cl2  0.867402  0.561824  0.346919  -0.127320
    Cl  Cl3  0.357777  0.393537  0.783956  -0.093629
    Cl  Cl4  0.304396  0.850980  0.498065  -0.131366
    Cl  Cl5  0.387173  0.970147  0.283737  0.018179
    Cl  Cl6  0.495121  0.147288  0.404133  -0.096102
    Cl  Cl7  0.443997  0.024728  0.633507  -0.097970
    Cl  Cl8  0.241648  0.082528  0.089955  -0.119240
    Cl  Cl9  0.640448  0.609439  0.211893  -0.096139
