data_DB0-m3_o11_o29_f0_pcu.sym.9_repeat
_audit_creation_date              2024-02-20
_audit_creation_method            'Materials Studio'
_symmetry_space_group_name_H-M    'P1'
_symmetry_Int_Tables_number       1
_symmetry_cell_setting            triclinic
loop_
_symmetry_equiv_pos_as_xyz
  x,y,z
_cell_length_a                    27.6521
_cell_length_b                    11.1387
_cell_length_c                    9.9061
_cell_angle_alpha                 89.9974
_cell_angle_beta                  89.9930
_cell_angle_gamma                 89.9936
loop_
_atom_site_label
_atom_site_type_symbol
_atom_site_fract_x
_atom_site_fract_y
_atom_site_fract_z
_atom_site_U_iso_or_equiv
_atom_site_adp_type
_atom_site_occupancy
O1     O     0.50020   0.32043   0.61118   0.00000  Uiso   1.00
O2     O     0.49828   0.32103   0.37867   0.00000  Uiso   1.00
C1     C     0.49913   0.26469   0.49512   0.00000  Uiso   1.00
O3     O     0.42792   0.49859   0.62166   0.00000  Uiso   1.00
O4     O     0.42599   0.50006   0.38922   0.00000  Uiso   1.00
C2     C     0.40428   0.49921   0.50683   0.00000  Uiso   1.00
Zn1    Zn    0.50039   0.49846   0.65199   0.00000  Uiso   1.00
Zn2    Zn    0.49750   0.50059   0.34495   0.00000  Uiso   1.00
O5     O     0.50002   0.67788   0.61859   0.00000  Uiso   1.00
O6     O     0.49825   0.67897   0.38517   0.00000  Uiso   1.00
O7     O     0.57194   0.49921   0.60812   0.00000  Uiso   1.00
O8     O     0.57000   0.50028   0.37493   0.00000  Uiso   1.00
C3     C     0.49898   0.73434   0.50223   0.00000  Uiso   1.00
C4     C     0.59360   0.49974   0.49013   0.00000  Uiso   1.00
C5     C     0.17544   0.40123   0.55942   0.00000  Uiso   1.00
O9     O     0.20113   0.30792   0.60677   0.00000  Uiso   1.00
N1     N     0.19936   0.49778   0.51209   0.00000  Uiso   1.00
C6     C     0.17514   0.59243   0.46182   0.00000  Uiso   1.00
C7     C     0.27573   0.50480   0.39096   0.00000  Uiso   1.00
C8     C     0.32554   0.50483   0.38954   0.00000  Uiso   1.00
C9     C     0.32639   0.49318   0.63029   0.00000  Uiso   1.00
C10    C     0.27647   0.49252   0.63134   0.00000  Uiso   1.00
C11    C     0.25097   0.49846   0.51166   0.00000  Uiso   1.00
C12    C     0.09966   0.49449   0.50525   0.00000  Uiso   1.00
C13    C     0.12505   0.39770   0.55641   0.00000  Uiso   1.00
C14    C     0.09957   0.29830   0.60113   0.00000  Uiso   1.00
C15    C     0.12521   0.59197   0.45780   0.00000  Uiso   1.00
C16    C     0.35122   0.49913   0.50922   0.00000  Uiso   1.00
H1     H     0.34554   0.48871   0.72523   0.00000  Uiso   1.00
H2     H     0.25742   0.48846   0.72654   0.00000  Uiso   1.00
C17    C     0.64666   0.49928   0.48768   0.00000  Uiso   1.00
C18    C     0.97315   0.40101   0.55760   0.00000  Uiso   1.00
C19    C     0.97417   0.58685   0.43319   0.00000  Uiso   1.00
C20    C     0.94871   0.49381   0.49349   0.00000  Uiso   1.00
C21    C     0.94602   0.31388   0.62454   0.00000  Uiso   1.00
C22    C     0.89641   0.31589   0.62194   0.00000  Uiso   1.00
C23    C     0.87236   0.40496   0.55351   0.00000  Uiso   1.00
C24    C     0.89838   0.49371   0.48987   0.00000  Uiso   1.00
C25    C     0.87346   0.58250   0.42285   0.00000  Uiso   1.00
C26    C     0.82339   0.58193   0.42094   0.00000  Uiso   1.00
N2     N     0.79860   0.49446   0.48452   0.00000  Uiso   1.00
C27    C     0.82233   0.40628   0.55002   0.00000  Uiso   1.00
C28    C     0.72219   0.50155   0.60595   0.00000  Uiso   1.00
C29    C     0.67237   0.50284   0.60740   0.00000  Uiso   1.00
C30    C     0.67147   0.49475   0.36651   0.00000  Uiso   1.00
C31    C     0.72138   0.49331   0.36538   0.00000  Uiso   1.00
C32    C     0.74696   0.49646   0.48512   0.00000  Uiso   1.00
O10    O     0.79716   0.31792   0.61000   0.00000  Uiso   1.00
C33    C     0.02382   0.39785   0.55428   0.00000  Uiso   1.00
C34    C     0.04926   0.49421   0.50110   0.00000  Uiso   1.00
C35    C     0.02465   0.59057   0.44419   0.00000  Uiso   1.00
C36    C     0.04987   0.29955   0.60148   0.00000  Uiso   1.00
H3     H     0.65404   0.50697   0.70361   0.00000  Uiso   1.00
H4     H     0.74175   0.50567   0.70033   0.00000  Uiso   1.00
H5     H     0.87702   0.24644   0.67548   0.00000  Uiso   1.00
H6     H     0.96161   0.24356   0.68464   0.00000  Uiso   1.00
H7     H     0.03311   0.21831   0.63637   0.00000  Uiso   1.00
O11    O     0.19983   0.68857   0.41745   0.00000  Uiso   1.00
C37    C     0.10081   0.68968   0.40763   0.00000  Uiso   1.00
H8     H     0.34391   0.50946   0.29341   0.00000  Uiso   1.00
H9     H     0.25612   0.50838   0.29662   0.00000  Uiso   1.00
H10    H     0.11986   0.76842   0.37261   0.00000  Uiso   1.00
C38    C     0.94827   0.67366   0.36208   0.00000  Uiso   1.00
C39    C     0.89867   0.67147   0.35757   0.00000  Uiso   1.00
O12    O     0.79926   0.67091   0.35882   0.00000  Uiso   1.00
C40    C     0.05132   0.68941   0.40097   0.00000  Uiso   1.00
H11    H     0.96496   0.74395   0.30426   0.00000  Uiso   1.00
H12    H     0.65231   0.49151   0.27153   0.00000  Uiso   1.00
H13    H     0.88023   0.74090   0.30145   0.00000  Uiso   1.00
H14    H     0.74033   0.48815   0.27008   0.00000  Uiso   1.00
H15    H     0.03532   0.77117   0.36469   0.00000  Uiso   1.00
C41    C     0.49825   0.93176   0.39213   0.00000  Uiso   1.00
C42    C     0.49902   0.86591   0.50552   0.00000  Uiso   1.00
H16    H     0.49755   0.88657   0.29531   0.00000  Uiso   1.00
H17    H     0.49962   0.90615   0.60452   0.00000  Uiso   1.00
C43    C     0.49817   0.06486   0.38933   0.00000  Uiso   1.00
C44    C     0.49936   0.13328   0.50026   0.00000  Uiso   1.00
H18    H     0.49708   0.10770   0.29117   0.00000  Uiso   1.00
H19    H     0.50053   0.09488   0.60012   0.00000  Uiso   1.00
C45    C     0.51979   0.58233   0.92574   0.00000  Uiso   1.00
N3     N     0.50332   0.49559   0.85373   0.00000  Uiso   1.00
H20    H     0.53310   0.66275   0.87668   0.00000  Uiso   1.00
H21    H     0.49689   0.41583   0.90253   0.00000  Uiso   1.00
C46    C     0.52367   0.57250   0.07436   0.00000  Uiso   1.00
N4     N     0.49529   0.50460   0.14319   0.00000  Uiso   1.00
H22    H     0.54992   0.62783   0.12659   0.00000  Uiso   1.00
H23    H     0.46681   0.46605   0.09267   0.00000  Uiso   1.00
O13    O     0.12258   0.19828   0.64937   0.00000  Uiso   1.00
C47    C     0.12310   0.11691   0.54198   0.00000  Uiso   1.00
H24    H     0.12005   0.16535   0.44453   0.00000  Uiso   1.00
H25    H     0.09255   0.05307   0.55248   0.00000  Uiso   1.00
H26    H     0.15765   0.06636   0.54308   0.00000  Uiso   1.00
