# Generated by REPEAT Assigner based on pymatgen
data_DB0-m9_o10_o10_f0_sra.sym.7
_audit_creation_date              2022-05-24
_audit_creation_method            REPEAT_Assigner
_cell_length_a                    6.818000
_cell_length_b                    10.937500
_cell_length_c                    12.976800
_cell_angle_alpha                 90.000000
_cell_angle_beta                  90.000000
_cell_angle_gamma                 90.000000
_cell_volume                      967.704307
_symmetry_space_group_name_H-M    P1
_symmetry_Int_Tables_number       1
loop_
    _symmetry_equiv_pos_site_id
    _symmetry_equiv_pos_as_xyz
    1  x,y,z
loop_
    _atom_site_type_symbol
    _atom_site_label
    _atom_site_fract_x
    _atom_site_fract_y
    _atom_site_fract_z
    _atom_type_partial_charge
    O  O1   0.566850  0.859438  0.146842  -0.419809
    O  O2   0.432606  0.165998  0.869484  -0.369703
    O  O3   0.433152  0.140563  0.646841  -0.420117
    O  O4   0.567395  0.834002  0.369484  -0.369653
    O  O5   0.066849  0.640562  0.353160  -0.420114
    O  O6   0.932604  0.334002  0.630516  -0.369654
    O  O7   0.933150  0.359438  0.853159  -0.419783
    O  O8   0.067395  0.665997  0.130516  -0.369706
    O  O9   0.220327  0.872110  0.365162  -0.404322
    O  O10  0.779625  0.103266  0.656738  -0.309139
    O  O11  0.779672  0.127889  0.865163  -0.404330
    O  O12  0.220375  0.896733  0.156739  -0.308888
    O  O13  0.720329  0.627889  0.134837  -0.404339
    O  O14  0.279624  0.396734  0.843262  -0.308887
    O  O15  0.279673  0.372110  0.634838  -0.404320
    O  O16  0.720376  0.603265  0.343263  -0.309160
    C  C1   0.399392  0.879499  0.406200  0.510648
    C  C2   0.599732  0.085955  0.618872  0.360751
    C  C3   0.600606  0.120502  0.906198  0.510568
    C  C4   0.400266  0.914047  0.118871  0.360003
    C  C5   0.899396  0.620502  0.093802  0.510569
    C  C6   0.099732  0.414046  0.881128  0.359981
    C  C7   0.100606  0.379499  0.593800  0.510635
    C  C8   0.900270  0.585955  0.381127  0.360725
    O  O17  0.387090  0.675560  0.244261  -0.265650
    O  O18  0.612911  0.324441  0.744262  -0.265757
    O  O19  0.887088  0.824441  0.255737  -0.265739
    O  O20  0.112912  0.175560  0.755738  -0.265588
    V  V1   0.116566  0.770770  0.251442  1.123719
    V  V2   0.883435  0.229228  0.751442  1.123481
    V  V3   0.616567  0.729227  0.248558  1.123694
    V  V4   0.383433  0.270771  0.748558  1.123815
    C  C9   0.917732  0.485136  0.455855  0.079785
    C  C10  0.087573  0.462282  0.504595  -0.241871
    C  C11  0.082267  0.514863  0.955854  0.080039
    C  C12  0.912426  0.537717  0.004595  -0.241853
    C  C13  0.417734  0.014864  0.044146  0.080012
    C  C14  0.587573  0.037718  0.995405  -0.241817
    C  C15  0.582266  0.985135  0.544146  0.079758
    C  C16  0.412427  0.962281  0.495406  -0.241804
    N  N1   0.747278  0.413270  0.476067  0.567827
    O  O21  0.579630  0.450090  0.439855  -0.282374
    O  O22  0.766386  0.299713  0.503759  -0.385177
    N  N2   0.262503  0.524852  0.475141  0.626194
    O  O23  0.400485  0.538340  0.543343  -0.297180
    O  O24  0.306693  0.534409  0.378029  -0.293332
    N  N3   0.252721  0.586730  0.976067  0.567881
    O  O25  0.420370  0.549910  0.939855  -0.282410
    O  O26  0.233614  0.700288  0.003760  -0.385198
    N  N4   0.737496  0.475147  0.975141  0.626210
    O  O27  0.599516  0.461659  0.043343  -0.297174
    O  O28  0.693307  0.465591  0.878029  -0.293353
    N  N5   0.247279  0.086730  0.023933  0.567878
    O  O29  0.079627  0.049911  0.060145  -0.282437
    O  O30  0.266385  0.200289  0.996239  -0.385167
    N  N6   0.762503  0.975148  0.024859  0.626182
    O  O31  0.900485  0.961659  0.956657  -0.297170
    O  O32  0.806692  0.965590  0.121971  -0.293346
    N  N7   0.752721  0.913270  0.523933  0.567837
    O  O33  0.920372  0.950089  0.560145  -0.282376
    O  O34  0.733616  0.799712  0.496239  -0.385166
    N  N8   0.237498  0.024852  0.524859  0.626149
    O  O35  0.099514  0.038341  0.456657  -0.297181
    O  O36  0.193307  0.034412  0.621972  -0.293296
