# Generated by REPEAT Assigner based on pymatgen
data_DB0-m3_o13_o149_f0_fsc.sym.15
_audit_creation_date              2022-05-24
_audit_creation_method            REPEAT_Assigner
_cell_length_a                    8.522988
_cell_length_b                    10.867739
_cell_length_c                    11.376976
_cell_angle_alpha                 95.513995
_cell_angle_beta                  90.100386
_cell_angle_gamma                 90.001720
_cell_volume                      1048.921439
_symmetry_space_group_name_H-M    P1
_symmetry_Int_Tables_number       1
loop_
    _symmetry_equiv_pos_site_id
    _symmetry_equiv_pos_as_xyz
    1  x,y,z
loop_
    _atom_site_type_symbol
    _atom_site_label
    _atom_site_fract_x
    _atom_site_fract_y
    _atom_site_fract_z
    _atom_type_partial_charge
    C   C1   0.999541  0.684968  0.021883  -0.073177
    C   C2   0.140039  0.742297  0.009112  -0.118633
    C   C3   0.144175  0.866591  0.997232  -0.070023
    C   C4   0.860991  0.745638  0.009512  -0.312915
    C   C5   0.862612  0.872554  0.003823  0.673955
    C   C6   0.005297  0.934904  0.002175  -0.350866
    C   C7   0.005258  0.063300  0.001947  0.466908
    C   C8   0.144043  0.131838  0.007445  -0.397634
    C   C9   0.139802  0.256046  0.995204  -0.021445
    N   N1   0.726408  0.935117  0.002562  -0.653491
    C   C10  0.723850  0.058786  0.000381  0.292884
    C   C11  0.862318  0.124996  0.999537  -0.243275
    C   C12  0.860417  0.252167  0.993528  -0.069586
    C   C13  0.999092  0.312925  0.981575  -0.121093
    H   H1   0.997724  0.589843  0.037976  0.148448
    H   H2   0.997077  0.407973  0.965211  0.110733
    H   H3   0.258102  0.905298  0.984523  0.092879
    H   H4   0.257997  0.093305  0.020690  0.174905
    H   H5   0.612091  0.105458  0.998404  0.039445
    O   O1   0.331924  0.380613  0.101974  -0.734770
    O   O2   0.336502  0.362363  0.898008  -0.738243
    C   C14  0.281782  0.331343  0.998688  0.907516
    O   O3   0.331131  0.617869  0.902238  -0.712231
    O   O4   0.337300  0.636210  0.106115  -0.721703
    C   C15  0.281909  0.667193  0.005542  0.842003
    O   O5   0.669923  0.618374  0.902210  -0.608768
    O   O6   0.664871  0.636835  0.105478  -0.661219
    C   C16  0.718339  0.669909  0.005337  0.764620
    O   O7   0.670698  0.380176  0.101008  -0.728877
    O   O8   0.664094  0.361643  0.897648  -0.716367
    C   C17  0.718407  0.328749  0.997776  0.862026
    Zn  Zn1  0.500589  0.489764  0.870134  1.058886
    Zn  Zn2  0.501633  0.508783  0.133523  1.028383
    N   N2   0.502679  0.522896  0.288269  0.179357
    N   N3   0.500144  0.475773  0.715363  -0.060416
    C   C18  0.498697  0.341195  0.538713  -0.309767
    C   C19  0.498527  0.360280  0.660167  -0.039972
    C   C20  0.502706  0.574827  0.652749  0.318139
    C   C21  0.503114  0.558511  0.530565  -0.056388
    C   C22  0.500888  0.441101  0.473255  0.279814
    C   C23  0.500808  0.424273  0.351302  -0.203779
    C   C24  0.504923  0.638520  0.343074  -0.183714
    C   C25  0.505430  0.658218  0.464489  -0.074873
    H   H6   0.498955  0.332082  0.306208  0.162723
    H   H7   0.506102  0.717143  0.291734  0.182964
    H   H8   0.497148  0.248108  0.495623  0.177428
    H   H9   0.507451  0.751857  0.506117  0.116223
    H   H10  0.497081  0.281424  0.711204  0.164599
    O   O9   0.504707  0.691118  0.710301  -0.403765
    H   H11  0.394729  0.719904  0.706839  0.342153
