# Generated by REPEAT Assigner based on pymatgen
data_DB0-m2_o11_o18_f0_pcu.sym.5_sqe
_audit_creation_date              2022-05-24
_audit_creation_method            REPEAT_Assigner
_cell_length_a                    9.591801
_cell_length_b                    10.981456
_cell_length_c                    15.965311
_cell_angle_alpha                 90.010516
_cell_angle_beta                  72.713055
_cell_angle_gamma                 90.020068
_cell_volume                      1605.694154
_symmetry_space_group_name_H-M    P1
_symmetry_Int_Tables_number       1
loop_
    _symmetry_equiv_pos_site_id
    _symmetry_equiv_pos_as_xyz
    1  x,y,z
loop_
    _atom_site_type_symbol
    _atom_site_label
    _atom_site_fract_x
    _atom_site_fract_y
    _atom_site_fract_z
    _atom_type_partial_charge
    O   O1   0.118075  0.325547  0.510134  -0.585961
    O   O2   0.878699  0.321851  0.507904  -0.588877
    C   C1   0.998303  0.266809  0.511055  0.672364
    O   O3   0.043798  0.509842  0.631962  -0.622545
    O   O4   0.806300  0.510856  0.625417  -0.610265
    C   C2   0.902471  0.513743  0.669837  0.680132
    Cu  Cu1  0.134713  0.503763  0.506056  1.024269
    Cu  Cu2  0.860361  0.497235  0.497375  0.919476
    O   O5   0.117287  0.678455  0.493280  -0.653960
    O   O6   0.876978  0.675166  0.494741  -0.629720
    O   O7   0.187650  0.486623  0.377959  -0.583323
    O   O8   0.952697  0.492750  0.371158  -0.581628
    C   C3   0.997560  0.733337  0.492132  0.792941
    C   C4   0.092819  0.485928  0.333613  0.647464
    C   C5   0.853349  0.524447  0.765860  -0.035716
    C   C6   0.142815  0.474533  0.237983  -0.010352
    C   C7   0.909533  0.567067  0.898560  -0.216959
    C   C8   0.953853  0.554168  0.809130  -0.102702
    C   C9   0.709360  0.503942  0.813482  -0.205654
    C   C10  0.663124  0.514721  0.904936  0.109677
    C   C11  0.766119  0.546955  0.946055  0.177688
    C   C12  0.517472  0.494048  0.956237  -0.006416
    C   C13  0.478508  0.507058  0.047693  0.142483
    C   C14  0.585285  0.543287  0.085505  -0.310174
    C   C15  0.726693  0.560406  0.035270  -0.177180
    C   C16  0.409272  0.461742  0.918514  -0.176167
    C   C17  0.268961  0.441592  0.969085  -0.231201
    C   C18  0.230209  0.454732  0.058154  0.233718
    C   C19  0.333395  0.485622  0.099315  0.013909
    C   C20  0.086031  0.436577  0.105410  -0.229983
    C   C21  0.042328  0.446203  0.194885  -0.119182
    C   C22  0.287230  0.493439  0.191018  -0.174311
    H   H1   0.807347  0.585539  0.066791  0.125378
    H   H2   0.359548  0.514389  0.228752  0.101544
    H   H3   0.928938  0.429286  0.229900  0.131071
    H   H4   0.188947  0.414786  0.937428  0.125085
    H   H5   0.987764  0.593418  0.931642  0.124392
    H   H6   0.067567  0.569044  0.773610  0.118969
    H   H7   0.638278  0.476748  0.776081  0.117654
    H   H8   0.564936  0.560842  0.154430  0.221607
    H   H9   0.426785  0.451829  0.849489  0.142558
    H   H10  0.005221  0.414995  0.072568  0.126181
    C   C23  0.883173  0.934487  0.500723  -0.024170
    C   C24  0.002277  0.866250  0.489319  -0.317017
    H   H11  0.778668  0.891144  0.508407  0.109181
    H   H12  0.108655  0.906970  0.479207  0.167807
    C   C25  0.887226  0.068694  0.501609  -0.003111
    C   C26  0.999842  0.133426  0.512089  -0.297867
    H   H13  0.791290  0.114692  0.495383  0.105954
    H   H14  0.095578  0.090681  0.521310  0.168238
    C   C27  0.411422  0.412396  0.522844  0.088570
    N   N1   0.340884  0.506341  0.510742  -0.350713
    H   H15  0.364092  0.322630  0.525573  0.112894
    H   H16  0.383353  0.587854  0.524036  0.262010
    C   C28  0.552895  0.426549  0.540745  0.047276
    N   N2   0.654953  0.492659  0.491217  -0.079845
    H   H17  0.568180  0.380423  0.597433  0.134896
    Cl  Cl1  0.637868  0.526759  0.388965  -0.020388
