# Generated by REPEAT Assigner based on pymatgen
data_DB0-m3_o1_o20_f0_pcu.sym.39_sqe
_audit_creation_date              2022-05-24
_audit_creation_method            REPEAT_Assigner
_cell_length_a                    11.136655
_cell_length_b                    9.754791
_cell_length_c                    14.539580
_cell_angle_alpha                 90.000000
_cell_angle_beta                  90.002908
_cell_angle_gamma                 90.000000
_cell_volume                      1579.518059
_symmetry_space_group_name_H-M    P1
_symmetry_Int_Tables_number       1
loop_
    _symmetry_equiv_pos_site_id
    _symmetry_equiv_pos_as_xyz
    1  x,y,z
loop_
    _atom_site_type_symbol
    _atom_site_label
    _atom_site_fract_x
    _atom_site_fract_y
    _atom_site_fract_z
    _atom_type_partial_charge
    O   O1   0.321154  0.617077  0.502214  -0.548162
    O   O2   0.678846  0.382923  0.497786  -0.548158
    O   O3   0.678841  0.617079  0.497766  -0.548388
    O   O4   0.321159  0.382921  0.502234  -0.548386
    C   C1   0.262738  0.499997  0.503562  0.483684
    C   C2   0.737262  0.500003  0.496438  0.483681
    O   O5   0.497167  0.617941  0.362946  -0.708905
    O   O6   0.502833  0.382059  0.637054  -0.708912
    O   O7   0.502827  0.617939  0.637044  -0.709034
    O   O8   0.497173  0.382061  0.362957  -0.709037
    C   C3   0.496392  0.499997  0.320112  1.032816
    C   C4   0.503608  0.500003  0.679888  1.032819
    Zn  Zn1  0.499997  0.655186  0.499995  0.996509
    Zn  Zn2  0.500003  0.344814  0.500006  0.996503
    N   N1   0.499997  0.860247  0.499995  0.019576
    N   N2   0.500003  0.139753  0.500005  0.019593
    C   C5   0.496569  0.499990  0.221416  -0.386314
    C   C6   0.503431  0.500010  0.778584  -0.386309
    C   C7   0.497520  0.499991  0.138541  0.173463
    C   C8   0.502480  0.500009  0.861459  0.173455
    C   C9   0.499207  0.499997  0.041435  -0.043989
    C   C10  0.500793  0.500003  0.958565  -0.043981
    C   C11  0.062276  0.377304  0.502744  -0.173988
    C   C12  0.937724  0.622696  0.497256  -0.173977
    C   C13  0.937725  0.377314  0.497068  -0.174178
    C   C14  0.062276  0.622687  0.502932  -0.174189
    C   C15  0.872423  0.500008  0.494837  0.142635
    C   C16  0.127577  0.499992  0.505163  0.142647
    C   C17  0.569281  0.070685  0.559986  -0.019778
    C   C18  0.430719  0.929315  0.440014  -0.019763
    C   C19  0.430724  0.070697  0.440019  -0.019201
    C   C20  0.569277  0.929304  0.559981  -0.019196
    H   H1   0.625040  0.125874  0.608263  0.152046
    H   H2   0.374961  0.874126  0.391738  0.152042
    H   H3   0.374969  0.125896  0.391745  0.152007
    H   H4   0.625032  0.874105  0.608255  0.152010
    C   C21  0.121646  0.242711  0.504663  0.569847
    H   H5   0.175890  0.213432  0.563426  -0.037087
    O   O9   0.112294  0.164317  0.439672  -0.443163
    C   C22  0.878354  0.757290  0.495337  0.569842
    H   H6   0.824110  0.786568  0.436574  -0.037082
    O   O10  0.887707  0.835684  0.560329  -0.443164
    C   C23  0.878354  0.242728  0.494909  0.568585
    H   H7   0.824052  0.213716  0.436118  -0.036536
    O   O11  0.887733  0.164060  0.559750  -0.442464
    C   C24  0.121646  0.757272  0.505091  0.568583
    H   H8   0.175948  0.786284  0.563882  -0.036535
    O   O12  0.112267  0.835940  0.440250  -0.442464
