# Generated by REPEAT Assigner based on pymatgen
data_DB0-m2_o3_o9_f0_pcu.sym.88
_audit_creation_date              2022-05-24
_audit_creation_method            REPEAT_Assigner
_cell_length_a                    10.927071
_cell_length_b                    19.457322
_cell_length_c                    17.889450
_cell_angle_alpha                 89.983859
_cell_angle_beta                  89.983651
_cell_angle_gamma                 90.004452
_cell_volume                      3803.503258
_symmetry_space_group_name_H-M    P1
_symmetry_Int_Tables_number       1
loop_
    _symmetry_equiv_pos_site_id
    _symmetry_equiv_pos_as_xyz
    1  x,y,z
loop_
    _atom_site_type_symbol
    _atom_site_label
    _atom_site_fract_x
    _atom_site_fract_y
    _atom_site_fract_z
    _atom_type_partial_charge
    O   O1   0.499975  0.400370  0.567984  -0.552433
    O   O2   0.502536  0.599038  0.436709  -0.482594
    O   O3   0.497142  0.399284  0.439814  -0.586803
    O   O4   0.506773  0.600107  0.564680  -0.627841
    C   C1   0.498539  0.366947  0.504152  0.813481
    C   C2   0.504941  0.632377  0.500506  0.852422
    O   O5   0.321337  0.499862  0.563442  -0.495183
    O   O6   0.681960  0.499745  0.441529  -0.533387
    O   O7   0.326390  0.502868  0.435497  -0.445931
    O   O8   0.676782  0.495933  0.569546  -0.412585
    C   C3   0.265528  0.502280  0.498559  0.518160
    C   C4   0.737680  0.496464  0.506448  0.466159
    Cu  Cu1  0.498328  0.500642  0.576908  0.729875
    Cu  Cu2  0.505311  0.498460  0.427843  0.719535
    H   H1   0.202955  0.575166  0.159904  0.082725
    H   H2   0.800689  0.434979  0.847559  0.080297
    C   C5   0.196262  0.606565  0.274187  -0.018070
    C   C6   0.809414  0.398585  0.735181  -0.069159
    H   H3   0.237269  0.656001  0.263028  0.082215
    H   H4   0.769919  0.349402  0.749219  0.095403
    C   C7   0.162640  0.589014  0.346068  -0.259267
    C   C8   0.843798  0.413094  0.662583  -0.179934
    H   H5   0.177453  0.624924  0.391295  0.178509
    H   H6   0.831771  0.374958  0.619197  0.130755
    C   C9   0.108051  0.526177  0.359986  0.248940
    C   C10  0.895300  0.476070  0.645618  0.191667
    C   C11  0.085699  0.481690  0.301362  -0.207127
    C   C12  0.913151  0.523914  0.701579  -0.163426
    H   H7   0.041270  0.432894  0.311666  0.108682
    H   H8   0.954173  0.573050  0.688546  0.106191
    C   C13  0.119724  0.499259  0.229623  -0.093731
    C   C14  0.878396  0.509320  0.773956  -0.105985
    H   H9   0.101790  0.464336  0.183888  0.088844
    H   H10  0.891730  0.546904  0.817732  0.084834
    C   C15  0.175566  0.561550  0.216086  -0.158735
    C   C16  0.827129  0.446546  0.790742  -0.123805
    C   C17  0.932085  0.506360  0.439607  -0.110197
    C   C18  0.070940  0.493056  0.565660  -0.121752
    H   H11  0.879174  0.513598  0.389353  0.092775
    H   H12  0.123267  0.485607  0.616262  0.082043
    C   C19  0.873316  0.496149  0.507022  0.027417
    C   C20  0.129870  0.503028  0.498190  0.015934
    C   C21  0.945004  0.489280  0.571063  -0.059711
    C   C22  0.058139  0.510620  0.434126  -0.069379
    C   C23  0.544753  0.746156  0.439280  0.532117
    C   C24  0.463159  0.253351  0.567814  0.443885
    C   C25  0.546881  0.817129  0.441509  -0.408100
    C   C26  0.460993  0.182354  0.566372  -0.372806
    H   H13  0.583398  0.845186  0.394304  0.131844
    H   H14  0.427731  0.154945  0.614881  0.133337
    C   C27  0.505552  0.852265  0.503395  0.173165
    C   C28  0.498727  0.146546  0.504142  0.162948
    C   C29  0.463785  0.815522  0.564203  -0.398529
    C   C30  0.535514  0.182755  0.441865  -0.373190
    H   H15  0.427694  0.842023  0.612421  0.148704
    H   H16  0.568256  0.155585  0.393094  0.129976
    C   C31  0.460937  0.744612  0.563105  0.477152
    C   C32  0.533925  0.253767  0.441082  0.474358
    C   C33  0.502953  0.708634  0.500542  -0.479069
    C   C34  0.498533  0.290521  0.504558  -0.419174
    C   C35  0.537473  0.963963  0.566971  -0.219050
    C   C36  0.465916  0.034702  0.440998  -0.235774
    H   H17  0.568333  0.937243  0.616375  0.125929
    H   H18  0.434590  0.061517  0.391664  0.157787
    C   C37  0.535388  0.034845  0.567320  -0.165847
    C   C38  0.468199  0.963811  0.440635  -0.144163
    H   H19  0.565105  0.061620  0.617084  0.127279
    H   H20  0.438335  0.936940  0.391004  0.126661
    C   C39  0.499752  0.070841  0.504243  0.173286
    C   C40  0.504126  0.927852  0.503647  0.171053
    C   C41  0.409524  0.465325  0.725727  0.002658
    C   C42  0.591703  0.535758  0.278175  -0.028455
    H   H21  0.345096  0.433960  0.695194  0.111271
    H   H22  0.657715  0.566623  0.307915  0.137255
    C   C43  0.406444  0.465989  0.802749  -0.190975
    C   C44  0.593191  0.535747  0.201109  -0.137074
    H   H23  0.337801  0.435876  0.831224  0.081145
    H   H24  0.662379  0.565390  0.172533  0.074122
    C   C45  0.488875  0.505813  0.842378  0.102296
    C   C46  0.508444  0.497290  0.162024  -0.041378
    C   C47  0.568910  0.546917  0.802951  -0.214051
    C   C48  0.427026  0.457231  0.201972  -0.032353
    H   H25  0.634676  0.579217  0.831246  0.123952
    H   H26  0.359705  0.425858  0.173682  0.065339
    C   C49  0.569232  0.545104  0.725992  0.177539
    C   C50  0.429204  0.457756  0.279064  0.185515
    H   H27  0.633430  0.577021  0.695857  0.039974
    H   H28  0.366107  0.425749  0.309966  0.066971
    N   N1   0.494084  0.502123  0.688678  -0.077621
    N   N2   0.508772  0.498229  0.316024  -0.131276
    C   C51  0.515956  0.563136  0.965446  -0.188068
    C   C52  0.481351  0.440336  0.039124  -0.273468
    H   H29  0.529611  0.612053  0.938040  0.108099
    H   H30  0.472518  0.391174  0.066587  0.151189
    C   C53  0.521690  0.560664  0.042442  -0.148329
    C   C54  0.475138  0.442824  0.962226  -0.082616
    H   H31  0.538068  0.607681  0.073101  0.132727
    H   H32  0.462752  0.395438  0.931828  0.106088
    C   C55  0.504259  0.499270  0.079871  0.208686
    C   C56  0.491559  0.504233  0.924660  0.109442
    N   N3   0.413277  0.710211  0.626232  -0.558428
    C   C57  0.293957  0.693350  0.620050  0.797992
    O   O9   0.245631  0.691316  0.558712  -0.569246
    C   C58  0.219968  0.677288  0.688028  -0.585827
    H   H33  0.437160  0.730166  0.677357  0.274891
    H   H34  0.277184  0.680058  0.739123  0.106809
    H   H35  0.182060  0.624689  0.682844  0.184382
    H   H36  0.143368  0.714423  0.692742  0.147546
    N   N4   0.577614  0.287508  0.376542  -0.505156
    C   C59  0.509245  0.275308  0.315219  0.770044
    O   O10  0.401256  0.260744  0.321763  -0.593304
    C   C60  0.564709  0.278949  0.239093  -0.610373
    H   H37  0.670375  0.284098  0.367838  0.269113
    H   H38  0.661276  0.296231  0.242019  0.129327
    H   H39  0.511872  0.315529  0.204354  0.140515
    H   H40  0.560955  0.227365  0.212839  0.171476
    N   N5   0.591907  0.713410  0.375130  -0.654772
    C   C61  0.524310  0.726595  0.313685  0.873884
    O   O11  0.414491  0.736454  0.319274  -0.564672
    C   C62  0.584383  0.731405  0.239120  -0.601442
    H   H41  0.683962  0.721136  0.365976  0.280775
    H   H42  0.634137  0.683150  0.226950  0.161839
    H   H43  0.650052  0.774889  0.238983  0.132891
    H   H44  0.513715  0.740213  0.195692  0.148948
    N   N6   0.427729  0.286253  0.634566  -0.563175
    C   C63  0.509436  0.275801  0.689933  0.845290
    O   O12  0.617202  0.267379  0.675003  -0.587341
    C   C64  0.467974  0.271834  0.769053  -0.574332
    H   H45  0.339036  0.277281  0.651337  0.267619
    H   H46  0.420005  0.319822  0.784538  0.159355
    H   H47  0.548738  0.264590  0.805769  0.155250
    H   H48  0.404894  0.227622  0.775868  0.117910
