data_DB0-m3_o11_o29_f0_pcu.sym.12_repeat
_audit_creation_date              2024-02-20
_audit_creation_method            'Materials Studio'
_symmetry_space_group_name_H-M    'P1'
_symmetry_Int_Tables_number       1
_symmetry_cell_setting            triclinic
loop_
_symmetry_equiv_pos_as_xyz
  x,y,z
_cell_length_a                    27.6262
_cell_length_b                    11.1380
_cell_length_c                    9.9006
_cell_angle_alpha                 89.9974
_cell_angle_beta                  89.9930
_cell_angle_gamma                 89.9936
loop_
_atom_site_label
_atom_site_type_symbol
_atom_site_fract_x
_atom_site_fract_y
_atom_site_fract_z
_atom_site_U_iso_or_equiv
_atom_site_adp_type
_atom_site_occupancy
O1     O     0.50240   0.32572   0.61187   0.00000  Uiso   1.00
O2     O     0.49996   0.32629   0.37927   0.00000  Uiso   1.00
C1     C     0.50120   0.26996   0.49575   0.00000  Uiso   1.00
O3     O     0.42992   0.50304   0.62384   0.00000  Uiso   1.00
O4     O     0.42710   0.50358   0.39117   0.00000  Uiso   1.00
C2     C     0.40585   0.50290   0.50957   0.00000  Uiso   1.00
Zn1    Zn    0.50254   0.50380   0.65248   0.00000  Uiso   1.00
Zn2    Zn    0.49856   0.50581   0.34538   0.00000  Uiso   1.00
O5     O     0.50167   0.68319   0.61884   0.00000  Uiso   1.00
O6     O     0.49884   0.68424   0.38543   0.00000  Uiso   1.00
O7     O     0.57403   0.50495   0.60686   0.00000  Uiso   1.00
O8     O     0.57120   0.50668   0.37385   0.00000  Uiso   1.00
C3     C     0.50000   0.73965   0.50250   0.00000  Uiso   1.00
C4     C     0.59532   0.50646   0.48825   0.00000  Uiso   1.00
C5     C     0.17686   0.39683   0.49520   0.00000  Uiso   1.00
O9     O     0.20179   0.29523   0.47240   0.00000  Uiso   1.00
N1     N     0.20096   0.49922   0.52151   0.00000  Uiso   1.00
C6     C     0.17673   0.60177   0.54615   0.00000  Uiso   1.00
C7     C     0.27685   0.47861   0.40006   0.00000  Uiso   1.00
C8     C     0.32670   0.48046   0.39680   0.00000  Uiso   1.00
C9     C     0.32838   0.52147   0.63360   0.00000  Uiso   1.00
C10    C     0.27843   0.52160   0.63606   0.00000  Uiso   1.00
C11    C     0.25255   0.49967   0.51940   0.00000  Uiso   1.00
C12    C     0.10125   0.49977   0.51652   0.00000  Uiso   1.00
C13    C     0.12678   0.39560   0.49370   0.00000  Uiso   1.00
C14    C     0.10217   0.29097   0.46748   0.00000  Uiso   1.00
C15    C     0.12664   0.60352   0.54276   0.00000  Uiso   1.00
C16    C     0.35278   0.50148   0.51367   0.00000  Uiso   1.00
H1     H     0.34792   0.53858   0.72616   0.00000  Uiso   1.00
H2     H     0.25962   0.53769   0.73010   0.00000  Uiso   1.00
H3     H     0.12120   0.20829   0.44648   0.00000  Uiso   1.00
C17    C     0.64852   0.50566   0.48521   0.00000  Uiso   1.00
C18    C     0.97530   0.39329   0.49748   0.00000  Uiso   1.00
C19    C     0.97554   0.60916   0.51374   0.00000  Uiso   1.00
C20    C     0.95047   0.50155   0.50311   0.00000  Uiso   1.00
C21    C     0.94864   0.28709   0.49775   0.00000  Uiso   1.00
C22    C     0.89895   0.28889   0.49698   0.00000  Uiso   1.00
C23    C     0.87449   0.39628   0.49520   0.00000  Uiso   1.00
C24    C     0.90015   0.50219   0.49814   0.00000  Uiso   1.00
C25    C     0.87490   0.60874   0.49626   0.00000  Uiso   1.00
C26    C     0.82484   0.60807   0.49049   0.00000  Uiso   1.00
N2     N     0.80048   0.50342   0.48926   0.00000  Uiso   1.00
C27    C     0.82442   0.39819   0.49213   0.00000  Uiso   1.00
C28    C     0.72341   0.46363   0.59811   0.00000  Uiso   1.00
C29    C     0.67355   0.46568   0.59763   0.00000  Uiso   1.00
C30    C     0.67430   0.54524   0.37335   0.00000  Uiso   1.00
C31    C     0.72426   0.54531   0.37559   0.00000  Uiso   1.00
C32    C     0.74890   0.50394   0.48745   0.00000  Uiso   1.00
O10    O     0.79934   0.29485   0.48957   0.00000  Uiso   1.00
C33    C     0.02595   0.39353   0.49282   0.00000  Uiso   1.00
C34    C     0.05091   0.50029   0.51255   0.00000  Uiso   1.00
C35    C     0.02596   0.60762   0.52794   0.00000  Uiso   1.00
C36    C     0.05249   0.28957   0.46732   0.00000  Uiso   1.00
H4     H     0.65445   0.43376   0.68586   0.00000  Uiso   1.00
H5     H     0.74248   0.43177   0.68646   0.00000  Uiso   1.00
H6     H     0.87982   0.20430   0.49763   0.00000  Uiso   1.00
H7     H     0.96480   0.19945   0.50342   0.00000  Uiso   1.00
H8     H     0.03622   0.20497   0.44151   0.00000  Uiso   1.00
O11    O     0.20154   0.70330   0.57023   0.00000  Uiso   1.00
C37    C     0.10187   0.70852   0.56584   0.00000  Uiso   1.00
H9     H     0.34483   0.46412   0.30185   0.00000  Uiso   1.00
H10    H     0.25681   0.46214   0.30811   0.00000  Uiso   1.00
H11    H     0.12072   0.79084   0.58962   0.00000  Uiso   1.00
C38    C     0.94937   0.71603   0.50835   0.00000  Uiso   1.00
C39    C     0.89978   0.71551   0.49938   0.00000  Uiso   1.00
O12    O     0.80014   0.71201   0.48948   0.00000  Uiso   1.00
C40    C     0.05225   0.71091   0.55833   0.00000  Uiso   1.00
H12    H     0.96601   0.80324   0.50600   0.00000  Uiso   1.00
H13    H     0.88105   0.80058   0.49521   0.00000  Uiso   1.00
H14    H     0.74412   0.57709   0.28855   0.00000  Uiso   1.00
H15    H     0.03572   0.79577   0.58171   0.00000  Uiso   1.00
C41    C     0.49935   0.93712   0.39245   0.00000  Uiso   1.00
C42    C     0.49981   0.87121   0.50585   0.00000  Uiso   1.00
H16    H     0.49882   0.89200   0.29553   0.00000  Uiso   1.00
H17    H     0.49998   0.91145   0.60494   0.00000  Uiso   1.00
C43    C     0.49923   0.07023   0.38984   0.00000  Uiso   1.00
C44    C     0.50167   0.13854   0.50077   0.00000  Uiso   1.00
H18    H     0.49718   0.11316   0.29179   0.00000  Uiso   1.00
H19    H     0.50406   0.10002   0.60046   0.00000  Uiso   1.00
C45    C     0.51845   0.59178   0.92664   0.00000  Uiso   1.00
N3     N     0.50608   0.50113   0.85426   0.00000  Uiso   1.00
H20    H     0.52839   0.67535   0.87801   0.00000  Uiso   1.00
H21    H     0.50265   0.42036   0.90338   0.00000  Uiso   1.00
C46    C     0.52221   0.58278   0.07532   0.00000  Uiso   1.00
N4     N     0.49583   0.50955   0.14354   0.00000  Uiso   1.00
H22    H     0.54647   0.64311   0.12815   0.00000  Uiso   1.00
H23    H     0.46899   0.46501   0.09213   0.00000  Uiso   1.00
O13    O     0.65100   0.58819   0.26159   0.00000  Uiso   1.00
H24    H     0.65197   0.52090   0.19628   0.00000  Uiso   1.00
