# Generated by REPEAT Assigner based on pymatgen
data_DB0-m3_o8_o17_f0_pcu.sym.145
_audit_creation_date              2022-05-24
_audit_creation_method            REPEAT_Assigner
_cell_length_a                    15.123131
_cell_length_b                    15.888078
_cell_length_c                    17.111389
_cell_angle_alpha                 89.121544
_cell_angle_beta                  90.004941
_cell_angle_gamma                 92.770927
_cell_volume                      4106.190797
_symmetry_space_group_name_H-M    P1
_symmetry_Int_Tables_number       1
loop_
    _symmetry_equiv_pos_site_id
    _symmetry_equiv_pos_as_xyz
    1  x,y,z
loop_
    _atom_site_type_symbol
    _atom_site_label
    _atom_site_fract_x
    _atom_site_fract_y
    _atom_site_fract_z
    _atom_type_partial_charge
    O   O1   0.490747  0.430648  0.625406  -0.697253
    O   O2   0.507611  0.565669  0.383060  -0.697534
    O   O3   0.502273  0.575665  0.615563  -0.673410
    O   O4   0.495694  0.420914  0.392917  -0.669759
    C   C1   0.495959  0.505503  0.657003  0.759147
    C   C2   0.502466  0.490888  0.351423  0.797181
    O   O5   0.624912  0.423722  0.512052  -0.671126
    O   O6   0.373071  0.572488  0.496421  -0.689906
    O   O7   0.636230  0.568783  0.501885  -0.706762
    O   O8   0.361669  0.427882  0.506872  -0.620782
    C   C3   0.672028  0.495309  0.508648  0.871698
    C   C4   0.325754  0.501298  0.500422  0.802600
    Zn  Zn1  0.491711  0.402638  0.510286  1.023879
    Zn  Zn2  0.506174  0.593795  0.498158  1.071355
    C   C5   0.183002  0.566616  0.463042  0.326384
    C   C6   0.814076  0.431673  0.549560  0.363228
    C   C7   0.228456  0.503132  0.500374  -0.246685
    C   C8   0.769228  0.493952  0.509992  -0.240733
    C   C9   0.180891  0.438920  0.539062  -0.179023
    C   C10  0.816886  0.557128  0.470059  -0.237006
    C   C11  0.089837  0.437965  0.542072  0.180987
    C   C12  0.907896  0.558532  0.468018  0.192543
    C   C13  0.044554  0.499360  0.503878  0.063948
    C   C14  0.952898  0.496800  0.506077  0.012908
    C   C15  0.091001  0.563706  0.464161  -0.086148
    C   C16  0.906415  0.433691  0.547613  -0.006075
    C   C17  0.044148  0.375945  0.584689  -0.249238
    C   C18  0.953856  0.622558  0.428081  -0.250416
    C   C19  0.953263  0.374496  0.588722  -0.099395
    C   C20  0.044862  0.625605  0.426369  -0.055857
    H   H1   0.215095  0.390100  0.569541  0.111588
    H   H2   0.782800  0.605599  0.438970  0.144245
    H   H3   0.079411  0.328451  0.616052  0.139295
    H   H4   0.918766  0.671280  0.398290  0.137919
    H   H5   0.920668  0.325647  0.624242  0.113824
    H   H6   0.078235  0.677297  0.394890  0.076170
    C   C21  0.496831  0.511437  0.742470  -0.117905
    C   C22  0.503283  0.484624  0.265966  -0.158682
    C   C23  0.504889  0.589355  0.777212  -0.143584
    C   C24  0.489320  0.407087  0.231412  -0.105512
    C   C25  0.508225  0.595584  0.857588  0.197349
    C   C26  0.487508  0.400622  0.151024  0.173981
    C   C27  0.501429  0.523666  0.904182  0.283442
    C   C28  0.501410  0.471786  0.104264  0.290807
    C   C29  0.492814  0.445301  0.869284  -0.232648
    C   C30  0.516711  0.549626  0.138973  -0.229297
    C   C31  0.490851  0.439554  0.788940  -0.082810
    C   C32  0.517658  0.555638  0.219305  -0.061014
    N   N1   0.505325  0.532050  0.986379  -0.171092
    N   N2   0.497734  0.463351  0.022069  -0.165977
    H   H7   0.479406  0.350423  0.266687  0.162902
    H   H8   0.508534  0.646534  0.742105  0.163808
    H   H9   0.487866  0.386937  0.902651  0.103161
    H   H10  0.528374  0.607312  0.105442  0.096993
    H   H11  0.484583  0.377871  0.763204  0.120279
    H   H12  0.529994  0.616818  0.244930  0.107955
    N   N3   0.514364  0.719668  0.491808  -0.147040
    N   N4   0.483074  0.276742  0.516352  -0.133507
    C   C33  0.465247  0.761994  0.542140  0.071446
    C   C34  0.521049  0.233805  0.459078  0.027386
    C   C35  0.465554  0.848732  0.539363  -0.187941
    C   C36  0.518746  0.146955  0.460782  -0.156139
    C   C37  0.516746  0.892664  0.483769  0.498585
    C   C38  0.476704  0.103542  0.522159  0.486290
    C   C39  0.566437  0.847986  0.432760  -0.351931
    C   C40  0.436767  0.148745  0.579304  -0.334026
    C   C41  0.564632  0.761158  0.437455  0.084103
    C   C42  0.440543  0.235637  0.575711  0.093723
    N   N5   0.519269  0.981650  0.477454  -0.227605
    N   N6   0.474116  0.014564  0.528388  -0.223086
    H   H13  0.554999  0.267520  0.411736  0.138228
    H   H14  0.424488  0.727710  0.584921  0.119552
    H   H15  0.550730  0.115729  0.413567  0.078736
    H   H16  0.424579  0.879393  0.580984  0.077014
    H   H17  0.606688  0.881071  0.388854  0.153757
    H   H18  0.403306  0.116030  0.627515  0.141227
    H   H19  0.603275  0.726406  0.397009  0.149795
    H   H20  0.409693  0.270691  0.621040  0.137214
    N   N7   0.228794  0.634147  0.423512  -0.602131
    C   C43  0.253779  0.618467  0.349678  0.950763
    O   O9   0.223439  0.556083  0.316601  -0.593773
    C   C44  0.317000  0.678077  0.307531  -0.758274
    H   H21  0.266562  0.677282  0.454935  0.273521
    H   H22  0.337607  0.731613  0.345298  0.142481
    H   H23  0.284682  0.702589  0.254237  0.171873
    H   H24  0.376137  0.644326  0.290490  0.239052
    N   N8   0.767579  0.372967  0.599320  -0.776763
    C   C45  0.755190  0.293986  0.571875  0.923637
    O   O10  0.792116  0.273914  0.512106  -0.607062
    C   C46  0.699283  0.229865  0.616300  -0.626999
    H   H25  0.719516  0.393872  0.635847  0.375684
    H   H26  0.669628  0.258315  0.668300  0.127995
    H   H27  0.740912  0.177876  0.635596  0.163163
    H   H28  0.646008  0.204003  0.578147  0.157063
    N   N9   0.474676  0.320602  0.116699  -0.592377
    C   C47  0.391452  0.286185  0.121582  0.742695
    O   O11  0.338647  0.312912  0.167796  -0.534689
    C   C48  0.363302  0.215946  0.069099  -0.480790
    H   H29  0.506704  0.309772  0.065032  0.285519
    H   H30  0.369187  0.237537  0.007285  0.117630
    H   H31  0.293460  0.195851  0.081749  0.142577
    H   H32  0.406031  0.162045  0.079223  0.124141
    N   N10  0.514581  0.675899  0.892130  -0.599132
    C   C49  0.594520  0.717028  0.885691  0.759426
    O   O12  0.648608  0.695086  0.838229  -0.560756
    C   C50  0.617558  0.788884  0.937971  -0.490971
    H   H33  0.482834  0.683839  0.944493  0.288760
    H   H34  0.615244  0.766777  0.999773  0.126904
    H   H35  0.569606  0.838796  0.929056  0.127062
    H   H36  0.685237  0.814706  0.923970  0.144046
