# Generated by REPEAT Assigner based on pymatgen
data_DB0-m3_o151_o15_f0_fsc.sym.11
_audit_creation_date              2022-05-24
_audit_creation_method            REPEAT_Assigner
_cell_length_a                    9.366147
_cell_length_b                    8.568317
_cell_length_c                    19.350104
_cell_angle_alpha                 90.000000
_cell_angle_beta                  91.071001
_cell_angle_gamma                 90.000000
_cell_volume                      1552.615500
_symmetry_space_group_name_H-M    P1
_symmetry_Int_Tables_number       1
loop_
    _symmetry_equiv_pos_site_id
    _symmetry_equiv_pos_as_xyz
    1  x,y,z
loop_
    _atom_site_type_symbol
    _atom_site_label
    _atom_site_fract_x
    _atom_site_fract_y
    _atom_site_fract_z
    _atom_type_partial_charge
    H   H1   0.055061  0.000763  0.548583  0.125363
    H   H2   0.944939  0.000763  0.451417  0.125379
    C   C1   0.009011  0.139485  0.635814  -0.096085
    C   C2   0.992028  0.861741  0.364448  -0.093326
    C   C3   0.990989  0.139485  0.364186  -0.096063
    C   C4   0.007973  0.861741  0.635552  -0.093344
    C   C5   0.988426  0.140559  0.706230  -0.104859
    C   C6   0.018274  0.860760  0.294615  -0.117104
    C   C7   0.011574  0.140559  0.293770  -0.104861
    C   C8   0.981726  0.860760  0.705385  -0.117111
    H   H3   0.984828  0.251919  0.732029  0.068982
    H   H4   0.036772  0.750117  0.269741  0.086777
    H   H5   0.015172  0.251919  0.267971  0.068982
    H   H6   0.963229  0.750118  0.730259  0.086786
    C   C9   0.981576  0.000124  0.742315  0.015611
    C   C10  0.018424  0.000124  0.257685  0.015601
    C   C11  0.029767  0.000640  0.602426  -0.093910
    C   C12  0.970233  0.000640  0.397574  -0.093939
    C   C13  0.962037  0.868708  0.074239  -0.157748
    C   C14  0.942898  0.126257  0.927231  -0.144617
    C   C15  0.037963  0.868708  0.925761  -0.157775
    C   C16  0.057102  0.126257  0.072769  -0.144575
    H   H7   0.918163  0.768635  0.047283  0.108740
    H   H8   0.906146  0.226819  0.955549  0.108282
    H   H9   0.081837  0.768635  0.952717  0.108740
    H   H10  0.093854  0.226819  0.044451  0.108276
    C   C17  0.966683  0.869724  0.145450  -0.131361
    C   C18  0.932553  0.125331  0.855982  -0.207759
    C   C19  0.033317  0.869724  0.854550  -0.131325
    C   C20  0.067447  0.125331  0.144018  -0.207788
    H   H11  0.922335  0.770727  0.171943  0.098034
    H   H12  0.885712  0.225502  0.830676  0.149548
    H   H13  0.077665  0.770727  0.828057  0.098024
    H   H14  0.114288  0.225502  0.169325  0.149547
    C   C21  0.020361  0.997708  0.181320  0.134036
    C   C22  0.979640  0.997708  0.818680  0.134003
    C   C23  0.004947  0.997761  0.037721  0.082978
    C   C24  0.995053  0.997761  0.962279  0.083012
    O   O1   0.126053  0.670479  0.568483  -0.681848
    O   O2   0.873867  0.330824  0.431431  -0.683257
    O   O3   0.873947  0.670479  0.431517  -0.681843
    O   O4   0.126133  0.330824  0.568569  -0.683258
    O   O5   0.880109  0.664574  0.574093  -0.644597
    O   O6   0.119734  0.336364  0.425937  -0.655886
    O   O7   0.119892  0.664574  0.425907  -0.644595
    O   O8   0.880266  0.336364  0.574063  -0.655888
    C   C25  0.005135  0.719866  0.593752  0.798250
    C   C26  0.994498  0.281462  0.406038  0.816448
    C   C27  0.994865  0.719866  0.406248  0.798237
    C   C28  0.005502  0.281462  0.593961  0.816468
    Zn  Zn1  0.839928  0.500541  0.501494  1.006547
    Zn  Zn2  0.160072  0.500541  0.498506  1.006567
    C   C29  0.644225  0.500665  0.376526  -0.119509
    C   C30  0.355776  0.500665  0.623474  -0.119508
    C   C31  0.572751  0.500697  0.314339  -0.198960
    C   C32  0.427249  0.500697  0.685661  -0.198965
    C   C33  0.427410  0.500668  0.312531  0.152192
    C   C34  0.572591  0.500668  0.687468  0.152196
    C   C35  0.356118  0.500575  0.373617  -0.273855
    C   C36  0.643883  0.500575  0.626383  -0.273852
    C   C37  0.425132  0.500538  0.438565  0.159797
    C   C38  0.574868  0.500538  0.561434  0.159768
    C   C39  0.575100  0.500562  0.440216  0.117361
    C   C40  0.424900  0.500562  0.559784  0.117399
    N   N1   0.349158  0.500514  0.498354  -0.086263
    N   N2   0.650843  0.500514  0.501646  -0.086225
    H   H15  0.755390  0.500763  0.369407  0.135916
    H   H16  0.244611  0.500763  0.630593  0.135908
    H   H17  0.635753  0.500842  0.268275  0.133545
    H   H18  0.364247  0.500842  0.731724  0.133550
    H   H19  0.244801  0.500419  0.365198  0.130890
    H   H20  0.755200  0.500419  0.634802  0.130896
    C   C41  0.659481  0.500646  0.753344  0.159734
    C   C42  0.569967  0.498842  0.817870  -0.258869
    H   H21  0.502548  0.605119  0.819767  0.060792
    H   H22  0.503127  0.392034  0.818802  0.055928
    H   H23  0.642204  0.498051  0.863938  0.053635
    H   H24  0.729340  0.396187  0.754032  -0.006501
    H   H25  0.727820  0.606310  0.754648  -0.003111
    C   C43  0.340519  0.500646  0.246656  0.159791
    C   C44  0.430033  0.498842  0.182130  -0.258946
    H   H26  0.497452  0.605119  0.180233  0.060798
    H   H27  0.496873  0.392034  0.181198  0.055945
    H   H28  0.357796  0.498051  0.136061  0.053654
    H   H29  0.270660  0.396187  0.245968  -0.006512
    H   H30  0.272180  0.606310  0.245352  -0.003115
