# Generated by REPEAT Assigner based on pymatgen
data_DB0-m3_o22_o24_f0_nbo.sym.129
_audit_creation_date              2022-05-24
_audit_creation_method            REPEAT_Assigner
_cell_length_a                    18.489080
_cell_length_b                    18.661690
_cell_length_c                    18.698453
_cell_angle_alpha                 109.583221
_cell_angle_beta                  109.386749
_cell_angle_gamma                 109.166402
_cell_volume                      4983.369856
_symmetry_space_group_name_H-M    P1
_symmetry_Int_Tables_number       1
loop_
    _symmetry_equiv_pos_site_id
    _symmetry_equiv_pos_as_xyz
    1  x,y,z
loop_
    _atom_site_type_symbol
    _atom_site_label
    _atom_site_fract_x
    _atom_site_fract_y
    _atom_site_fract_z
    _atom_type_partial_charge
    O   O1   0.597596  0.536610  0.445601  -0.694099
    O   O2   0.589732  0.640662  0.547830  -0.707820
    C   C1   0.622807  0.618215  0.497421  0.578095
    O   O3   0.411724  0.447219  0.352107  -0.718279
    O   O4   0.403730  0.548565  0.457185  -0.696631
    C   C2   0.379147  0.497896  0.375639  0.601003
    Zn  Zn1  0.502805  0.427776  0.427027  1.327594
    Zn  Zn2  0.497575  0.565153  0.565464  1.312884
    O   O5   0.410782  0.352210  0.444797  -0.714880
    O   O6   0.402665  0.456310  0.546692  -0.680421
    O   O7   0.596807  0.444649  0.535400  -0.691338
    O   O8   0.588512  0.545500  0.640245  -0.711692
    C   C3   0.377327  0.374692  0.494829  0.522675
    C   C4   0.621261  0.494904  0.617058  0.523212
    C   C5   0.313508  0.580676  0.308701  -0.097014
    C   C6   0.216491  0.540841  0.282992  -0.127853
    H   H1   0.185406  0.575265  0.310773  0.062285
    H   H2   0.366383  0.648053  0.361309  0.044540
    C   C7   0.192950  0.500668  0.188352  0.316016
    C   C8   0.288788  0.540519  0.212915  -0.118456
    C   C9   0.287351  0.458134  0.211741  -0.104768
    C   C10  0.190378  0.418352  0.186004  -0.126620
    C   C11  0.215086  0.458574  0.281853  -0.112358
    C   C12  0.310907  0.498363  0.306389  0.312832
    H   H3   0.318229  0.574683  0.182982  0.052672
    H   H4   0.318102  0.423696  0.183352  0.055145
    H   H5   0.137560  0.350964  0.133375  0.059671
    H   H6   0.186283  0.424432  0.312142  0.064895
    C   C13  0.725647  0.651013  0.440614  -0.201706
    H   H7   0.671131  0.605344  0.372089  0.045177
    H   H8   0.755581  0.615507  0.465087  0.029187
    C   C14  0.795313  0.723862  0.442391  0.048702
    H   H9   0.858433  0.723415  0.468032  0.010412
    H   H10  0.774828  0.712528  0.374953  -0.023450
    H   H11  0.593998  0.689505  0.395530  0.026193
    H   H12  0.695285  0.785454  0.391119  0.075073
    C   C15  0.649703  0.736723  0.463191  -0.091783
    C   C16  0.766800  0.752942  0.590975  -0.149978
    C   C17  0.690987  0.689190  0.498035  0.404587
    H   H13  0.743286  0.783605  0.633153  0.014635
    H   H14  0.794821  0.717337  0.617383  0.023740
    C   C18  0.807336  0.811359  0.500216  0.296483
    C   C19  0.717707  0.807751  0.461301  -0.208667
    C   C20  0.837996  0.823235  0.591715  0.050899
    H   H15  0.897430  0.815910  0.612982  -0.007447
    H   H16  0.856201  0.889282  0.639693  -0.036782
    H   H17  0.622696  0.763528  0.503317  0.010728
    C   C21  0.666043  0.401844  0.666393  -0.120321
    H   H18  0.653463  0.361899  0.599897  0.019406
    H   H19  0.605836  0.372118  0.670399  -0.000380
    C   C22  0.741436  0.402433  0.731862  -0.049131
    H   H20  0.714435  0.361379  0.757757  0.016265
    H   H21  0.773487  0.374544  0.698969  0.002763
    H   H22  0.774776  0.497586  0.629957  0.024876
    H   H23  0.889771  0.523151  0.746096  0.009015
    C   C23  0.777847  0.538366  0.690948  -0.143618
    C   C24  0.698899  0.545465  0.774871  -0.150402
    C   C25  0.690346  0.495125  0.686828  0.468448
    H   H24  0.724970  0.615733  0.794569  0.017098
    H   H25  0.633818  0.518783  0.771275  0.035078
    C   C26  0.808385  0.495898  0.805040  0.326997
    C   C27  0.849853  0.547960  0.768325  -0.047127
    C   C28  0.761932  0.536661  0.843041  -0.055843
    H   H26  0.724519  0.494557  0.862490  0.011666
    H   H27  0.811077  0.602236  0.901370  0.014936
    H   H28  0.792755  0.603875  0.698329  0.025274
    H   H29  0.892425  0.618202  0.819052  0.005016
    C   C29  0.236772  0.234572  0.399941  -0.074572
    H   H30  0.266109  0.209354  0.361619  0.017745
    H   H31  0.201160  0.262875  0.368874  0.000326
    C   C30  0.172513  0.159060  0.399871  -0.130507
    H   H32  0.104492  0.142282  0.356768  0.027787
    H   H33  0.181043  0.101388  0.374022  0.019286
    H   H34  0.371434  0.226303  0.499144  0.007237
    H   H35  0.280786  0.136521  0.524696  0.025620
    C   C31  0.348735  0.262424  0.538482  -0.092460
    C   C32  0.266141  0.343099  0.541492  -0.137651
    C   C33  0.307787  0.304268  0.493537  0.429878
    H   H36  0.315190  0.387328  0.612139  0.014946
    H   H37  0.241903  0.380117  0.513997  0.029275
    C   C34  0.190123  0.185500  0.492689  0.388323
    C   C35  0.280593  0.199491  0.547463  -0.113623
    C   C36  0.188841  0.270261  0.530972  -0.044131
    H   H38  0.126462  0.263390  0.486694  0.004904
    H   H39  0.193613  0.286346  0.595677  0.003484
    H   H40  0.405978  0.313630  0.604262  0.026912
    H   H41  0.298240  0.227528  0.617257  0.012568
    O   O9   0.941644  0.536072  0.087082  -0.690098
    O   O10  0.052649  0.642571  0.090407  -0.715315
    C   C37  0.996413  0.618339  0.117187  0.538078
    O   O11  0.041253  0.449708  0.092620  -0.715291
    O   O12  0.149457  0.552897  0.089361  -0.701501
    C   C38  0.124144  0.501400  0.119898  0.614474
    Zn  Zn3  0.930510  0.428896  0.997489  1.318971
    Zn  Zn4  0.071627  0.569491  0.997958  1.328422
    O   O13  0.950028  0.355743  0.905611  -0.712864
    O   O14  0.059817  0.462327  0.907667  -0.698745
    O   O15  0.852776  0.444977  0.905515  -0.696469
    O   O16  0.960810  0.549134  0.903348  -0.714426
    C   C39  0.005683  0.380057  0.878220  0.552820
    C   C40  0.877789  0.496596  0.874973  0.555134
    O   O17  0.047270  0.902102  0.455001  -0.708488
    O   O18  0.942689  0.906104  0.349122  -0.708786
    C   C41  0.994615  0.874722  0.372877  0.528312
    O   O19  0.960229  0.909010  0.553652  -0.696816
    O   O20  0.853478  0.908328  0.445467  -0.655534
    C   C42  0.877308  0.881170  0.500854  0.534238
    Zn  Zn5  0.069439  0.997311  0.565759  1.324776
    Zn  Zn6  0.928670  0.999886  0.427413  1.309954
    O   O21  0.055439  0.091042  0.644086  -0.704543
    O   O22  0.950908  0.095180  0.538188  -0.695198
    O   O23  0.144794  0.088773  0.547602  -0.707137
    O   O24  0.037681  0.088137  0.439293  -0.693343
    C   C43  0.004362  0.123169  0.620342  0.521069
    C   C44  0.120499  0.116470  0.492703  0.552279
    C   C45  0.915584  0.647676  0.195490  -0.093350
    H   H42  0.921715  0.603649  0.222015  0.011691
    H   H43  0.854271  0.610030  0.131168  0.009693
    C   C46  0.909990  0.719746  0.257811  -0.050207
    H   H44  0.853452  0.725544  0.220640  0.001098
    H   H45  0.899917  0.703493  0.306845  -0.006969
    H   H46  0.086107  0.680125  0.287574  0.029815
    H   H47  0.063530  0.765023  0.386306  0.018412
    C   C47  0.078549  0.730704  0.272444  -0.116185
    C   C48  0.992045  0.756753  0.161391  -0.082238
    C   C49  0.995485  0.687653  0.185849  0.396342
    H   H48  0.046225  0.783030  0.148151  0.023646
    H   H49  0.927940  0.727462  0.102027  0.004415
    C   C50  0.994752  0.805431  0.303395  0.431766
    C   C51  0.072531  0.792930  0.344011  -0.125223
    C   C52  0.001878  0.831570  0.236285  -0.125432
    H   H50  0.949284  0.846765  0.209603  0.027012
    H   H51  0.067104  0.890186  0.267486  0.014977
    H   H52  0.136756  0.767612  0.268832  0.017530
    H   H53  0.134895  0.856463  0.383511  0.030547
    C   C53  0.958166  0.222653  0.800727  -0.202397
    H   H54  0.886759  0.200777  0.774091  0.039332
    H   H55  0.985733  0.227143  0.865570  0.050364
    C   C54  0.969867  0.156184  0.739269  -0.083399
    H   H56  0.016627  0.140910  0.777603  0.008855
    H   H57  0.905714  0.095310  0.692332  0.032935
    H   H58  0.893282  0.297393  0.708586  0.004730
    H   H59  0.879320  0.176316  0.609625  0.087891
    C   C55  0.959455  0.305612  0.722051  -0.031129
    C   C56  0.100261  0.332793  0.830854  -0.063256
    C   C57  0.006064  0.310969  0.808842  0.383901
    H   H60  0.138886  0.399670  0.843488  0.012610
    H   H61  0.132353  0.328620  0.889898  0.003934
    C   C58  0.005760  0.193424  0.690220  0.476126
    C   C59  0.949583  0.228142  0.650054  -0.277819
    C   C60  0.099388  0.268483  0.754551  -0.121214
    H   H62  0.143725  0.244260  0.779812  0.022023
    H   H63  0.123700  0.301893  0.721535  0.019371
    H   H64  0.998610  0.366595  0.724202  0.014571
    H   H65  0.971192  0.249927  0.608736  0.044670
    C   C61  0.718251  0.893409  0.499820  0.189840
    C   C62  0.701881  0.931017  0.448048  -0.106810
    C   C63  0.697346  0.006759  0.478685  0.038312
    Cl  Cl1  0.678365  0.053986  0.412735  -0.111251
    C   C64  0.706983  0.044951  0.560651  -0.084658
    C   C65  0.721265  0.007306  0.612007  -0.134822
    C   C66  0.727174  0.932281  0.582150  -0.209065
    H   H66  0.692584  0.901713  0.382827  0.078153
    H   H67  0.703033  0.104135  0.584494  0.101262
    H   H68  0.727984  0.036715  0.676095  0.114543
    H   H69  0.736031  0.903637  0.623429  0.148425
