data_DB0-m2_o11_o25_f0_pcu.sym.34_repeat
_audit_creation_date              2024-02-23
_audit_creation_method            'Materials Studio'
_symmetry_space_group_name_H-M    'P1'
_symmetry_Int_Tables_number       1
_symmetry_cell_setting            triclinic
loop_
_symmetry_equiv_pos_as_xyz
  x,y,z
_cell_length_a                    15.8920
_cell_length_b                    11.0745
_cell_length_c                    9.5639
_cell_angle_alpha                 90.0206
_cell_angle_beta                  90.0172
_cell_angle_gamma                 90.0035
loop_
_atom_site_label
_atom_site_type_symbol
_atom_site_fract_x
_atom_site_fract_y
_atom_site_fract_z
_atom_site_U_iso_or_equiv
_atom_site_adp_type
_atom_site_occupancy
O1     O     0.50369   0.31919   0.62289   0.00000  Uiso   1.00
O2     O     0.50306   0.31878   0.38184   0.00000  Uiso   1.00
C1     C     0.50108   0.26256   0.50283   0.00000  Uiso   1.00
O3     O     0.37923   0.49107   0.62333   0.00000  Uiso   1.00
O4     O     0.37824   0.49872   0.38240   0.00000  Uiso   1.00
C2     C     0.33961   0.49493   0.50326   0.00000  Uiso   1.00
Cu1    Cu    0.50163   0.49470   0.64120   0.00000  Uiso   1.00
Cu2    Cu    0.50042   0.49432   0.36122   0.00000  Uiso   1.00
O5     O     0.50477   0.67011   0.61986   0.00000  Uiso   1.00
O6     O     0.50340   0.66978   0.38023   0.00000  Uiso   1.00
O7     O     0.62375   0.48940   0.61970   0.00000  Uiso   1.00
O8     O     0.62279   0.49812   0.37948   0.00000  Uiso   1.00
C3     C     0.50193   0.72699   0.49977   0.00000  Uiso   1.00
C4     C     0.66246   0.49350   0.49920   0.00000  Uiso   1.00
C5     C     0.97345   0.39643   0.56575   0.00000  Uiso   1.00
C6     C     0.02892   0.39683   0.43615   0.00000  Uiso   1.00
H1     H     0.05439   0.31607   0.38220   0.00000  Uiso   1.00
H2     H     0.94822   0.31532   0.61925   0.00000  Uiso   1.00
H3     H     0.94976   0.49439   0.26181   0.00000  Uiso   1.00
C7     C     0.24938   0.49483   0.50389   0.00000  Uiso   1.00
C8     C     0.75270   0.49350   0.49860   0.00000  Uiso   1.00
C9     C     0.02777   0.49401   0.63204   0.00000  Uiso   1.00
C10    C     0.08159   0.49440   0.50243   0.00000  Uiso   1.00
C11    C     0.97315   0.59147   0.56626   0.00000  Uiso   1.00
C12    C     0.92048   0.49389   0.49999   0.00000  Uiso   1.00
C13    C     0.02863   0.59187   0.43667   0.00000  Uiso   1.00
C14    C     0.97430   0.49428   0.37038   0.00000  Uiso   1.00
C15    C     0.17359   0.49467   0.50356   0.00000  Uiso   1.00
C16    C     0.82848   0.49363   0.49891   0.00000  Uiso   1.00
H4     H     0.05385   0.67298   0.38316   0.00000  Uiso   1.00
H5     H     0.94769   0.67224   0.62020   0.00000  Uiso   1.00
H6     H     0.05232   0.49391   0.74060   0.00000  Uiso   1.00
C17    C     0.49917   0.92963   0.38670   0.00000  Uiso   1.00
C18    C     0.50341   0.86018   0.50235   0.00000  Uiso   1.00
H7     H     0.50829   0.89982   0.60503   0.00000  Uiso   1.00
C19    C     0.50061   0.06355   0.39068   0.00000  Uiso   1.00
C20    C     0.50103   0.13015   0.50743   0.00000  Uiso   1.00
H8     H     0.50017   0.10942   0.29065   0.00000  Uiso   1.00
H9     H     0.50031   0.08994   0.61015   0.00000  Uiso   1.00
C21    C     0.44381   0.44494   0.92233   0.00000  Uiso   1.00
N1     N     0.50281   0.49502   0.85048   0.00000  Uiso   1.00
H10    H     0.38912   0.40904   0.86911   0.00000  Uiso   1.00
H11    H     0.55958   0.50704   0.89981   0.00000  Uiso   1.00
C22    C     0.44895   0.42941   0.07657   0.00000  Uiso   1.00
N2     N     0.49928   0.49329   0.15193   0.00000  Uiso   1.00
H12    H     0.52835   0.56470   0.10358   0.00000  Uiso   1.00
N3     N     0.39455   0.34396   0.14192   0.00000  Uiso   1.00
H13    H     0.40659   0.25975   0.09707   0.00000  Uiso   1.00
H14    H     0.33273   0.36807   0.11769   0.00000  Uiso   1.00
N4     N     0.49286   0.87480   0.25204   0.00000  Uiso   1.00
H15    H     0.54407   0.90408   0.19268   0.00000  Uiso   1.00
H16    H     0.43790   0.90668   0.20498   0.00000  Uiso   1.00
