# Generated by REPEAT Assigner based on pymatgen
data_DB0-m2_o2_o22_f0_nbo.sym.75
_audit_creation_date              2022-05-24
_audit_creation_method            REPEAT_Assigner
_cell_length_a                    36.741469
_cell_length_b                    30.091015
_cell_length_c                    21.237345
_cell_angle_alpha                 90.000000
_cell_angle_beta                  54.939174
_cell_angle_gamma                 90.000000
_cell_volume                      19219.181813
_symmetry_space_group_name_H-M    P1
_symmetry_Int_Tables_number       1
loop_
    _symmetry_equiv_pos_site_id
    _symmetry_equiv_pos_as_xyz
    1  x,y,z
loop_
    _atom_site_type_symbol
    _atom_site_label
    _atom_site_fract_x
    _atom_site_fract_y
    _atom_site_fract_z
    _atom_type_partial_charge
    O   O1    0.936427  0.537194  0.546902  -0.606044
    O   O2    0.063573  0.537194  0.453098  -0.606047
    O   O3    0.436427  0.037194  0.546902  -0.606066
    O   O4    0.563573  0.037194  0.453098  -0.606078
    O   O5    0.936742  0.463989  0.581607  -0.577230
    O   O6    0.063258  0.463989  0.418393  -0.577243
    O   O7    0.436742  0.963989  0.581607  -0.577273
    O   O8    0.563258  0.963989  0.418393  -0.577292
    C   C1    0.915674  0.500599  0.585469  0.724249
    C   C2    0.084326  0.500599  0.414531  0.724289
    C   C3    0.415674  0.000599  0.585469  0.724308
    C   C4    0.584326  0.000599  0.414531  0.724355
    O   O9    0.011514  0.537189  0.398548  -0.618105
    O   O10   0.988486  0.537189  0.601452  -0.618093
    O   O11   0.511514  0.037189  0.398548  -0.618120
    O   O12   0.488486  0.037189  0.601452  -0.618112
    O   O13   0.986713  0.463973  0.423686  -0.637301
    O   O14   0.013287  0.463973  0.576314  -0.637290
    O   O15   0.486713  0.963973  0.423686  -0.637339
    O   O16   0.513287  0.963973  0.576314  -0.637337
    C   C5    0.998780  0.500592  0.381933  0.503856
    C   C6    0.001220  0.500592  0.618067  0.503852
    C   C7    0.498780  0.000592  0.381933  0.503922
    C   C8    0.501220  0.000592  0.618067  0.503924
    Cu  Cu1   0.000000  0.543961  0.500000  0.980431
    Cu  Cu2   0.500000  0.043961  0.500000  0.980476
    Cu  Cu3   0.000000  0.457212  0.500000  0.970525
    Cu  Cu4   0.500000  0.957212  0.500000  0.970559
    C   C9    0.969836  0.538044  0.316163  -0.096339
    C   C10   0.030164  0.538044  0.683837  -0.096337
    C   C11   0.469836  0.038044  0.316163  -0.096331
    C   C12   0.530164  0.038044  0.683837  -0.096343
    H   H1    0.981241  0.570309  0.324165  0.026693
    H   H2    0.018759  0.570309  0.675835  0.026696
    H   H3    0.481241  0.070309  0.324165  0.026692
    H   H4    0.518759  0.070309  0.675835  0.026696
    H   H5    0.934881  0.532322  0.365412  0.009819
    H   H6    0.065119  0.532322  0.634588  0.009821
    H   H7    0.434881  0.032322  0.365412  0.009820
    H   H8    0.565119  0.032322  0.634588  0.009824
    C   C13   0.972550  0.539807  0.242314  -0.045139
    C   C14   0.027450  0.539807  0.757686  -0.045146
    C   C15   0.472550  0.039807  0.242314  -0.045148
    C   C16   0.527450  0.039807  0.757686  -0.045134
    H   H9    0.938354  0.538921  0.256854  0.016649
    H   H10   0.061646  0.538921  0.743147  0.016647
    H   H11   0.438354  0.038921  0.256854  0.016646
    H   H12   0.561646  0.038921  0.743147  0.016641
    H   H13   0.988868  0.571192  0.211432  -0.000809
    H   H14   0.011132  0.571192  0.788569  -0.000810
    H   H15   0.488868  0.071192  0.211432  -0.000809
    H   H16   0.511132  0.071192  0.788569  -0.000813
    H   H17   0.058361  0.540076  0.243627  0.021358
    H   H18   0.941639  0.540076  0.756374  0.021359
    H   H19   0.558361  0.040076  0.243627  0.021356
    H   H20   0.441639  0.040076  0.756374  0.021357
    H   H21   0.063101  0.534133  0.134456  0.032752
    H   H22   0.936899  0.534133  0.865544  0.032754
    H   H23   0.563101  0.034133  0.134456  0.032756
    H   H24   0.436899  0.034133  0.865544  0.032749
    C   C17   0.045912  0.506950  0.241428  -0.115873
    C   C18   0.954088  0.506950  0.758572  -0.115874
    C   C19   0.545912  0.006950  0.241428  -0.115852
    C   C20   0.454088  0.006950  0.758572  -0.115857
    C   C21   0.981001  0.456479  0.304873  -0.048524
    C   C22   0.018999  0.456479  0.695128  -0.048478
    C   C23   0.481001  0.956479  0.304873  -0.048546
    C   C24   0.518999  0.956479  0.695128  -0.048478
    C   C25   0.998786  0.500475  0.311700  0.403979
    C   C26   0.001214  0.500475  0.688300  0.403932
    C   C27   0.498786  0.000475  0.311700  0.403943
    C   C28   0.501214  0.000475  0.688300  0.403900
    H   H25   0.003443  0.429007  0.296835  0.015214
    H   H26   0.996557  0.429007  0.703165  0.015202
    H   H27   0.503443  0.929007  0.296835  0.015219
    H   H28   0.496557  0.929007  0.703165  0.015201
    H   H29   0.947151  0.450288  0.357321  0.017985
    H   H30   0.052849  0.450288  0.642679  0.017977
    H   H31   0.447151  0.950288  0.357321  0.017992
    H   H32   0.552849  0.950288  0.642679  0.017981
    C   C29   0.999377  0.500541  0.191806  0.301688
    C   C30   0.000623  0.500541  0.808194  0.301733
    C   C31   0.499377  0.000541  0.191806  0.301750
    C   C32   0.500623  0.000541  0.808194  0.301752
    C   C33   0.046670  0.503909  0.169578  -0.074123
    C   C34   0.953330  0.503909  0.830422  -0.074125
    C   C35   0.546670  0.003909  0.169578  -0.074150
    C   C36   0.453330  0.003909  0.830422  -0.074121
    C   C37   0.978504  0.457882  0.236222  -0.111648
    C   C38   0.021496  0.457882  0.763778  -0.111687
    C   C39   0.478504  0.957882  0.236222  -0.111649
    C   C40   0.521496  0.957882  0.763778  -0.111703
    H   H33   0.943174  0.456320  0.256566  0.019438
    H   H34   0.056826  0.456320  0.743434  0.019442
    H   H35   0.443174  0.956320  0.256566  0.019437
    H   H36   0.556826  0.956320  0.743434  0.019443
    H   H37   0.996485  0.428915  0.198514  0.010787
    H   H38   0.003515  0.428915  0.801486  0.010796
    H   H39   0.496485  0.928915  0.198514  0.010784
    H   H40   0.503515  0.928915  0.801486  0.010799
    H   H41   0.067813  0.480935  0.239811  0.010857
    H   H42   0.932187  0.480935  0.760189  0.010863
    H   H43   0.567813  0.980935  0.239811  0.010853
    H   H44   0.432187  0.980935  0.760189  0.010858
    H   H45   0.065910  0.474055  0.136421  0.025669
    H   H46   0.934090  0.474055  0.863579  0.025667
    H   H47   0.565910  0.974055  0.136421  0.025674
    H   H48   0.434090  0.974055  0.863579  0.025667
    C   C41   0.798154  0.461950  0.718623  -0.190662
    C   C42   0.201846  0.461950  0.281377  -0.190840
    C   C43   0.298154  0.961950  0.718623  -0.190665
    C   C44   0.701846  0.961950  0.281377  -0.190841
    H   H49   0.781096  0.431105  0.745291  0.121459
    H   H50   0.218904  0.431105  0.254709  0.121501
    H   H51   0.281096  0.931105  0.745291  0.121459
    H   H52   0.718904  0.931105  0.254709  0.121499
    C   C45   0.843969  0.462076  0.672061  -0.055773
    C   C46   0.156031  0.462076  0.327939  -0.055661
    C   C47   0.343969  0.962076  0.672061  -0.055776
    C   C48   0.656031  0.962076  0.327939  -0.055664
    H   H53   0.861413  0.431492  0.664701  0.105970
    H   H54   0.138587  0.431492  0.335299  0.105959
    H   H55   0.361413  0.931492  0.664701  0.105974
    H   H56   0.638587  0.931492  0.335299  0.105963
    C   C49   0.866914  0.500561  0.634999  -0.108151
    C   C50   0.133086  0.500561  0.365001  -0.108238
    C   C51   0.366914  0.000561  0.634999  -0.108176
    C   C52   0.633086  0.000561  0.365001  -0.108264
    C   C53   0.843428  0.538925  0.645133  -0.041521
    C   C54   0.156572  0.538925  0.354867  -0.041454
    C   C55   0.343428  0.038925  0.645133  -0.041521
    C   C56   0.656572  0.038925  0.354867  -0.041452
    H   H57   0.860496  0.569559  0.617232  0.107345
    H   H58   0.139504  0.569559  0.382768  0.107339
    H   H59   0.360496  0.069559  0.617232  0.107348
    H   H60   0.639504  0.069559  0.382768  0.107343
    C   C57   0.797579  0.538813  0.691980  -0.201089
    C   C58   0.202421  0.538813  0.308020  -0.201176
    C   C59   0.297579  0.038813  0.691980  -0.201088
    C   C60   0.702421  0.038813  0.308020  -0.201178
    H   H61   0.780056  0.569492  0.700298  0.121506
    H   H62   0.219944  0.569492  0.299702  0.121516
    H   H63   0.280056  0.069492  0.700298  0.121507
    H   H64   0.719944  0.069492  0.299702  0.121517
    C   C61   0.774563  0.500342  0.729212  0.183763
    C   C62   0.225437  0.500342  0.270788  0.183923
    C   C63   0.274563  0.000342  0.729212  0.183794
    C   C64   0.725437  0.000342  0.270788  0.183957
    C   C65   0.701864  0.523420  0.758000  -0.214986
    C   C66   0.298136  0.523420  0.242000  -0.215006
    C   C67   0.201864  0.023420  0.758000  -0.214828
    C   C68   0.798136  0.023420  0.242000  -0.214851
    H   H65   0.718688  0.541681  0.704529  0.123691
    H   H66   0.281312  0.541681  0.295471  0.123701
    H   H67   0.218688  0.041681  0.704529  0.123670
    H   H68   0.781312  0.041681  0.295471  0.123679
    C   C69   0.656131  0.522840  0.804163  -0.029146
    C   C70   0.343869  0.522840  0.195837  -0.029108
    C   C71   0.156131  0.022840  0.804163  -0.029398
    C   C72   0.843869  0.022840  0.195837  -0.029341
    H   H69   0.638528  0.541691  0.786263  0.121911
    H   H70   0.361472  0.541691  0.213737  0.121892
    H   H71   0.138528  0.041691  0.786263  0.121961
    H   H72   0.861472  0.041691  0.213737  0.121932
    C   C73   0.633251  0.498933  0.872090  -0.256052
    C   C74   0.366749  0.498933  0.127910  -0.256022
    C   C75   0.133251  0.998933  0.872090  -0.255698
    C   C76   0.866749  0.998933  0.127910  -0.255694
    C   C77   0.656863  0.474744  0.893334  0.376044
    C   C78   0.343137  0.474744  0.106666  0.376067
    C   C79   0.156863  0.974744  0.893334  0.375763
    C   C80   0.843137  0.974744  0.106666  0.375791
    C   C81   0.703086  0.476131  0.846805  -0.258882
    C   C82   0.296914  0.476131  0.153195  -0.258870
    C   C83   0.203086  0.976131  0.846805  -0.258719
    C   C84   0.796914  0.976131  0.153195  -0.258710
    H   H73   0.722378  0.459039  0.862893  0.103330
    H   H74   0.277622  0.459039  0.137107  0.103335
    H   H75   0.222378  0.959039  0.862893  0.103305
    H   H76   0.777622  0.959039  0.137107  0.103312
    C   C85   0.725651  0.500134  0.779000  0.059752
    C   C86   0.274349  0.500134  0.221000  0.059696
    C   C87   0.225651  0.000134  0.779000  0.059612
    C   C88   0.774349  0.000134  0.221000  0.059553
    O   O17   0.961690  0.564762  0.041395  -0.585736
    O   O18   0.038310  0.564762  0.958605  -0.585686
    O   O19   0.461690  0.064762  0.041395  -0.585727
    O   O20   0.538310  0.064762  0.958605  -0.585752
    C   C89   0.000000  0.585575  0.000000  0.695675
    C   C90   0.500000  0.085575  0.000000  0.695686
    O   O21   0.961231  0.501272  0.130000  -0.612403
    O   O22   0.038769  0.501272  0.870000  -0.612361
    O   O23   0.461231  0.001272  0.130000  -0.612377
    O   O24   0.538769  0.001272  0.870000  -0.612357
    O   O25   0.037827  0.502499  0.053972  -0.651408
    O   O26   0.962173  0.502499  0.946029  -0.651456
    O   O27   0.537827  0.002499  0.053972  -0.651400
    O   O28   0.462173  0.002499  0.946029  -0.651433
    C   C91   0.999534  0.500276  0.121405  0.558516
    C   C92   0.000466  0.500276  0.878595  0.558513
    C   C93   0.499534  0.000276  0.121405  0.558459
    C   C94   0.500466  0.000276  0.878595  0.558488
    Cu  Cu5   0.955689  0.500182  0.043908  1.003516
    Cu  Cu6   0.044311  0.500182  0.956092  1.003633
    Cu  Cu7   0.455689  0.000182  0.043908  1.003620
    Cu  Cu8   0.544311  0.000182  0.956092  1.003564
    O   O29   0.961733  0.435574  0.039647  -0.623154
    O   O30   0.038267  0.435574  0.960353  -0.623104
    O   O31   0.461733  0.935574  0.039647  -0.623150
    O   O32   0.538267  0.935574  0.960353  -0.623143
    C   C95   0.000000  0.414742  0.000000  0.711518
    C   C96   0.500000  0.914742  0.000000  0.711519
    O   O33   0.513704  0.436884  0.935202  -0.588896
    O   O34   0.486296  0.436884  0.064798  -0.588919
    O   O35   0.013704  0.936884  0.935202  -0.588866
    O   O36   0.986296  0.936884  0.064798  -0.588907
    C   C97   0.500000  0.416013  0.000000  0.690583
    C   C98   0.000000  0.916013  0.000000  0.690562
    O   O37   0.564439  0.512723  0.887003  -0.595678
    O   O38   0.435561  0.512723  0.112997  -0.595622
    O   O39   0.064439  0.012723  0.887003  -0.595698
    O   O40   0.935561  0.012723  0.112997  -0.595638
    O   O41   0.562145  0.487540  0.992631  -0.573782
    O   O42   0.437855  0.487540  0.007369  -0.573727
    O   O43   0.062145  0.987540  0.992631  -0.573820
    O   O44   0.937855  0.987540  0.007369  -0.573773
    C   C99   0.584309  0.499427  0.919537  0.723536
    C   C100  0.415691  0.499427  0.080463  0.723401
    C   C101  0.084309  0.999427  0.919537  0.723456
    C   C102  0.915691  0.999427  0.080463  0.723354
    Cu  Cu9   0.501306  0.500203  0.937364  0.922501
    Cu  Cu10  0.498694  0.500203  0.062636  0.922635
    Cu  Cu11  0.001306  0.000203  0.937364  0.922480
    Cu  Cu12  0.998694  0.000203  0.062636  0.922703
    O   O45   0.488506  0.563528  0.959141  -0.593379
    O   O46   0.511494  0.563528  0.040859  -0.593382
    O   O47   0.988506  0.063528  0.959141  -0.593389
    O   O48   0.011494  0.063528  0.040859  -0.593347
    C   C103  0.500000  0.584409  0.000000  0.698241
    C   C104  0.000000  0.084409  0.000000  0.698248
    C   C105  0.038743  0.703270  0.949570  -0.151074
    C   C106  0.961257  0.703270  0.050430  -0.151094
    C   C107  0.538743  0.203270  0.949570  -0.151080
    C   C108  0.461257  0.203270  0.050430  -0.151089
    H   H77   0.069584  0.720717  0.910535  0.110071
    H   H78   0.930416  0.720717  0.089465  0.110079
    H   H79   0.569584  0.220717  0.910535  0.110072
    H   H80   0.430416  0.220717  0.089465  0.110080
    C   C109  0.038831  0.657464  0.949896  -0.084838
    C   C110  0.961169  0.657464  0.050104  -0.084828
    C   C111  0.538831  0.157464  0.949896  -0.084854
    C   C112  0.461169  0.157464  0.050104  -0.084848
    H   H81   0.069651  0.640186  0.910112  0.113468
    H   H82   0.930349  0.640186  0.089888  0.113466
    H   H83   0.569651  0.140186  0.910112  0.113484
    H   H84   0.430349  0.140186  0.089888  0.113471
    C   C113  0.000000  0.634286  0.000000  -0.066062
    C   C114  0.500000  0.134286  0.000000  -0.066038
    C   C115  0.000000  0.726460  0.000000  0.106123
    C   C116  0.500000  0.226460  0.000000  0.106129
    C   C117  0.477033  0.298414  0.068599  -0.185509
    C   C118  0.522967  0.298414  0.931401  -0.185505
    C   C119  0.977033  0.798414  0.068599  -0.185518
    C   C120  0.022967  0.798414  0.931401  -0.185510
    H   H85   0.459443  0.280980  0.122932  0.120152
    H   H86   0.540557  0.280980  0.877068  0.120153
    H   H87   0.959443  0.780980  0.122932  0.120158
    H   H88   0.040557  0.780980  0.877068  0.120157
    C   C121  0.477226  0.344212  0.068614  -0.063462
    C   C122  0.522774  0.344212  0.931386  -0.063432
    C   C123  0.977226  0.844212  0.068614  -0.063440
    C   C124  0.022774  0.844212  0.931386  -0.063410
    H   H89   0.458981  0.361565  0.123015  0.107872
    H   H90   0.541019  0.361565  0.876985  0.107852
    H   H91   0.958981  0.861565  0.123015  0.107862
    H   H92   0.041019  0.861565  0.876985  0.107838
    C   C125  0.500000  0.367351  0.000000  -0.054586
    C   C126  0.000000  0.867351  0.000000  -0.054599
    C   C127  0.500000  0.275224  0.000000  0.112854
    C   C128  0.000000  0.775224  0.000000  0.112848
    C   C129  0.038656  0.297084  0.974100  -0.149607
    C   C130  0.961344  0.297084  0.025900  -0.149626
    C   C131  0.538656  0.797084  0.974100  -0.149616
    C   C132  0.461344  0.797084  0.025900  -0.149636
    H   H93   0.069360  0.279544  0.952605  0.108997
    H   H94   0.930640  0.279544  0.047395  0.108999
    H   H95   0.569360  0.779544  0.952605  0.108999
    H   H96   0.430640  0.779544  0.047395  0.109004
    C   C133  0.038788  0.342894  0.973298  -0.094099
    C   C134  0.961212  0.342894  0.026702  -0.094091
    C   C135  0.538788  0.842894  0.973298  -0.094096
    C   C136  0.461212  0.842894  0.026702  -0.094086
    H   H97   0.069509  0.360239  0.952347  0.121986
    H   H98   0.930491  0.360239  0.047653  0.121988
    H   H99   0.569509  0.860239  0.952347  0.121988
    H   H100  0.430491  0.860239  0.047653  0.121986
    C   C137  0.000000  0.366050  0.000000  -0.051147
    C   C138  0.500000  0.866050  0.000000  -0.051143
    C   C139  0.000000  0.273937  0.000000  0.100383
    C   C140  0.500000  0.773937  0.000000  0.100389
    C   C141  0.478870  0.702072  0.973482  -0.129613
    C   C142  0.521130  0.702072  0.026518  -0.129611
    C   C143  0.978870  0.202072  0.973482  -0.129574
    C   C144  0.021130  0.202072  0.026518  -0.129591
    H   H101  0.462699  0.719612  0.951507  0.109998
    H   H102  0.537301  0.719612  0.048493  0.109995
    H   H103  0.962699  0.219612  0.951507  0.109993
    H   H104  0.037301  0.219612  0.048493  0.109995
    C   C145  0.479273  0.656262  0.972682  -0.120585
    C   C146  0.520727  0.656262  0.027318  -0.120596
    C   C147  0.979273  0.156262  0.972682  -0.120627
    C   C148  0.020727  0.156262  0.027318  -0.120602
    H   H105  0.462715  0.638920  0.951260  0.122506
    H   H106  0.537285  0.638920  0.048741  0.122516
    H   H107  0.962715  0.138920  0.951260  0.122512
    H   H108  0.037285  0.138920  0.048741  0.122500
    C   C149  0.500000  0.633103  0.000000  -0.020431
    C   C150  0.000000  0.133103  0.000000  -0.020410
    C   C151  0.500000  0.725219  0.000000  0.078362
    C   C152  0.000000  0.225219  0.000000  0.078328
    O   O49   0.634599  0.449478  0.957719  -0.255741
    C   C153  0.654597  0.424559  0.984112  0.106381
    C   C154  0.620819  0.399611  0.055173  0.156318
    C   C155  0.577231  0.395191  0.078483  -0.176865
    C   C156  0.547157  0.371754  0.144425  -0.065454
    C   C157  0.560392  0.352413  0.186997  -0.184765
    C   C158  0.603856  0.356306  0.163453  -0.044862
    C   C159  0.633984  0.379748  0.097627  -0.221172
    H   H109  0.673001  0.446964  0.998105  0.043352
    H   H110  0.677698  0.400089  0.939792  0.022061
    H   H111  0.566075  0.409201  0.045596  0.121771
    H   H112  0.513122  0.368429  0.162697  0.111874
    H   H113  0.536742  0.334026  0.238607  0.112426
    H   H114  0.614345  0.340969  0.196590  0.099857
    H   H115  0.668070  0.382644  0.079368  0.100143
    O   O50   0.365401  0.449478  0.042281  -0.255771
    C   C160  0.345403  0.424559  0.015888  0.106273
    C   C161  0.379181  0.399611  0.944827  0.156580
    C   C162  0.422769  0.395191  0.921517  -0.177264
    C   C163  0.452843  0.371754  0.855575  -0.065266
    C   C164  0.439608  0.352413  0.813003  -0.184819
    C   C165  0.396144  0.356306  0.836547  -0.044791
    C   C166  0.366016  0.379748  0.902374  -0.221292
    H   H116  0.326999  0.446964  0.001895  0.043367
    H   H117  0.322302  0.400089  0.060208  0.022076
    H   H118  0.433925  0.409201  0.954404  0.121954
    H   H119  0.486878  0.368429  0.837303  0.111821
    H   H120  0.463258  0.334026  0.761394  0.112427
    H   H121  0.385655  0.340969  0.803410  0.099846
    H   H122  0.331929  0.382644  0.920632  0.100158
    O   O51   0.134599  0.949478  0.957719  -0.255657
    C   C167  0.154597  0.924559  0.984112  0.106367
    C   C168  0.120819  0.899611  0.055173  0.156293
    C   C169  0.077231  0.895191  0.078483  -0.176855
    C   C170  0.047157  0.871754  0.144425  -0.065455
    C   C171  0.060392  0.852413  0.186997  -0.184755
    C   C172  0.103856  0.856306  0.163453  -0.044877
    C   C173  0.133984  0.879748  0.097627  -0.221150
    H   H123  0.173001  0.946964  0.998105  0.043359
    H   H124  0.177698  0.900089  0.939792  0.022067
    H   H125  0.066075  0.909201  0.045596  0.121764
    H   H126  0.013122  0.868429  0.162697  0.111872
    H   H127  0.036742  0.834026  0.238607  0.112423
    H   H128  0.114345  0.840969  0.196590  0.099861
    H   H129  0.168070  0.882644  0.079368  0.100138
    O   O52   0.865401  0.949478  0.042281  -0.255688
    C   C174  0.845403  0.924559  0.015888  0.106271
    C   C175  0.879181  0.899611  0.944827  0.156551
    C   C176  0.922769  0.895191  0.921517  -0.177237
    C   C177  0.952843  0.871754  0.855575  -0.065274
    C   C178  0.939608  0.852413  0.813003  -0.184801
    C   C179  0.896144  0.856306  0.836547  -0.044811
    C   C180  0.866016  0.879748  0.902374  -0.221270
    H   H130  0.826999  0.946964  0.001895  0.043370
    H   H131  0.822302  0.900089  0.060208  0.022078
    H   H132  0.933925  0.909201  0.954404  0.121928
    H   H133  0.986878  0.868429  0.837303  0.111816
    H   H134  0.963258  0.834026  0.761394  0.112424
    H   H135  0.885655  0.840969  0.803410  0.099850
    H   H136  0.831929  0.882644  0.920632  0.100154
