# Generated by REPEAT Assigner based on pymatgen
data_DB0-m29_o83_o54_f0_pts.sym.31
_audit_creation_date              2022-05-24
_audit_creation_method            REPEAT_Assigner
_cell_length_a                    15.738238
_cell_length_b                    9.431797
_cell_length_c                    28.305856
_cell_angle_alpha                 84.013458
_cell_angle_beta                  83.327734
_cell_angle_gamma                 104.841640
_cell_volume                      3994.511208
_symmetry_space_group_name_H-M    P1
_symmetry_Int_Tables_number       1
loop_
    _symmetry_equiv_pos_site_id
    _symmetry_equiv_pos_as_xyz
    1  x,y,z
loop_
    _atom_site_type_symbol
    _atom_site_label
    _atom_site_fract_x
    _atom_site_fract_y
    _atom_site_fract_z
    _atom_type_partial_charge
    C   C1   0.275937  0.976127  0.028077  0.025690
    C   C2   0.272365  0.004637  0.979372  0.017938
    C   C3   0.192659  0.012371  0.964420  -0.142062
    C   C4   0.198908  0.945455  0.060215  -0.228450
    C   C5   0.120146  0.955226  0.045089  0.222137
    C   C6   0.115909  0.993963  0.997189  0.001099
    C   C7   0.035370  0.011738  0.983552  0.094158
    C   C8   0.028641  0.057273  0.936051  -0.176572
    C   C9   0.949500  0.069965  0.923064  -0.199895
    C   C10  0.045937  0.927758  0.078779  -0.197601
    C   C11  0.966795  0.940450  0.065793  -0.178789
    C   C12  0.960066  0.985990  0.018293  0.099112
    C   C13  0.879528  0.003773  0.004655  -0.000793
    C   C14  0.875293  0.042507  0.956754  0.223444
    C   C15  0.796535  0.052290  0.941628  -0.225971
    C   C16  0.802779  0.985384  0.037424  -0.141421
    C   C17  0.723074  0.993137  0.022471  0.014984
    C   C18  0.719507  0.021641  0.973764  0.026367
    H   H1   0.192832  0.030334  0.926429  0.133122
    H   H2   0.201396  0.922408  0.098164  0.152019
    H   H3   0.083239  0.085455  0.907188  0.162952
    H   H4   0.946365  0.102848  0.885706  0.149814
    H   H5   0.049072  0.894872  0.116138  0.149096
    H   H6   0.912195  0.912264  0.094655  0.162159
    H   H7   0.794050  0.075337  0.903679  0.151962
    H   H8   0.802609  0.967422  0.075414  0.132926
    O   O1   0.575771  0.018254  0.048935  -0.427334
    C   C19  0.645289  0.975333  0.059346  0.513231
    O   O2   0.482076  0.696567  0.099439  -0.422812
    O   O3   0.647750  0.925633  0.104070  -0.506100
    O   O4   0.477019  0.829120  0.161472  -0.456256
    C   C20  0.478634  0.703578  0.145659  0.504088
    Fe  Fe1  0.484049  0.980975  0.106229  1.376406
    O   O5   0.365960  0.903692  0.084577  -0.564825
    O   O6   0.425657  0.112978  0.031493  -0.456933
    C   C21  0.360026  0.993769  0.047188  0.591118
    O   O7   0.513227  0.178652  0.129834  -0.567176
    O   O8   0.421145  0.050594  0.197361  -0.506713
    C   C22  0.470312  0.176109  0.172721  0.549770
    O   O9   0.482290  0.819119  0.871955  -0.582021
    O   O10  0.574192  0.947264  0.804382  -0.507657
    C   C23  0.525127  0.821713  0.829044  0.558253
    O   O11  0.629517  0.094188  0.917267  -0.562463
    O   O12  0.569798  0.884813  0.970311  -0.451627
    C   C24  0.635428  0.004046  0.954645  0.588414
    O   O13  0.347733  0.072406  0.897787  -0.498662
    O   O14  0.518492  0.168761  0.840300  -0.458302
    C   C25  0.516876  0.294305  0.856108  0.499884
    O   O15  0.419639  0.979432  0.952888  -0.431490
    C   C26  0.350155  0.022496  0.942496  0.512074
    O   O16  0.513417  0.301323  0.902328  -0.429960
    Fe  Fe2  0.511407  0.016921  0.895556  1.382017
    C   C27  0.453797  0.584194  0.673599  0.346895
    O   O17  0.390214  0.616208  0.703004  -0.389354
    N   N1   0.517936  0.539601  0.693522  -0.127315
    C   C28  0.578338  0.491624  0.666950  0.420757
    C   C29  0.519133  0.420088  0.774242  -0.225836
    C   C30  0.518019  0.425650  0.822980  0.117236
    C   C31  0.522054  0.682649  0.809986  0.174465
    C   C32  0.526113  0.677888  0.761352  -0.296951
    C   C33  0.521826  0.545851  0.743451  0.228581
    C   C34  0.509349  0.528658  0.597179  0.054555
    C   C35  0.450931  0.587824  0.624177  -0.032149
    C   C36  0.393273  0.651079  0.600647  -0.099512
    C   C37  0.573703  0.482849  0.618950  -0.064116
    C   C38  0.517102  0.556449  0.840767  -0.231034
    H   H9   0.530227  0.777043  0.737282  0.203285
    C   C39  0.478392  0.441409  0.160993  -0.231506
    C   C40  0.432047  0.542601  0.479079  0.046201
    C   C41  0.555223  0.435383  0.474761  0.047988
    C   C42  0.491224  0.482548  0.452896  0.048780
    C   C43  0.363865  0.576867  0.456903  -0.182500
    C   C44  0.359876  0.565214  0.409414  -0.048269
    C   C45  0.421784  0.514987  0.382811  -0.058633
    C   C46  0.486134  0.469169  0.404584  0.046497
    C   C47  0.544550  0.409997  0.377587  -0.022578
    C   C48  0.541684  0.413623  0.328164  0.342655
    N   N2   0.477549  0.458231  0.308240  -0.127189
    C   C49  0.417151  0.506217  0.334812  0.417345
    C   C50  0.476374  0.577766  0.227521  -0.220564
    C   C51  0.477490  0.572216  0.178782  0.110586
    C   C52  0.473418  0.315192  0.191775  0.179343
    C   C53  0.469356  0.319950  0.240409  -0.299579
    C   C54  0.473663  0.451991  0.258310  0.232321
    O   O18  0.351818  0.544698  0.314458  -0.478255
    C   C55  0.440258  0.562442  0.527002  0.043472
    C   C56  0.504259  0.515279  0.548867  0.051095
    C   C57  0.563437  0.455228  0.522684  0.037726
    C   C58  0.388863  0.636518  0.552801  -0.146113
    H   H10  0.479539  0.680900  0.241590  0.195682
    H   H11  0.306521  0.595679  0.393780  0.131125
    H   H12  0.309787  0.609881  0.475044  0.155315
    H   H13  0.345813  0.689144  0.535686  0.134026
    O   O19  0.643677  0.453159  0.687302  -0.477916
    C   C59  0.635614  0.432628  0.592347  -0.046489
    H   H14  0.515978  0.316953  0.760175  0.195684
    H   H15  0.688972  0.402171  0.607980  0.129982
    C   C60  0.606615  0.361300  0.448963  -0.147022
    C   C61  0.602207  0.346738  0.401117  -0.105842
    O   O20  0.605259  0.381590  0.298760  -0.390900
    C   C62  0.631621  0.420971  0.544858  -0.178138
    H   H16  0.649661  0.308668  0.466080  0.135351
    H   H17  0.465224  0.220785  0.264479  0.205158
    H   H18  0.685702  0.387964  0.526715  0.154054
    H   H19  0.515574  0.562321  0.878752  0.161616
    H   H20  0.479920  0.435539  0.123009  0.164404
    C   C63  0.339788  0.744403  0.623914  0.676962
    F   F1   0.393524  0.847013  0.646879  -0.217996
    F   F2   0.268860  0.654792  0.656173  -0.199540
    F   F3   0.305839  0.822965  0.590355  -0.238879
    C   C64  0.655693  0.253415  0.377851  0.683198
    F   F4   0.601956  0.150798  0.354888  -0.219532
    F   F5   0.689647  0.174862  0.411409  -0.240477
    F   F6   0.726618  0.343026  0.345589  -0.200508
