data_DB0-m12_o14_bcu_repeat
_audit_creation_date              2024-02-23
_audit_creation_method            'Materials Studio'
_symmetry_space_group_name_H-M    'P1'
_symmetry_Int_Tables_number       1
_symmetry_cell_setting            triclinic
loop_
_symmetry_equiv_pos_as_xyz
  x,y,z
_cell_length_a                    15.7197
_cell_length_b                    15.7518
_cell_length_c                    15.6892
_cell_angle_alpha                 80.5122
_cell_angle_beta                  64.9296
_cell_angle_gamma                 114.3469
loop_
_atom_site_label
_atom_site_type_symbol
_atom_site_fract_x
_atom_site_fract_y
_atom_site_fract_z
_atom_site_U_iso_or_equiv
_atom_site_adp_type
_atom_site_occupancy
C1     C     0.74077   0.76043   0.78940   0.00000  Uiso   1.00
H1     H     0.71483   0.77936   0.85502   0.00000  Uiso   1.00
N1     N     0.80494   0.82748   0.68970   0.00000  Uiso   1.00
C2     C     0.28865   0.95340   0.42450   0.00000  Uiso   1.00
H2     H     0.32055   0.92123   0.37305   0.00000  Uiso   1.00
N2     N     0.21762   0.98246   0.42918   0.00000  Uiso   1.00
C3     C     0.92007   0.67870   0.48681   0.00000  Uiso   1.00
H3     H     0.83702   0.62063   0.51111   0.00000  Uiso   1.00
N3     N     0.95309   0.77660   0.47208   0.00000  Uiso   1.00
C4     C     0.10039   0.05352   0.69974   0.00000  Uiso   1.00
H4     H     0.18437   0.10888   0.67554   0.00000  Uiso   1.00
N4     N     0.06431   0.03987   0.63597   0.00000  Uiso   1.00
C5     C     0.09823   0.76679   0.42359   0.00000  Uiso   1.00
H5     H     0.18368   0.79156   0.39088   0.00000  Uiso   1.00
N5     N     0.06223   0.83093   0.42961   0.00000  Uiso   1.00
C6     C     0.91901   0.95404   0.79337   0.00000  Uiso   1.00
H6     H     0.83357   0.91720   0.85660   0.00000  Uiso   1.00
N6     N     0.95384   0.97944   0.69300   0.00000  Uiso   1.00
C7     C     0.28317   0.04130   0.51817   0.00000  Uiso   1.00
H7     H     0.30670   0.08829   0.55669   0.00000  Uiso   1.00
N7     N     0.21547   0.03697   0.48530   0.00000  Uiso   1.00
C8     C     0.74172   0.67438   0.69370   0.00000  Uiso   1.00
H8     H     0.71943   0.61324   0.66885   0.00000  Uiso   1.00
N8     N     0.80528   0.77503   0.63146   0.00000  Uiso   1.00
C9     C     0.70207   0.66289   0.79421   0.00000  Uiso   1.00
C10    C     0.32782   0.98616   0.48368   0.00000  Uiso   1.00
C11    C     0.01113   0.66973   0.45525   0.00000  Uiso   1.00
C12    C     0.01028   0.00046   0.79980   0.00000  Uiso   1.00
C13    C     0.91683   0.19900   0.56080   0.00000  Uiso   1.00
H9     H     0.83363   0.17587   0.61928   0.00000  Uiso   1.00
N9     N     0.95022   0.13326   0.54634   0.00000  Uiso   1.00
C14    C     0.10569   0.02339   0.17087   0.00000  Uiso   1.00
H10    H     0.19071   0.05743   0.10822   0.00000  Uiso   1.00
N10    N     0.06820   0.98959   0.27210   0.00000  Uiso   1.00
C15    C     0.72600   0.92421   0.45985   0.00000  Uiso   1.00
H11    H     0.69902   0.87574   0.42374   0.00000  Uiso   1.00
N11    N     0.80015   0.93179   0.48485   0.00000  Uiso   1.00
C16    C     0.30196   0.29121   0.26122   0.00000  Uiso   1.00
H12    H     0.33083   0.35224   0.28470   0.00000  Uiso   1.00
N12    N     0.22249   0.19218   0.32625   0.00000  Uiso   1.00
C17    C     0.30165   0.20024   0.17055   0.00000  Uiso   1.00
H13    H     0.33035   0.17618   0.10932   0.00000  Uiso   1.00
N13    N     0.22320   0.13683   0.27109   0.00000  Uiso   1.00
C18    C     0.72576   0.01175   0.55417   0.00000  Uiso   1.00
H14    H     0.69948   0.04609   0.60585   0.00000  Uiso   1.00
N14    N     0.79948   0.98435   0.54288   0.00000  Uiso   1.00
C19    C     0.09483   0.28608   0.44248   0.00000  Uiso   1.00
H15    H     0.17970   0.34564   0.38561   0.00000  Uiso   1.00
N15    N     0.05944   0.18665   0.47803   0.00000  Uiso   1.00
C20    C     0.92421   0.94237   0.26041   0.00000  Uiso   1.00
H16    H     0.83940   0.89783   0.28117   0.00000  Uiso   1.00
N16    N     0.95757   0.93989   0.32652   0.00000  Uiso   1.00
Ni1    Ni    0.87810   0.98062   0.61654   0.00000  Uiso   1.00
Ni2    Ni    0.14072   0.98441   0.35261   0.00000  Uiso   1.00
Ni3    Ni    0.87953   0.85677   0.47892   0.00000  Uiso   1.00
Ni4    Ni    0.13892   0.11279   0.48114   0.00000  Uiso   1.00
C21    C     0.00798   0.29784   0.49711   0.00000  Uiso   1.00
C22    C     0.01644   0.99726   0.16118   0.00000  Uiso   1.00
C23    C     0.67668   0.97321   0.50349   0.00000  Uiso   1.00
C24    C     0.35334   0.29861   0.16194   0.00000  Uiso   1.00
H17    H     0.12550   0.95159   0.01474   0.00000  Uiso   1.00
C25    C     0.90502   0.08062   0.10445   0.00000  Uiso   1.00
H18    H     0.90778   0.08583   0.17096   0.00000  Uiso   1.00
C26    C     0.84927   0.11774   0.08001   0.00000  Uiso   1.00
H19    H     0.80848   0.14794   0.12822   0.00000  Uiso   1.00
C27    C     0.84806   0.11917   0.99293   0.00000  Uiso   1.00
H20    H     0.80639   0.15056   0.97254   0.00000  Uiso   1.00
C28    C     0.90220   0.08309   0.93012   0.00000  Uiso   1.00
H21    H     0.90309   0.09063   0.86023   0.00000  Uiso   1.00
C29    C     0.95632   0.04250   0.95509   0.00000  Uiso   1.00
C30    C     0.95823   0.04177   0.04311   0.00000  Uiso   1.00
C31    C     0.01741   0.00654   0.06604   0.00000  Uiso   1.00
C32    C     0.07854   0.97815   0.99824   0.00000  Uiso   1.00
H22    H     0.12183   0.95282   0.86110   0.00000  Uiso   1.00
C33    C     0.07620   0.97845   0.91165   0.00000  Uiso   1.00
C34    C     0.01272   0.00695   0.89109   0.00000  Uiso   1.00
H23    H     0.66491   0.13344   0.45097   0.00000  Uiso   1.00
C35    C     0.46363   0.78551   0.58776   0.00000  Uiso   1.00
H24    H     0.52203   0.77822   0.60211   0.00000  Uiso   1.00
C36    C     0.36655   0.69638   0.62092   0.00000  Uiso   1.00
H25    H     0.35347   0.62345   0.65634   0.00000  Uiso   1.00
C37    C     0.28524   0.69993   0.61130   0.00000  Uiso   1.00
H26    H     0.20827   0.62981   0.63885   0.00000  Uiso   1.00
C38    C     0.30014   0.79266   0.56954   0.00000  Uiso   1.00
H27    H     0.23151   0.79087   0.56812   0.00000  Uiso   1.00
C39    C     0.39854   0.88364   0.53402   0.00000  Uiso   1.00
C40    C     0.48203   0.88010   0.54193   0.00000  Uiso   1.00
C41    C     0.58030   0.97098   0.50829   0.00000  Uiso   1.00
C42    C     0.58975   0.06295   0.47558   0.00000  Uiso   1.00
H28    H     0.51679   0.13951   0.44093   0.00000  Uiso   1.00
C43    C     0.50632   0.06631   0.46954   0.00000  Uiso   1.00
C44    C     0.41244   0.97781   0.49501   0.00000  Uiso   1.00
H29    H     0.83401   0.32095   0.56973   0.00000  Uiso   1.00
C45    C     0.21092   0.50257   0.42244   0.00000  Uiso   1.00
H30    H     0.21224   0.44290   0.46574   0.00000  Uiso   1.00
C46    C     0.31085   0.59305   0.35090   0.00000  Uiso   1.00
H31    H     0.38836   0.60084   0.33471   0.00000  Uiso   1.00
C47    C     0.31165   0.67100   0.29593   0.00000  Uiso   1.00
H32    H     0.38980   0.73966   0.23411   0.00000  Uiso   1.00
C48    C     0.21244   0.66373   0.32436   0.00000  Uiso   1.00
H33    H     0.21479   0.72533   0.27939   0.00000  Uiso   1.00
C49    C     0.11229   0.57784   0.40684   0.00000  Uiso   1.00
C50    C     0.11152   0.49039   0.43991   0.00000  Uiso   1.00
C51    C     0.01181   0.39482   0.49129   0.00000  Uiso   1.00
C52    C     0.91352   0.39251   0.52841   0.00000  Uiso   1.00
H34    H     0.83506   0.47517   0.55531   0.00000  Uiso   1.00
C53    C     0.91420   0.48153   0.51683   0.00000  Uiso   1.00
C54    C     0.01337   0.57603   0.45543   0.00000  Uiso   1.00
H35    H     0.51402   0.51345   0.83171   0.00000  Uiso   1.00
C55    C     0.73244   0.60778   0.96031   0.00000  Uiso   1.00
H36    H     0.80191   0.67568   0.89135   0.00000  Uiso   1.00
C56    C     0.74709   0.58381   0.03929   0.00000  Uiso   1.00
H37    H     0.82468   0.63356   0.03136   0.00000  Uiso   1.00
C57    C     0.66470   0.49526   0.12679   0.00000  Uiso   1.00
H38    H     0.67750   0.47521   0.18767   0.00000  Uiso   1.00
C58    C     0.56693   0.43067   0.13605   0.00000  Uiso   1.00
H39    H     0.50755   0.35971   0.20394   0.00000  Uiso   1.00
C59    C     0.54896   0.45514   0.05854   0.00000  Uiso   1.00
C60    C     0.63334   0.54442   0.96903   0.00000  Uiso   1.00
C61    C     0.61952   0.56685   0.88778   0.00000  Uiso   1.00
C62    C     0.52507   0.49739   0.89463   0.00000  Uiso   1.00
H40    H     0.36593   0.35854   0.98871   0.00000  Uiso   1.00
C63    C     0.44131   0.40984   0.98339   0.00000  Uiso   1.00
C64    C     0.45025   0.38958   0.06702   0.00000  Uiso   1.00
