# Generated by REPEAT Assigner based on pymatgen
data_DB0-m2_o17_o17_f0_pcu.sym.5
_audit_creation_date              2022-05-24
_audit_creation_method            REPEAT_Assigner
_cell_length_a                    20.480439
_cell_length_b                    21.835613
_cell_length_c                    13.529875
_cell_angle_alpha                 90.000000
_cell_angle_beta                  90.000000
_cell_angle_gamma                 90.000000
_cell_volume                      6050.599626
_symmetry_space_group_name_H-M    P1
_symmetry_Int_Tables_number       1
loop_
    _symmetry_equiv_pos_site_id
    _symmetry_equiv_pos_as_xyz
    1  x,y,z
loop_
    _atom_site_type_symbol
    _atom_site_label
    _atom_site_fract_x
    _atom_site_fract_y
    _atom_site_fract_z
    _atom_type_partial_charge
    O   O1    0.065100  0.435047  0.585072  -0.599376
    O   O2    0.934828  0.563827  0.414922  -0.587342
    O   O3    0.930868  0.560829  0.584716  -0.552234
    O   O4    0.069306  0.438235  0.415292  -0.564610
    O   O5    0.935285  0.434800  0.415050  -0.602431
    O   O6    0.064935  0.564089  0.584965  -0.587350
    O   O7    0.068949  0.561081  0.415037  -0.551144
    O   O8    0.931043  0.438023  0.584857  -0.565672
    O   O9    0.565222  0.935069  0.584990  -0.602252
    O   O10   0.434554  0.063792  0.415127  -0.585165
    O   O11   0.430911  0.060779  0.584975  -0.552148
    O   O12   0.569054  0.938276  0.415131  -0.564726
    O   O13   0.434989  0.934781  0.415082  -0.602013
    O   O14   0.565077  0.064167  0.584981  -0.584948
    O   O15   0.568592  0.061149  0.415071  -0.555671
    O   O16   0.431218  0.937941  0.584938  -0.570477
    C   C1    0.088394  0.415965  0.500251  0.703116
    C   C2    0.911643  0.582930  0.499823  0.679340
    C   C3    0.912030  0.415677  0.499862  0.707462
    C   C4    0.088056  0.583309  0.500114  0.678244
    C   C5    0.588272  0.915966  0.500089  0.705359
    C   C6    0.411538  0.082935  0.500086  0.676006
    C   C7    0.411995  0.915641  0.499917  0.709461
    C   C8    0.587833  0.083380  0.500054  0.678815
    Cu  Cu1   0.999612  0.499493  0.598811  0.831373
    Cu  Cu2   0.000467  0.499470  0.401161  0.833253
    Cu  Cu3   0.499943  0.999433  0.598898  0.836715
    Cu  Cu4   0.500110  0.999588  0.401200  0.831642
    C   C9    0.140386  0.672231  0.579126  -0.212580
    C   C10   0.860379  0.326255  0.421153  -0.206410
    C   C11   0.859548  0.671860  0.420875  -0.217010
    C   C12   0.139931  0.326396  0.578891  -0.210198
    C   C13   0.640018  0.172407  0.578791  -0.217823
    C   C14   0.360063  0.826338  0.420919  -0.212318
    C   C15   0.359859  0.172083  0.421209  -0.218268
    C   C16   0.640378  0.826832  0.578982  -0.211951
    C   C17   0.136265  0.632705  0.499937  -0.026632
    C   C18   0.864023  0.366174  0.500013  -0.042487
    C   C19   0.863420  0.632350  0.499989  -0.025373
    C   C20   0.136372  0.366381  0.500173  -0.037688
    C   C21   0.636148  0.132714  0.499878  -0.022680
    C   C22   0.363811  0.866248  0.499904  -0.040070
    C   C23   0.363525  0.132398  0.500309  -0.021804
    C   C24   0.636434  0.866469  0.499762  -0.038852
    C   C25   0.176989  0.640363  0.419600  -0.222748
    C   C26   0.822692  0.359020  0.579858  -0.214342
    C   C27   0.822986  0.640452  0.580670  -0.220827
    C   C28   0.177068  0.358532  0.419755  -0.217594
    C   C29   0.676801  0.140388  0.419535  -0.225875
    C   C30   0.323079  0.858542  0.580330  -0.216550
    C   C31   0.322773  0.140122  0.580586  -0.226866
    C   C32   0.677341  0.858725  0.419524  -0.216926
    C   C33   0.222897  0.687004  0.418906  0.203716
    C   C34   0.776851  0.312209  0.580612  0.198880
    C   C35   0.777566  0.687506  0.581733  0.206347
    C   C36   0.222604  0.311545  0.418739  0.202828
    C   C37   0.722397  0.187338  0.418413  0.208236
    C   C38   0.277558  0.811614  0.581334  0.207090
    C   C39   0.277191  0.186993  0.581300  0.211438
    C   C40   0.723047  0.811856  0.418721  0.205033
    C   C41   0.227448  0.725961  0.499592  -0.062881
    C   C42   0.772632  0.272990  0.500114  -0.059540
    C   C43   0.773024  0.726247  0.500734  -0.067893
    C   C44   0.227059  0.272577  0.499426  -0.060182
    C   C45   0.726947  0.226340  0.498978  -0.071105
    C   C46   0.273036  0.772652  0.500587  -0.068440
    C   C47   0.272879  0.226038  0.500740  -0.074411
    C   C48   0.727495  0.772988  0.499526  -0.065617
    C   C49   0.186127  0.718480  0.579240  0.193798
    C   C50   0.814345  0.280234  0.420798  0.194042
    C   C51   0.814206  0.718424  0.420896  0.199015
    C   C52   0.185511  0.280018  0.578838  0.196768
    C   C53   0.685617  0.218832  0.578698  0.203852
    C   C54   0.314380  0.780087  0.420823  0.202411
    C   C55   0.314402  0.218654  0.421149  0.203392
    C   C56   0.686123  0.780618  0.579147  0.200172
    C   C57   0.264270  0.695188  0.338650  0.000798
    C   C58   0.735127  0.304030  0.660538  -0.001182
    C   C59   0.736391  0.696178  0.662200  -0.005488
    C   C60   0.264055  0.303253  0.338585  -0.004430
    C   C61   0.763806  0.195605  0.338164  -0.004051
    C   C62   0.236174  0.803264  0.661709  -0.010892
    C   C63   0.235437  0.195143  0.661232  -0.003355
    C   C64   0.764643  0.803538  0.338668  -0.005811
    C   C65   0.809963  0.241500  0.340424  -0.224072
    C   C66   0.190399  0.757089  0.659666  -0.215658
    C   C67   0.189817  0.241412  0.659299  -0.225271
    C   C68   0.809971  0.756999  0.340403  -0.220378
    C   C69   0.309901  0.741442  0.340334  -0.229486
    C   C70   0.689881  0.257533  0.659015  -0.225980
    C   C71   0.690513  0.742209  0.659676  -0.223541
    C   C72   0.310016  0.257304  0.340735  -0.223883
    H   H1    0.107261  0.667441  0.640793  0.131812
    H   H2    0.894045  0.330601  0.360073  0.131497
    H   H3    0.892790  0.667193  0.359206  0.132961
    H   H4    0.106234  0.330580  0.640011  0.131788
    H   H5    0.606425  0.168277  0.640022  0.132071
    H   H6    0.393678  0.830464  0.359644  0.132459
    H   H7    0.393033  0.167391  0.359534  0.132540
    H   H8    0.607342  0.831323  0.640838  0.132547
    H   H9    0.173335  0.608551  0.358780  0.110695
    H   H10   0.825977  0.391193  0.640117  0.110234
    H   H11   0.826729  0.608806  0.641633  0.109113
    H   H12   0.173603  0.390454  0.359261  0.110447
    H   H13   0.673072  0.108381  0.358958  0.112304
    H   H14   0.326577  0.890533  0.640993  0.110768
    H   H15   0.326367  0.108241  0.641262  0.111560
    H   H16   0.673645  0.890591  0.359012  0.109999
    H   H17   0.842373  0.247084  0.277926  0.142449
    H   H18   0.158073  0.751255  0.722267  0.139827
    H   H19   0.157721  0.247483  0.722032  0.142836
    H   H20   0.841931  0.750613  0.277603  0.140854
    H   H21   0.341786  0.747285  0.277156  0.143267
    H   H22   0.657916  0.251356  0.722003  0.142027
    H   H23   0.658209  0.748144  0.722174  0.141429
    H   H24   0.342294  0.251444  0.278044  0.141424
    C   C73   0.056645  0.500671  0.795489  -0.111175
    C   C74   0.943379  0.501307  0.204336  -0.101563
    C   C75   0.942215  0.500363  0.796442  -0.199670
    C   C76   0.057758  0.501046  0.203674  -0.192138
    C   C77   0.556624  0.002050  0.795804  -0.110723
    C   C78   0.443186  0.001372  0.204222  -0.107539
    C   C79   0.442243  0.001380  0.796260  -0.196597
    C   C80   0.557589  0.001369  0.203900  -0.197580
    N   N1    0.999225  0.499453  0.746711  0.014587
    N   N2    0.000786  0.499366  0.253281  0.007647
    N   N3    0.499286  0.999405  0.746800  0.011496
    N   N4    0.500363  0.999503  0.253332  0.013882
    C   C81   0.941761  0.501355  0.898531  0.155424
    C   C82   0.058328  0.502159  0.101604  0.145572
    C   C83   0.057804  0.501614  0.897443  0.127820
    C   C84   0.942357  0.502316  0.102402  0.113812
    C   C85   0.441634  0.003073  0.898365  0.153164
    C   C86   0.558287  0.002596  0.101709  0.147985
    C   C87   0.557599  0.003495  0.897684  0.124079
    C   C88   0.442302  0.002453  0.102360  0.118593
    C   C89   0.999879  0.501680  0.949105  0.026576
    C   C90   0.000261  0.502224  0.050844  0.041724
    C   C91   0.499766  0.003289  0.949154  0.031907
    C   C92   0.500147  0.002788  0.050897  0.037906
    C   C93   0.883469  0.502393  0.949988  -0.236055
    C   C94   0.116608  0.502514  0.050150  -0.231022
    C   C95   0.116303  0.502743  0.948068  -0.187967
    C   C96   0.883833  0.502631  0.051954  -0.181161
    C   C97   0.383369  0.003829  0.949826  -0.240236
    C   C98   0.616541  0.004063  0.050310  -0.235739
    C   C99   0.616103  0.004462  0.948297  -0.183932
    C   C100  0.383777  0.003582  0.051842  -0.179821
    H   H25   0.101853  0.499964  0.754343  0.123423
    H   H26   0.898127  0.500646  0.245262  0.121926
    H   H27   0.896535  0.499526  0.756380  0.168914
    H   H28   0.103410  0.500367  0.243870  0.166558
    H   H29   0.602062  0.001368  0.755234  0.123940
    H   H30   0.397804  0.001761  0.244976  0.123060
    H   H31   0.396735  0.000274  0.755888  0.168631
    H   H32   0.603122  0.001830  0.244336  0.169152
    H   H33   0.837470  0.502843  0.910877  0.188702
    H   H34   0.162546  0.502138  0.089464  0.188672
    H   H35   0.162080  0.503513  0.908267  0.138773
    H   H36   0.838121  0.502526  0.091867  0.138020
    H   H37   0.337415  0.004115  0.910637  0.190601
    H   H38   0.662557  0.004264  0.089434  0.190454
    H   H39   0.661828  0.004936  0.908520  0.137853
    H   H40   0.338138  0.003605  0.091894  0.137586
    Cl  Cl1   0.260191  0.648923  0.232484  -0.093007
    Cl  Cl2   0.738471  0.350623  0.766551  -0.093151
    Cl  Cl3   0.740331  0.650522  0.769004  -0.090821
    Cl  Cl4   0.259931  0.349310  0.232072  -0.091751
    Cl  Cl5   0.759751  0.149262  0.232149  -0.092485
    Cl  Cl6   0.239706  0.849629  0.767879  -0.090186
    Cl  Cl7   0.238755  0.148775  0.767281  -0.092932
    Cl  Cl8   0.761325  0.850129  0.232788  -0.091718
