# Generated by REPEAT Assigner based on pymatgen
data_DB0-m3_o6_o16_f0_pcu.sym.48
_audit_creation_date              2022-05-24
_audit_creation_method            REPEAT_Assigner
_cell_length_a                    13.688055
_cell_length_b                    14.976591
_cell_length_c                    16.128816
_cell_angle_alpha                 90.007841
_cell_angle_beta                  89.983418
_cell_angle_gamma                 73.743809
_cell_volume                      3174.221832
_symmetry_space_group_name_H-M    P1
_symmetry_Int_Tables_number       1
loop_
    _symmetry_equiv_pos_site_id
    _symmetry_equiv_pos_as_xyz
    1  x,y,z
loop_
    _atom_site_type_symbol
    _atom_site_label
    _atom_site_fract_x
    _atom_site_fract_y
    _atom_site_fract_z
    _atom_type_partial_charge
    O   O1   0.512458  0.418435  0.643064  -0.690873
    O   O2   0.506276  0.574166  0.642456  -0.682431
    C   C1   0.510978  0.496105  0.681250  0.912138
    O   O3   0.658588  0.385314  0.515325  -0.667066
    O   O4   0.651158  0.540614  0.513251  -0.630030
    C   C2   0.703122  0.452505  0.514090  0.735070
    Zn  Zn1  0.508040  0.394806  0.519633  1.090492
    Zn  Zn2  0.498970  0.600060  0.518981  1.076113
    O   O5   0.501819  0.420551  0.396144  -0.688574
    O   O6   0.493264  0.576633  0.395611  -0.682252
    O   O7   0.355695  0.453957  0.524085  -0.649705
    O   O8   0.348424  0.609875  0.524276  -0.661949
    C   C3   0.495834  0.498809  0.357361  0.908510
    C   C4   0.304540  0.542315  0.526095  0.719908
    C   C5   0.041509  0.669514  0.588887  -0.252073
    H   H1   0.182664  0.701790  0.586031  0.108263
    H   H2   0.854825  0.686759  0.630966  0.126446
    H   H3   0.003103  0.734664  0.618455  0.122699
    C   C6   0.193822  0.566363  0.536737  -0.044204
    C   C7   0.861138  0.343238  0.468292  -0.077754
    C   C8   0.963461  0.317739  0.450860  -0.017015
    C   C9   0.021091  0.376765  0.470750  -0.151949
    C   C10  0.978759  0.460481  0.512065  -0.019736
    C   C11  0.875296  0.484074  0.532201  0.218170
    C   C12  0.036870  0.521649  0.533105  0.077894
    C   C13  0.989369  0.605098  0.571746  0.211250
    C   C14  0.889886  0.624089  0.596469  -0.221773
    C   C15  0.834498  0.563080  0.579610  -0.244767
    C   C16  0.141337  0.502235  0.517931  -0.194936
    C   C17  0.142937  0.651135  0.570177  -0.076989
    C   C18  0.815318  0.426775  0.506747  -0.195526
    H   H4   0.185495  0.437493  0.492180  0.118797
    H   H5   0.816245  0.297534  0.450384  0.109262
    H   H6   0.098791  0.355365  0.450547  0.115459
    H   H7   0.759631  0.579170  0.606387  0.156309
    H   H8   0.507484  0.354589  0.942508  0.138815
    C   C19  0.502006  0.417908  0.061705  -0.179926
    H   H9   0.501112  0.355474  0.094945  0.136454
    C   C20  0.499527  0.498068  0.104745  0.246668
    C   C21  0.500942  0.577648  0.062346  -0.170822
    H   H10  0.499214  0.640429  0.096100  0.142640
    C   C22  0.504687  0.577111  0.976902  -0.183732
    H   H11  0.505586  0.639544  0.943662  0.136749
    C   C23  0.507169  0.496950  0.933862  0.246894
    C   C24  0.505750  0.417372  0.976262  -0.177188
    C   C25  0.496765  0.498393  0.193687  -0.078323
    C   C26  0.509961  0.496608  0.844922  -0.073764
    C   C27  0.511249  0.496351  0.770219  -0.289992
    C   C28  0.495512  0.498616  0.268391  -0.281584
    H   H12  0.578644  0.893422  0.634622  0.175723
    C   C29  0.549986  0.030031  0.583892  -0.178722
    H   H13  0.585934  0.055695  0.634737  0.172278
    C   C30  0.508197  0.088246  0.519090  0.248740
    C   C31  0.462051  0.055547  0.454360  -0.146990
    H   H14  0.428995  0.101262  0.403683  0.150751
    C   C32  0.457884  0.964604  0.454327  -0.118798
    H   H15  0.421914  0.938942  0.403490  0.146142
    C   C33  0.499585  0.906418  0.519163  0.223722
    C   C34  0.545727  0.939113  0.583894  -0.163284
    C   C35  0.511340  0.183234  0.519487  0.076191
    C   C36  0.496228  0.811493  0.518857  0.077634
    N   N1   0.494506  0.734689  0.518690  -0.121615
    N   N2   0.512864  0.260093  0.519740  -0.126153
    C   C37  0.010785  0.229055  0.408766  0.166783
    C   C38  0.962120  0.200017  0.343133  -0.212416
    C   C39  0.006646  0.116630  0.304063  -0.046967
    C   C40  0.099798  0.061553  0.330318  0.028635
    Cl  Cl1  0.156056  0.955554  0.280798  -0.102017
    C   C41  0.148622  0.089978  0.395618  -0.080940
    C   C42  0.104469  0.173429  0.434682  -0.184932
    H   H16  0.889863  0.242968  0.320638  0.141037
    H   H17  0.968491  0.094563  0.252574  0.097543
    H   H18  0.221497  0.046612  0.416503  0.093612
    H   H19  0.143095  0.193773  0.486754  0.113977
