data_DB0-m29_o96_o450_f0_pts.sym.5_repeat
_audit_creation_date              2024-02-24
_audit_creation_method            'Materials Studio'
_symmetry_space_group_name_H-M    'P1'
_symmetry_Int_Tables_number       1
_symmetry_cell_setting            triclinic
loop_
_symmetry_equiv_pos_as_xyz
  x,y,z
_cell_length_a                    16.8234
_cell_length_b                    13.9358
_cell_length_c                    19.4343
_cell_angle_alpha                 84.8517
_cell_angle_beta                  90.5794
_cell_angle_gamma                 116.4452
loop_
_atom_site_label
_atom_site_type_symbol
_atom_site_fract_x
_atom_site_fract_y
_atom_site_fract_z
_atom_site_U_iso_or_equiv
_atom_site_adp_type
_atom_site_occupancy
C1     C     0.22595   0.98190   0.10030   0.00000  Uiso   1.00
C2     C     0.15928   0.93329   0.14903   0.00000  Uiso   1.00
C3     C     0.08458   0.93640   0.12158   0.00000  Uiso   1.00
N1     N     0.10254   0.98228   0.05583   0.00000  Uiso   1.00
C4     C     0.18911   0.00903   0.04227   0.00000  Uiso   1.00
C5     C     0.00893   0.90816   0.15743   0.00000  Uiso   1.00
C6     C     0.93844   0.93739   0.13447   0.00000  Uiso   1.00
C7     C     0.88846   0.96265   0.17845   0.00000  Uiso   1.00
C8     C     0.82910   0.98349   0.13994   0.00000  Uiso   1.00
C9     C     0.84365   0.96983   0.07162   0.00000  Uiso   1.00
N2     N     0.91064   0.94098   0.06932   0.00000  Uiso   1.00
C10    C     0.79243   0.97959   0.01088   0.00000  Uiso   1.00
C11    C     0.83152   0.01553   0.94726   0.00000  Uiso   1.00
C12    C     0.79352   0.03383   0.88626   0.00000  Uiso   1.00
C13    C     0.86126   0.08474   0.83844   0.00000  Uiso   1.00
C14    C     0.93688   0.08795   0.86807   0.00000  Uiso   1.00
N3     N     0.91920   0.04672   0.93480   0.00000  Uiso   1.00
C15    C     0.01290   0.11578   0.83283   0.00000  Uiso   1.00
C16    C     0.08423   0.08904   0.85697   0.00000  Uiso   1.00
C17    C     0.13288   0.05987   0.81429   0.00000  Uiso   1.00
C18    C     0.19506   0.04545   0.85261   0.00000  Uiso   1.00
C19    C     0.18202   0.06391   0.91968   0.00000  Uiso   1.00
N4     N     0.11438   0.09159   0.92161   0.00000  Uiso   1.00
C20    C     0.22998   0.04932   0.98037   0.00000  Uiso   1.00
H1     H     0.00409   0.87612   0.21074   0.00000  Uiso   1.00
H2     H     0.01715   0.14358   0.77871   0.00000  Uiso   1.00
H3     H     0.29719   0.06012   0.97253   0.00000  Uiso   1.00
H4     H     0.93307   0.91838   0.02673   0.00000  Uiso   1.00
H5     H     0.09179   0.11491   0.96379   0.00000  Uiso   1.00
C21    C     0.12053   0.03726   0.74683   0.00000  Uiso   1.00
C22    C     0.17562   0.00221   0.71654   0.00000  Uiso   1.00
C23    C     0.24709   0.99826   0.75303   0.00000  Uiso   1.00
C24    C     0.25479   0.01653   0.82301   0.00000  Uiso   1.00
C25    C     0.31230   0.00225   0.11497   0.00000  Uiso   1.00
C26    C     0.32828   0.96946   0.18126   0.00000  Uiso   1.00
C27    C     0.25797   0.91351   0.22912   0.00000  Uiso   1.00
C28    C     0.17293   0.89624   0.21365   0.00000  Uiso   1.00
C29    C     0.89299   0.96929   0.24867   0.00000  Uiso   1.00
C30    C     0.83303   0.99500   0.28070   0.00000  Uiso   1.00
C31    C     0.77092   0.01530   0.24240   0.00000  Uiso   1.00
C32    C     0.77029   0.01233   0.17123   0.00000  Uiso   1.00
C33    C     0.70669   0.00325   0.86672   0.00000  Uiso   1.00
C34    C     0.69210   0.03775   0.80095   0.00000  Uiso   1.00
C35    C     0.76310   0.09761   0.75472   0.00000  Uiso   1.00
C36    C     0.84824   0.11840   0.77246   0.00000  Uiso   1.00
H6     H     0.06555   0.03997   0.71901   0.00000  Uiso   1.00
H7     H     0.30723   0.01087   0.85298   0.00000  Uiso   1.00
H8     H     0.36622   0.04627   0.07750   0.00000  Uiso   1.00
H9     H     0.26897   0.88742   0.28081   0.00000  Uiso   1.00
H10    H     0.12025   0.85667   0.25257   0.00000  Uiso   1.00
H11    H     0.94095   0.95373   0.27889   0.00000  Uiso   1.00
H12    H     0.72377   0.03162   0.14260   0.00000  Uiso   1.00
H13    H     0.65017   0.95067   0.89953   0.00000  Uiso   1.00
H14    H     0.75248   0.12363   0.70288   0.00000  Uiso   1.00
H15    H     0.90202   0.16066   0.73471   0.00000  Uiso   1.00
H16    H     0.83456   0.99750   0.33612   0.00000  Uiso   1.00
O1     O     0.63624   0.03786   0.24411   0.00000  Uiso   1.00
C37    C     0.70258   0.03289   0.27809   0.00000  Uiso   1.00
O2     O     0.50691   0.80903   0.33504   0.00000  Uiso   1.00
O3     O     0.70211   0.03165   0.34566   0.00000  Uiso   1.00
O4     O     0.51920   0.94182   0.40080   0.00000  Uiso   1.00
C38    C     0.50307   0.84153   0.39570   0.00000  Uiso   1.00
Fe1    Fe    0.54456   0.02953   0.31059   0.00000  Uiso   1.00
O5     O     0.42673   0.95784   0.26628   0.00000  Uiso   1.00
O6     O     0.48714   0.08095   0.17289   0.00000  Uiso   1.00
C39    C     0.41853   0.00036   0.20523   0.00000  Uiso   1.00
O7     O     0.59243   0.18359   0.33130   0.00000  Uiso   1.00
O8     O     0.44787   0.14776   0.32385   0.00000  Uiso   1.00
C40    C     0.52777   0.20898   0.34411   0.00000  Uiso   1.00
C41    C     0.53327   0.26266   0.40652   0.00000  Uiso   1.00
C42    C     0.52426   0.35651   0.40602   0.00000  Uiso   1.00
H17    H     0.52086   0.39854   0.35741   0.00000  Uiso   1.00
C43    C     0.51837   0.39629   0.46773   0.00000  Uiso   1.00
C44    C     0.51813   0.33874   0.53020   0.00000  Uiso   1.00
H18    H     0.51044   0.36450   0.57944   0.00000  Uiso   1.00
C45    C     0.52340   0.24262   0.53013   0.00000  Uiso   1.00
C46    C     0.53311   0.20680   0.46844   0.00000  Uiso   1.00
N5     N     0.50918   0.49284   0.46530   0.00000  Uiso   1.00
N6     N     0.50141   0.51879   0.52363   0.00000  Uiso   1.00
C47    C     0.48624   0.65482   0.58309   0.00000  Uiso   1.00
H19    H     0.48950   0.61254   0.63164   0.00000  Uiso   1.00
C48    C     0.47769   0.74893   0.58279   0.00000  Uiso   1.00
C49    C     0.47858   0.80546   0.52101   0.00000  Uiso   1.00
C50    C     0.48903   0.77033   0.45926   0.00000  Uiso   1.00
C51    C     0.49374   0.67387   0.45897   0.00000  Uiso   1.00
H20    H     0.50202   0.64857   0.40972   0.00000  Uiso   1.00
C52    C     0.49239   0.61543   0.52131   0.00000  Uiso   1.00
H21    H     0.53583   0.13093   0.46760   0.00000  Uiso   1.00
H22    H     0.47673   0.88179   0.52212   0.00000  Uiso   1.00
O9     O     0.59195   0.05645   0.72005   0.00000  Uiso   1.00
O10    O     0.53386   0.92355   0.80824   0.00000  Uiso   1.00
C53    C     0.60190   0.00706   0.77759   0.00000  Uiso   1.00
O11    O     0.42185   0.83014   0.65917   0.00000  Uiso   1.00
O12    O     0.56627   0.86422   0.66372   0.00000  Uiso   1.00
C54    C     0.48545   0.80348   0.64510   0.00000  Uiso   1.00
O13    O     0.51186   0.20737   0.65470   0.00000  Uiso   1.00
O14    O     0.38359   0.97695   0.74951   0.00000  Uiso   1.00
C55    C     0.31802   0.98508   0.71641   0.00000  Uiso   1.00
O15    O     0.49254   0.07146   0.58930   0.00000  Uiso   1.00
C56    C     0.51126   0.17266   0.59402   0.00000  Uiso   1.00
O16    O     0.32310   0.99587   0.64869   0.00000  Uiso   1.00
Fe2    Fe    0.47156   0.98461   0.67955   0.00000  Uiso   1.00
C57    C     0.15169   0.96316   0.64802   0.00000  Uiso   1.00
C58    C     0.14214   0.02869   0.59423   0.00000  Uiso   1.00
C59    C     0.11671   0.99065   0.53052   0.00000  Uiso   1.00
C60    C     0.09964   0.88663   0.52055   0.00000  Uiso   1.00
C61    C     0.10754   0.82036   0.57440   0.00000  Uiso   1.00
C62    C     0.13304   0.85828   0.63811   0.00000  Uiso   1.00
H23    H     0.15550   0.11042   0.60156   0.00000  Uiso   1.00
H24    H     0.11003   0.04243   0.48838   0.00000  Uiso   1.00
H25    H     0.07959   0.85686   0.47062   0.00000  Uiso   1.00
H26    H     0.09339   0.73847   0.56678   0.00000  Uiso   1.00
H27    H     0.13802   0.80546   0.68038   0.00000  Uiso   1.00
C63    C     0.69991   0.95844   0.02365   0.00000  Uiso   1.00
C64    C     0.67545   0.04142   0.01572   0.00000  Uiso   1.00
C65    C     0.58892   0.02108   0.02992   0.00000  Uiso   1.00
C66    C     0.52684   0.91837   0.05275   0.00000  Uiso   1.00
C67    C     0.55135   0.83604   0.06184   0.00000  Uiso   1.00
C68    C     0.63783   0.85612   0.04772   0.00000  Uiso   1.00
H28    H     0.72418   0.12237   0.99872   0.00000  Uiso   1.00
H29    H     0.56986   0.08580   0.02344   0.00000  Uiso   1.00
H30    H     0.45906   0.90254   0.06397   0.00000  Uiso   1.00
H31    H     0.50276   0.75569   0.08023   0.00000  Uiso   1.00
H32    H     0.65685   0.79144   0.05518   0.00000  Uiso   1.00
