# Generated by REPEAT Assigner based on pymatgen
data_DB0-m3_o11_o25_f0_pcu.sym.95_sqe
_audit_creation_date              2022-05-24
_audit_creation_method            REPEAT_Assigner
_cell_length_a                    15.996495
_cell_length_b                    11.176854
_cell_length_c                    9.929347
_cell_angle_alpha                 89.997363
_cell_angle_beta                  89.994630
_cell_angle_gamma                 90.003400
_cell_volume                      1775.272735
_symmetry_space_group_name_H-M    P1
_symmetry_Int_Tables_number       1
loop_
    _symmetry_equiv_pos_site_id
    _symmetry_equiv_pos_as_xyz
    1  x,y,z
loop_
    _atom_site_type_symbol
    _atom_site_label
    _atom_site_fract_x
    _atom_site_fract_y
    _atom_site_fract_z
    _atom_type_partial_charge
    O   O1   0.500659  0.323006  0.609335  -0.721565
    O   O2   0.497076  0.327276  0.377780  -0.609607
    C   C1   0.498863  0.268766  0.492111  0.834149
    O   O3   0.376634  0.501621  0.621029  -0.733454
    O   O4   0.373160  0.506262  0.388711  -0.695265
    C   C2   0.336064  0.503801  0.506281  0.905010
    Zn  Zn1  0.501917  0.500427  0.651186  1.050668
    Zn  Zn2  0.496808  0.506152  0.344806  1.000877
    O   O5   0.501018  0.679432  0.618703  -0.602426
    O   O6   0.497721  0.683653  0.386017  -0.579318
    O   O7   0.625592  0.501150  0.607405  -0.577209
    O   O8   0.622117  0.505577  0.374838  -0.604518
    C   C3   0.499463  0.737366  0.503604  0.693378
    C   C4   0.662659  0.503053  0.489702  0.679107
    C   C5   0.970613  0.408138  0.558312  -0.246925
    C   C6   0.027990  0.406814  0.436533  -0.185728
    H   H1   0.053545  0.325839  0.386824  0.085148
    H   H2   0.953229  0.504996  0.264325  0.031854
    C   C7   0.246370  0.503729  0.508570  -0.122228
    C   C8   0.752354  0.503427  0.487422  -0.012796
    C   C9   0.023617  0.503598  0.625709  -0.093974
    C   C10  0.079622  0.503059  0.503369  0.903957
    C   C11  0.970734  0.600615  0.559472  -0.259585
    C   C12  0.919104  0.504368  0.492635  0.909765
    C   C13  0.028115  0.599291  0.437691  -0.244585
    C   C14  0.975109  0.503829  0.370294  -0.072122
    C   C15  0.171044  0.503500  0.507428  -0.479332
    C   C16  0.827679  0.503827  0.488571  -0.540499
    H   H3   0.945178  0.681590  0.609183  0.128859
    H   H4   0.045497  0.502431  0.731678  0.051604
    C   C17  0.498038  0.932772  0.393790  -0.020541
    C   C18  0.499852  0.868626  0.507866  -0.214398
    H   H5   0.496411  0.885971  0.298335  0.017691
    H   H6   0.502148  0.909633  0.606218  0.110028
    C   C19  0.498819  0.065039  0.384506  0.164672
    C   C20  0.498230  0.136841  0.493770  -0.398262
    H   H7   0.497102  0.098576  0.593424  0.208082
    C   C21  0.553853  0.563101  0.927608  -0.107469
    N   N1   0.506884  0.497166  0.852589  -0.166120
    H   H8   0.475508  0.429150  0.900325  0.286210
    C   C22  0.556040  0.549035  0.075636  0.222761
    N   N2   0.492981  0.511123  0.143491  -0.184519
    H   H9   0.611587  0.578400  0.128442  0.012565
    H   H10  0.437945  0.498652  0.092102  0.203700
    I   I1   0.637521  0.689062  0.844328  0.168950
    I   I2   0.920114  0.253936  0.655064  -0.058421
    I   I3   0.078638  0.753485  0.340953  -0.056069
    I   I4   0.500909  0.127800  0.182882  -0.082100
