# Generated by REPEAT Assigner based on pymatgen
data_DB0-m1_o16_sni_sqe
_audit_creation_date              2022-05-24
_audit_creation_method            REPEAT_Assigner
_cell_length_a                    16.384377
_cell_length_b                    29.030233
_cell_length_c                    29.121788
_cell_angle_alpha                 94.549583
_cell_angle_beta                  106.131798
_cell_angle_gamma                 74.233768
_cell_volume                      12805.440291
_symmetry_space_group_name_H-M    P1
_symmetry_Int_Tables_number       1
loop_
    _symmetry_equiv_pos_site_id
    _symmetry_equiv_pos_as_xyz
    1  x,y,z
loop_
    _atom_site_type_symbol
    _atom_site_label
    _atom_site_fract_x
    _atom_site_fract_y
    _atom_site_fract_z
    _atom_type_partial_charge
    Zn  Zn1   0.006120  0.586015  0.485277  1.443771
    Zn  Zn2   0.964649  0.486249  0.460340  1.394737
    Zn  Zn3   0.094625  0.504342  0.552932  1.336407
    Zn  Zn4   0.900402  0.546691  0.539010  1.415711
    O   O1    0.990168  0.531397  0.508476  -1.697138
    O   O2    0.980182  0.585285  0.416343  -0.685555
    O   O3    0.050605  0.423591  0.471288  -0.703808
    O   O4    0.174174  0.543765  0.573058  -0.653259
    O   O5    0.963256  0.509385  0.400573  -0.634903
    O   O6    0.125111  0.591769  0.508034  -0.691274
    O   O7    0.157703  0.449449  0.527533  -0.608971
    O   O8    0.078526  0.479282  0.607045  -0.676268
    O   O9    0.876835  0.612631  0.557318  -0.665539
    O   O10   0.928588  0.505874  0.593474  -0.726935
    O   O11   0.940841  0.643978  0.510108  -0.699362
    O   O12   0.846491  0.479701  0.448214  -0.671906
    O   O13   0.792356  0.537314  0.498370  -0.664491
    C   C1    0.005811  0.480305  0.618135  0.673358
    C   C2    0.780054  0.506168  0.463570  0.613201
    C   C3    0.894515  0.649242  0.541640  0.613111
    C   C4    0.968970  0.549776  0.385974  0.556935
    C   C5    0.186046  0.575128  0.547274  0.600766
    C   C6    0.132599  0.416524  0.497866  0.648375
    Zn  Zn5   0.642641  0.818361  0.818851  1.379652
    Zn  Zn6   0.496069  0.844446  0.870143  1.422781
    Zn  Zn7   0.469187  0.796418  0.771597  1.412198
    Zn  Zn8   0.595116  0.740374  0.858588  1.377849
    O   O14   0.549485  0.800032  0.829970  -1.667796
    O   O15   0.617795  0.885979  0.822423  -0.654202
    O   O16   0.371576  0.864072  0.843955  -0.671327
    O   O17   0.505377  0.813487  0.720226  -0.704918
    O   O18   0.527713  0.904378  0.872925  -0.673022
    O   O19   0.653123  0.801059  0.754157  -0.688788
    O   O20   0.351160  0.833730  0.767689  -0.657299
    O   O21   0.464102  0.732318  0.755869  -0.669867
    O   O22   0.718292  0.728802  0.889429  -0.704764
    O   O23   0.570418  0.688020  0.816859  -0.676630
    O   O24   0.749445  0.795423  0.869555  -0.711650
    O   O25   0.513324  0.818187  0.932577  -0.722114
    O   O26   0.549247  0.738908  0.911197  -0.638411
    C   C7    0.511161  0.690830  0.775304  0.557556
    C   C8    0.529818  0.772374  0.942505  0.645888
    C   C9    0.771145  0.757182  0.896395  0.675532
    C   C10   0.572545  0.917381  0.847223  0.605481
    C   C11   0.585386  0.806410  0.715635  0.685135
    C   C12   0.319939  0.859102  0.801383  0.545683
    Zn  Zn9   0.858112  0.222649  0.832272  1.408399
    Zn  Zn10  0.822334  0.178284  0.732218  1.387180
    Zn  Zn11  0.667538  0.233298  0.774170  1.372802
    Zn  Zn12  0.780479  0.287674  0.749283  1.322887
    O   O27   0.781655  0.229600  0.771515  -1.646153
    O   O28   0.928412  0.159201  0.845487  -0.665971
    O   O29   0.732397  0.144851  0.704971  -0.679569
    O   O30   0.653336  0.247957  0.838428  -0.678212
    O   O31   0.916428  0.128844  0.769811  -0.620786
    O   O32   0.797662  0.239946  0.880235  -0.673370
    O   O33   0.642093  0.173639  0.754225  -0.609100
    O   O34   0.579607  0.280030  0.729671  -0.681960
    O   O35   0.844928  0.325430  0.794366  -0.672760
    O   O36   0.667479  0.323946  0.716575  -0.657731
    O   O37   0.936219  0.262862  0.841822  -0.698827
    O   O38   0.870111  0.197704  0.684125  -0.701147
    O   O39   0.842080  0.277701  0.703108  -0.564012
    C   C13   0.590106  0.315253  0.707884  0.588478
    C   C14   0.876193  0.241355  0.678859  0.577832
    C   C15   0.918198  0.306934  0.826905  0.621829
    C   C16   0.948944  0.123785  0.816445  0.553096
    C   C17   0.714111  0.249322  0.878972  0.547161
    C   C18   0.666390  0.142745  0.721856  0.608454
    Zn  Zn13  0.344478  0.543767  0.123806  1.410120
    Zn  Zn14  0.313012  0.494833  0.025076  1.405415
    Zn  Zn15  0.295973  0.446282  0.110810  1.413242
    Zn  Zn16  0.159752  0.537043  0.069259  1.354119
    O   O40   0.279362  0.505218  0.082443  -1.702704
    O   O41   0.437039  0.552591  0.100597  -0.656366
    O   O42   0.355037  0.428336  0.012563  -0.662808
    O   O43   0.387316  0.438726  0.169407  -0.661325
    O   O44   0.405760  0.523060  0.024139  -0.655156
    O   O45   0.402836  0.515276  0.186281  -0.657816
    O   O46   0.327707  0.391365  0.071494  -0.717259
    O   O47   0.195236  0.441686  0.129166  -0.645916
    O   O48   0.143088  0.604118  0.078168  -0.597067
    O   O49   0.099933  0.515451  0.107944  -0.710808
    O   O50   0.277849  0.609942  0.124819  -0.708532
    O   O51   0.215681  0.515709  0.970071  -0.697400
    O   O52   0.100398  0.529272  0.003650  -0.642635
    C   C19   0.120575  0.473553  0.128454  0.589666
    C   C20   0.131064  0.523207  0.965737  0.656349
    C   C21   0.195865  0.630118  0.101485  0.614252
    C   C22   0.453744  0.544018  0.058802  0.568438
    C   C23   0.420636  0.469989  0.198617  0.566595
    C   C24   0.353373  0.389557  0.032299  0.667514
    C   C25   0.908570  0.758041  0.615518  -0.249239
    H   H1    0.991772  0.711930  0.576682  0.161758
    H   H2    0.865328  0.817051  0.683281  0.134898
    H   H3    0.958089  0.776318  0.633537  0.141898
    C   C26   0.867583  0.695727  0.563641  0.106504
    C   C27   0.525468  0.778617  0.635741  -0.057036
    C   C28   0.533121  0.756998  0.593165  -0.183046
    C   C29   0.612255  0.745790  0.582421  -0.096341
    C   C30   0.683907  0.758712  0.613248  -0.006019
    C   C31   0.673589  0.785545  0.653909  0.200036
    C   C32   0.765484  0.745814  0.603443  0.074643
    C   C33   0.829479  0.768148  0.627405  0.235249
    C   C34   0.815333  0.799500  0.664195  -0.238969
    C   C35   0.739860  0.806333  0.678960  -0.200319
    C   C36   0.786668  0.708205  0.572850  -0.256953
    C   C37   0.927276  0.722179  0.583037  -0.170308
    C   C38   0.595863  0.792002  0.667434  -0.131617
    H   H4    0.744248  0.684942  0.558666  0.166622
    H   H5    0.463108  0.783487  0.643692  0.128376
    H   H6    0.614043  0.729226  0.548132  0.101472
    H   H7    0.477405  0.747147  0.568789  0.135564
    H   H8    0.731940  0.830548  0.708403  0.155556
    C   C39   0.485818  0.567327  0.747439  -0.208754
    H   H9    0.550722  0.600726  0.809408  0.162200
    H   H10   0.411159  0.504270  0.696439  0.099117
    H   H11   0.498365  0.534220  0.765903  0.131051
    C   C40   0.494471  0.647830  0.749264  0.160371
    C   C41   0.259504  0.634672  0.537506  -0.130086
    C   C42   0.316843  0.662524  0.554485  -0.104846
    C   C43   0.370925  0.656122  0.600014  -0.169373
    C   C44   0.372338  0.619418  0.628347  0.065633
    C   C45   0.323931  0.586765  0.608483  0.125937
    C   C46   0.421416  0.614633  0.676156  0.050936
    C   C47   0.435654  0.573103  0.700470  0.164261
    C   C48   0.398658  0.537413  0.678050  -0.121000
    C   C49   0.341641  0.544495  0.633051  -0.219303
    C   C50   0.450250  0.652201  0.701402  -0.265051
    C   C51   0.515751  0.604668  0.771952  -0.187714
    C   C52   0.260308  0.597301  0.564440  -0.027564
    H   H12   0.433373  0.686751  0.685317  0.173599
    H   H13   0.213631  0.643116  0.502750  0.144859
    H   H14   0.414389  0.679262  0.611214  0.121099
    H   H15   0.316690  0.691032  0.532708  0.110167
    H   H16   0.316305  0.514773  0.617156  0.176408
    C   C53   0.936322  0.272747  0.575007  -0.246881
    H   H17   0.880328  0.217383  0.586112  0.141045
    H   H18   0.955578  0.339721  0.527047  0.159796
    H   H19   0.921588  0.267117  0.536767  0.128771
    C   C54   0.928790  0.253065  0.650873  0.102385
    C   C55   0.030852  0.451609  0.698380  -0.227126
    C   C56   0.041369  0.415901  0.729220  -0.076596
    C   C57   0.028347  0.372195  0.711958  -0.199348
    C   C58   0.004677  0.363140  0.662844  0.100976
    C   C59   0.999566  0.398527  0.632007  -0.040680
    C   C60   0.983184  0.320595  0.643596  0.077668
    C   C61   0.964662  0.312634  0.594802  0.249975
    C   C62   0.969363  0.345875  0.565197  -0.320086
    C   C63   0.984348  0.388935  0.583294  -0.035441
    C   C64   0.970131  0.288112  0.671305  -0.295114
    C   C65   0.914895  0.243807  0.602736  -0.144706
    C   C66   0.009795  0.443209  0.650041  0.125877
    H   H20   0.979882  0.292917  0.709170  0.150969
    H   H21   0.041227  0.485860  0.712098  0.132803
    H   H22   0.040044  0.345924  0.738670  0.127476
    H   H23   0.060118  0.422116  0.767308  0.112043
    H   H24   0.982699  0.414614  0.557981  0.095310
    C   C67   0.238655  0.294065  0.540611  -0.302639
    H   H25   0.110008  0.325567  0.496050  0.127919
    H   H26   0.358234  0.238337  0.607803  0.145290
    H   H27   0.222220  0.261685  0.546175  0.139365
    C   C68   0.197561  0.370416  0.504383  -0.050113
    C   C69   0.528209  0.391118  0.668942  -0.160605
    C   C70   0.476556  0.420792  0.632152  -0.033161
    C   C71   0.413658  0.406112  0.597305  -0.168390
    C   C72   0.401739  0.360436  0.598163  0.038229
    C   C73   0.454267  0.329938  0.635966  0.087559
    C   C74   0.334804  0.345888  0.563492  0.058570
    C   C75   0.315435  0.303774  0.569092  0.286720
    C   C76   0.370875  0.272373  0.604318  -0.285441
    C   C77   0.441004  0.284656  0.636609  -0.177960
    C   C78   0.281511  0.374366  0.525041  -0.150453
    C   C79   0.176248  0.329129  0.510868  -0.060144
    C   C80   0.518998  0.345649  0.671579  0.019670
    H   H28   0.297110  0.404935  0.514664  0.097858
    H   H29   0.577276  0.404093  0.695777  0.148711
    H   H30   0.374148  0.432831  0.571056  0.127205
    H   H31   0.485634  0.456028  0.630459  0.063641
    H   H32   0.481286  0.258439  0.663222  0.162606
    C   C81   0.538579  0.549740  0.413396  -0.267301
    H   H33   0.629158  0.564279  0.476892  0.126020
    H   H34   0.395113  0.566053  0.343349  0.154854
    H   H35   0.485293  0.578546  0.419942  0.132258
    C   C82   0.689987  0.507109  0.436031  0.019057
    C   C83   0.550747  0.408777  0.236228  -0.184504
    C   C84   0.622428  0.390721  0.273367  -0.090188
    C   C85   0.637274  0.415833  0.315442  -0.172891
    C   C86   0.578482  0.459063  0.321495  0.091052
    C   C87   0.502126  0.475237  0.285074  0.048428
    C   C88   0.593650  0.486072  0.363432  -0.008915
    C   C89   0.526509  0.523735  0.371459  0.299210
    C   C90   0.447588  0.536551  0.337083  -0.308443
    C   C91   0.436529  0.513795  0.293477  -0.104826
    C   C92   0.676145  0.478506  0.395951  -0.183305
    C   C93   0.620019  0.541436  0.445757  -0.095928
    C   C94   0.491079  0.451345  0.241345  0.065276
    H   H36   0.732830  0.453487  0.388626  0.153823
    H   H37   0.542705  0.389610  0.202596  0.150089
    H   H38   0.693667  0.399040  0.343532  0.120035
    H   H39   0.668372  0.357064  0.269203  0.112148
    H   H40   0.374070  0.525603  0.267276  0.128952
    C   C95   0.053161  0.409144  0.208718  -0.217046
    H   H41   0.106404  0.388973  0.149320  0.142724
    H   H42   0.035782  0.398271  0.292135  0.134307
    H   H43   0.064135  0.372419  0.218637  0.133376
    C   C96   0.069695  0.464892  0.159055  0.120499
    C   C97   0.937545  0.603103  0.319676  -0.141861
    C   C98   0.930212  0.613463  0.273449  -0.117131
    C   C99   0.951662  0.577493  0.242092  -0.157260
    C   C100  0.980663  0.529940  0.256460  0.069998
    C   C101  0.981724  0.518804  0.302491  0.051889
    C   C102  0.009699  0.493296  0.225710  0.037341
    C   C103  0.025302  0.446134  0.238045  0.237724
    C   C104  0.020064  0.435224  0.281669  -0.247756
    C   C105  0.004517  0.470523  0.314515  -0.149809
    C   C106  0.032122  0.502312  0.185214  -0.262498
    C   C107  0.076679  0.418429  0.169544  -0.173529
    C   C108  0.962239  0.556284  0.335038  0.057327
    H   H44   0.033526  0.537588  0.177211  0.174749
    H   H45   0.920781  0.632507  0.343422  0.146712
    H   H46   0.941815  0.588141  0.205952  0.122823
    H   H47   0.907885  0.650260  0.261689  0.114820
    H   H48   0.011578  0.457307  0.348938  0.142901
    C   C109  0.084029  0.909713  0.738071  -0.233384
    H   H49   0.182923  0.848031  0.727432  0.140823
    H   H50   0.935378  0.976339  0.718900  0.140756
    H   H51   0.036254  0.903356  0.705893  0.131497
    C   C110  0.228459  0.887402  0.790294  0.140115
    C   C111  0.071144  0.085829  0.881902  -0.128342
    C   C112  0.138595  0.048245  0.903149  -0.118171
    C   C113  0.155678  0.005756  0.879173  -0.155405
    C   C114  0.103330  0.999769  0.833638  0.053844
    C   C115  0.028428  0.035918  0.814617  0.125979
    C   C116  0.124117  0.958281  0.806855  0.038760
    C   C117  0.063897  0.950192  0.765403  0.241745
    C   C118  0.983886  0.983075  0.750556  -0.243625
    C   C119  0.966804  0.026010  0.774241  -0.219430
    C   C120  0.206741  0.926491  0.818710  -0.258662
    C   C121  0.166649  0.878500  0.750148  -0.163560
    C   C122  0.015911  0.080513  0.837469  0.003884
    H   H52   0.258896  0.934013  0.847375  0.177271
    H   H53   0.062942  0.119592  0.900825  0.144010
    H   H54   0.208693  0.977488  0.898483  0.122813
    H   H55   0.180012  0.052489  0.938409  0.115086
    H   H56   0.902845  0.050284  0.761150  0.185344
    C   C123  0.484249  0.049968  0.844019  -0.273716
    H   H57   0.476455  0.994588  0.885032  0.127345
    H   H58   0.450893  0.135714  0.810167  0.144138
    H   H59   0.442267  0.077593  0.860475  0.137029
    C   C124  0.558690  0.968038  0.837824  0.025276
    C   C125  0.674221  0.064022  0.684912  -0.063919
    C   C126  0.670671  0.017639  0.686874  -0.126377
    C   C127  0.636258  0.004495  0.720183  -0.155706
    C   C128  0.597797  0.038691  0.749502  0.054500
    C   C129  0.588106  0.086570  0.741473  0.183888
    C   C130  0.568049  0.026353  0.786331  0.001663
    C   C131  0.516171  0.061481  0.808454  0.256954
    C   C132  0.494577  0.108291  0.794502  -0.239740
    C   C133  0.530956  0.120896  0.761816  -0.200067
    C   C134  0.591690  0.979846  0.802844  -0.165549
    C   C135  0.504246  0.003211  0.858262  -0.088595
    C   C136  0.635844  0.098736  0.713279  -0.128638
    H   H60   0.637337  0.952027  0.789324  0.131389
    H   H61   0.709689  0.072280  0.661795  0.133714
    H   H62   0.637252  0.967281  0.720450  0.126579
    H   H63   0.700115  0.990729  0.664226  0.100759
    H   H64   0.509887  0.157879  0.751060  0.150272
    C   C137  0.814174  0.754612  0.026132  -0.175816
    H   H65   0.703040  0.775493  0.967315  0.105266
    H   H66   0.901616  0.717623  0.109129  0.150393
    H   H67   0.774572  0.755614  0.050513  0.097090
    C   C138  0.822147  0.759129  0.946223  0.136325
    C   C139  0.226660  0.691777  0.062912  -0.145373
    C   C140  0.192024  0.721970  0.024110  -0.095976
    C   C141  0.102110  0.737164  0.005168  -0.193361
    C   C142  0.046236  0.726863  0.028576  0.123434
    C   C143  0.082794  0.702228  0.071402  0.106687
    C   C144  0.954846  0.739748  0.010345  0.032528
    C   C145  0.903991  0.738531  0.040918  0.196324
    C   C146  0.941963  0.719377  0.085924  -0.234724
    C   C147  0.030357  0.698094  0.099692  -0.196596
    C   C148  0.913038  0.749277  0.961832  -0.284319
    C   C149  0.773884  0.765470  0.979125  -0.163473
    C   C150  0.171386  0.679481  0.085047  -0.057053
    H   H68   0.949643  0.744284  0.935408  0.152641
    H   H69   0.296018  0.673905  0.072315  0.155759
    H   H70   0.077411  0.758842  0.973346  0.128895
    H   H71   0.235446  0.730375  0.005963  0.106721
    H   H72   0.058701  0.680413  0.133949  0.139672
    C   C151  0.636767  0.563407  0.017991  -0.223657
    H   H73   0.597629  0.501632  0.028845  0.144400
    H   H74   0.719304  0.614427  0.987585  0.148980
    H   H75   0.690936  0.542834  0.004471  0.135676
    C   C152  0.515371  0.566471  0.048229  0.158955
    C   C153  0.456052  0.786115  0.006805  -0.163805
    C   C154  0.428679  0.767621  0.040151  -0.101675
    C   C155  0.458397  0.719484  0.050645  -0.104976
    C   C156  0.521623  0.689678  0.030486  -0.006309
    C   C157  0.558469  0.710246  0.002800  0.147121
    C   C158  0.546398  0.639736  0.035076  0.071275
    C   C159  0.615796  0.612812  0.018041  0.253641
    C   C160  0.662925  0.635092  0.999212  -0.275551
    C   C161  0.633687  0.683316  0.990844  -0.190725
    C   C162  0.498187  0.615532  0.051696  -0.308956
    C   C163  0.584605  0.540162  0.031549  -0.189430
    C   C164  0.519032  0.757170  0.986820  -0.016501
    H   H76   0.440364  0.633665  0.062877  0.186671
    H   H77   0.424999  0.822624  0.995003  0.154030
    H   H78   0.432274  0.706940  0.075903  0.093883
    H   H79   0.379237  0.790290  0.055896  0.101933
    H   H80   0.670991  0.699152  0.974507  0.189314
    C   C165  0.728212  0.304565  0.998674  -0.233126
    H   H81   0.817690  0.278203  0.957168  0.147358
    H   H82   0.666570  0.355643  0.064363  0.132783
    H   H83   0.775480  0.318745  0.025585  0.131710
    C   C166  0.690267  0.266455  0.923270  0.161728
    C   C167  0.329465  0.319042  0.984421  -0.133220
    C   C168  0.357527  0.282762  0.954584  -0.110387
    C   C169  0.440917  0.273742  0.948466  -0.221797
    C   C170  0.499647  0.298895  0.974930  0.132102
    C   C171  0.473719  0.331409  0.008906  0.029207
    C   C172  0.583433  0.292724  0.968515  0.011167
    C   C173  0.643633  0.312080  0.002003  0.243289
    C   C174  0.619507  0.340330  0.038558  -0.242775
    C   C175  0.534018  0.351954  0.040674  -0.141366
    C   C176  0.607011  0.270684  0.928115  -0.266227
    C   C177  0.751878  0.281401  0.959756  -0.161716
    C   C178  0.387263  0.343833  0.011018  0.036498
    H   H84   0.560467  0.259180  0.898621  0.172330
    H   H85   0.261499  0.329176  0.985552  0.117764
    H   H86   0.458945  0.245395  0.924068  0.130862
    H   H87   0.312672  0.262744  0.934089  0.125446
    H   H88   0.517227  0.375518  0.069168  0.129599
    C   C179  0.139086  0.328229  0.858939  -0.258132
    H   H89   0.088791  0.267287  0.841400  0.128753
    H   H90   0.255776  0.376103  0.888962  0.160691
    H   H91   0.206394  0.307372  0.863925  0.129383
    C   C180  0.987099  0.331959  0.840267  0.100271
    C   C181  0.986580  0.544186  0.909902  -0.120539
    C   C182  0.919456  0.529820  0.877550  -0.087994
    C   C183  0.934062  0.484009  0.859441  -0.208327
    C   C184  0.018114  0.453148  0.870916  0.140337
    C   C185  0.088053  0.471155  0.896433  0.086376
    C   C186  0.034040  0.404227  0.859745  -0.009529
    C   C187  0.120132  0.376733  0.867364  0.304134
    C   C188  0.188703  0.397201  0.884634  -0.319311
    C   C189  0.173298  0.443449  0.900549  -0.148442
    C   C190  0.966930  0.381093  0.844882  -0.243258
    C   C191  0.072913  0.305632  0.846643  -0.130947
    C   C192  0.071158  0.515176  0.919862  -0.066234
    H   H92   0.898658  0.399392  0.840419  0.153815
    H   H93   0.972299  0.577864  0.928588  0.125788
    H   H94   0.878142  0.473999  0.835839  0.136792
    H   H95   0.853544  0.553216  0.869197  0.114326
    H   H96   0.230218  0.456923  0.914528  0.163140
