# Generated by REPEAT Assigner based on pymatgen
data_DB0-m2_o7_o19_f0_nbo.sym.79
_audit_creation_date              2022-05-24
_audit_creation_method            REPEAT_Assigner
_cell_length_a                    35.262080
_cell_length_b                    35.201655
_cell_length_c                    23.497426
_cell_angle_alpha                 90.000000
_cell_angle_beta                  90.000000
_cell_angle_gamma                 90.000000
_cell_volume                      29166.969149
_symmetry_space_group_name_H-M    P1
_symmetry_Int_Tables_number       1
loop_
    _symmetry_equiv_pos_site_id
    _symmetry_equiv_pos_as_xyz
    1  x,y,z
loop_
    _atom_site_type_symbol
    _atom_site_label
    _atom_site_fract_x
    _atom_site_fract_y
    _atom_site_fract_z
    _atom_type_partial_charge
    C   C1    0.000000  0.427868  0.500000  0.762879
    C   C2    0.500000  0.000000  0.607656  0.775728
    C   C3    0.672759  0.966967  0.488912  -0.476390
    C   C4    0.967013  0.673071  0.511010  -0.481239
    C   C5    0.327241  0.966967  0.511088  -0.476432
    C   C6    0.032987  0.326929  0.511010  -0.481272
    C   C7    0.672759  0.033033  0.511088  -0.476426
    C   C8    0.467013  0.826929  0.988989  -0.481322
    C   C9    0.827241  0.533033  0.988912  -0.476510
    C   C10   0.532987  0.173071  0.988989  -0.481432
    C   C11   0.172759  0.466967  0.988912  -0.476598
    C   C12   0.467013  0.173071  0.011010  -0.481355
    C   C13   0.000000  0.500000  0.392344  0.776996
    C   C14   0.827241  0.466967  0.011088  -0.476377
    C   C15   0.532987  0.826929  0.011010  -0.481266
    C   C16   0.172759  0.533033  0.011088  -0.476526
    C   C17   0.966574  0.366254  0.489961  0.490349
    C   C18   0.366497  0.033474  0.489881  0.488579
    C   C19   0.033426  0.633746  0.489961  0.490446
    C   C20   0.633503  0.966526  0.489881  0.488647
    C   C21   0.966574  0.633746  0.510039  0.490349
    C   C22   0.366497  0.966526  0.510119  0.488743
    C   C23   0.033426  0.366254  0.510039  0.490465
    C   C24   0.500000  0.000000  0.392344  0.775647
    C   C25   0.633503  0.033474  0.510119  0.488892
    C   C26   0.466573  0.866254  0.989960  0.490337
    C   C27   0.866497  0.533474  0.989881  0.488521
    C   C28   0.533427  0.133746  0.989961  0.490572
    C   C29   0.133503  0.466526  0.989881  0.488726
    C   C30   0.466574  0.133746  0.010039  0.490504
    C   C31   0.866497  0.466527  0.010119  0.488517
    C   C32   0.533426  0.866254  0.010039  0.490535
    C   C33   0.133503  0.533473  0.010119  0.488841
    C   C34   0.000000  0.386032  0.500000  -0.412571
    C   C35   0.500000  0.000000  0.107656  0.777135
    C   C36   0.386237  0.000000  0.500000  -0.408317
    C   C37   0.000000  0.613968  0.500000  -0.412574
    C   C38   0.613763  0.000000  0.500000  -0.408366
    C   C39   0.500000  0.886032  0.000000  -0.412791
    C   C40   0.886237  0.500000  0.000000  -0.408047
    C   C41   0.500000  0.113968  0.000000  -0.412755
    C   C42   0.113763  0.500000  0.000000  -0.408314
    C   C43   0.000000  0.307487  0.500000  0.427088
    C   C44   0.307835  0.000000  0.500000  0.419764
    C   C45   0.000000  0.692513  0.500000  0.427090
    C   C46   0.000000  0.500000  0.107656  0.775630
    C   C47   0.692165  0.000000  0.500000  0.419681
    C   C48   0.500000  0.807487  0.000000  0.427165
    C   C49   0.807835  0.500000  0.000000  0.419947
    C   C50   0.500000  0.192513  0.000000  0.427213
    C   C51   0.192165  0.500000  0.000000  0.419972
    C   C52   0.928045  0.000000  0.500000  0.713574
    C   C53   0.000000  0.071891  0.500000  0.732022
    C   C54   0.071955  0.000000  0.500000  0.713600
    C   C55   0.000000  0.928109  0.500000  0.731793
    C   C56   0.428045  0.500000  0.000000  0.713231
    C   C57   0.500000  0.000000  0.892343  0.777134
    C   C58   0.500000  0.571891  0.000000  0.731522
    C   C59   0.571955  0.500000  0.000000  0.713184
    C   C60   0.500000  0.428109  0.000000  0.731900
    C   C61   0.976698  0.124011  0.352824  0.851432
    C   C62   0.953544  0.104207  0.308957  -0.631207
    C   C63   0.125321  0.990087  0.349824  0.835549
    C   C64   0.106630  0.002155  0.295991  -0.615570
    C   C65   0.023302  0.875989  0.352824  0.851169
    C   C66   0.046455  0.895793  0.308956  -0.631332
    C   C67   0.874678  0.009913  0.349824  0.835573
    C   C68   0.000000  0.500000  0.892344  0.775534
    C   C69   0.893370  0.997845  0.295991  -0.615723
    C   C70   0.976698  0.875989  0.647176  0.851122
    C   C71   0.953545  0.895793  0.691044  -0.631146
    C   C72   0.125322  0.009913  0.650176  0.835667
    C   C73   0.106630  0.997845  0.704009  -0.616084
    C   C74   0.023302  0.124011  0.647176  0.851392
    C   C75   0.046455  0.104207  0.691043  -0.631475
    C   C76   0.874678  0.990087  0.650176  0.835388
    C   C77   0.893370  0.002154  0.704009  -0.615647
    C   C78   0.476698  0.624011  0.852824  0.851308
    C   C79   0.000000  0.500000  0.668692  -0.198778
    C   C80   0.453545  0.604207  0.808956  -0.631247
    C   C81   0.625321  0.490087  0.849824  0.835555
    C   C82   0.606630  0.502155  0.795991  -0.615557
    C   C83   0.523302  0.375989  0.852824  0.851291
    C   C84   0.546455  0.395793  0.808956  -0.631373
    C   C85   0.374678  0.509913  0.849824  0.835341
    C   C86   0.393370  0.497845  0.795991  -0.615550
    C   C87   0.476698  0.375989  0.147176  0.851327
    C   C88   0.453545  0.395793  0.191044  -0.631515
    C   C89   0.625321  0.509914  0.150176  0.835349
    C   C90   0.500000  0.000000  0.668691  -0.198466
    C   C91   0.606630  0.497846  0.204009  -0.615808
    C   C92   0.523301  0.624011  0.147176  0.851690
    C   C93   0.546454  0.604207  0.191044  -0.632394
    C   C94   0.374678  0.490086  0.150176  0.835464
    C   C95   0.393370  0.502154  0.204009  -0.615831
    C   C96   0.899434  0.374601  0.493137  0.816469
    C   C97   0.865843  0.393447  0.467201  -0.556880
    C   C98   0.374834  0.100733  0.492873  0.814548
    C   C99   0.393651  0.134347  0.466844  -0.552644
    C   C100  0.100566  0.625398  0.493137  0.816544
    C   C101  0.000000  0.500000  0.331308  -0.198744
    C   C102  0.134157  0.606553  0.467200  -0.556924
    C   C103  0.625166  0.899267  0.492873  0.814512
    C   C104  0.606349  0.865653  0.466844  -0.553055
    C   C105  0.899434  0.625399  0.506863  0.816471
    C   C106  0.865843  0.606553  0.532799  -0.556973
    C   C107  0.374834  0.899267  0.507126  0.814744
    C   C108  0.393651  0.865653  0.533156  -0.553272
    C   C109  0.100566  0.374601  0.506863  0.816552
    C   C110  0.134157  0.393447  0.532799  -0.557021
    C   C111  0.625166  0.100733  0.507126  0.814839
    C   C112  0.427995  0.000000  0.500000  0.759596
    C   C113  0.500000  0.000000  0.331309  -0.198194
    C   C114  0.606349  0.134347  0.533155  -0.553293
    C   C115  0.399434  0.874602  0.993137  0.816355
    C   C116  0.365843  0.893447  0.967200  -0.556581
    C   C117  0.874834  0.600733  0.992874  0.814392
    C   C118  0.893651  0.634348  0.966844  -0.552528
    C   C119  0.600566  0.125398  0.993138  0.816548
    C   C120  0.634157  0.106553  0.967201  -0.557027
    C   C121  0.125166  0.399267  0.992874  0.814371
    C   C122  0.106349  0.365652  0.966844  -0.552436
    C   C123  0.399434  0.125399  0.006862  0.816573
    C   C124  0.500000  0.000000  0.168691  -0.198819
    C   C125  0.365843  0.106553  0.032799  -0.557055
    C   C126  0.874834  0.399268  0.007126  0.814500
    C   C127  0.893651  0.365653  0.033156  -0.552792
    C   C128  0.600566  0.874601  0.006863  0.816490
    C   C129  0.634157  0.893447  0.032800  -0.557030
    C   C130  0.125166  0.600732  0.007126  0.814675
    C   C131  0.106349  0.634347  0.033156  -0.553299
    C   C132  0.000000  0.500000  0.168691  -0.198326
    C   C133  0.500000  0.000000  0.831308  -0.198821
    C   C134  0.000000  0.500000  0.831309  -0.198279
    C   C135  0.000000  0.500000  0.719962  0.062571
    C   C136  0.500000  0.000000  0.719962  0.062329
    C   C137  0.000000  0.500000  0.280038  0.062544
    C   C138  0.500000  0.000000  0.280038  0.062107
    C   C139  0.500000  0.000000  0.219962  0.062560
    C   C140  0.000000  0.572132  0.500000  0.762859
    C   C141  0.000000  0.500000  0.219962  0.062199
    C   C142  0.500000  0.000000  0.780037  0.062538
    C   C143  0.000000  0.500000  0.780038  0.062172
    C   C144  0.987111  0.172361  0.453014  -0.472734
    C   C145  0.172946  0.002834  0.449501  -0.466035
    C   C146  0.012889  0.827639  0.453013  -0.472481
    C   C147  0.827054  0.997166  0.449501  -0.465381
    C   C148  0.987111  0.827639  0.546986  -0.472529
    C   C149  0.172946  0.997166  0.550499  -0.466011
    C   C150  0.012889  0.172361  0.546986  -0.472541
    C   C151  0.572005  0.000000  0.500000  0.759327
    C   C152  0.827054  0.002834  0.550499  -0.464960
    C   C153  0.487111  0.672361  0.953013  -0.472508
    C   C154  0.672946  0.502834  0.949501  -0.465025
    C   C155  0.512889  0.327639  0.953013  -0.472472
    C   C156  0.327053  0.497166  0.949501  -0.465609
    C   C157  0.487111  0.327639  0.046986  -0.472586
    C   C158  0.672946  0.497166  0.050499  -0.464771
    C   C159  0.512889  0.672361  0.046986  -0.472406
    C   C160  0.327054  0.502834  0.050499  -0.465108
    C   C161  0.987651  0.133038  0.452351  0.488146
    C   C162  0.500000  0.927868  0.000000  0.763066
    C   C163  0.133697  0.002199  0.448924  0.467326
    C   C164  0.012349  0.866962  0.452351  0.487988
    C   C165  0.866302  0.997801  0.448924  0.466893
    C   C166  0.987651  0.866962  0.547649  0.487998
    C   C167  0.133697  0.997801  0.551076  0.467508
    C   C168  0.012349  0.133038  0.547649  0.488095
    C   C169  0.866302  0.002199  0.551076  0.466442
    C   C170  0.487651  0.633038  0.952351  0.487895
    C   C171  0.633697  0.502199  0.948924  0.466244
    C   C172  0.512349  0.366962  0.952351  0.487984
    C   C173  0.927995  0.500000  0.000000  0.759466
    C   C174  0.366302  0.497801  0.948924  0.466677
    C   C175  0.487651  0.366962  0.047649  0.488110
    C   C176  0.633697  0.497801  0.051076  0.466265
    C   C177  0.512349  0.633038  0.047649  0.488349
    C   C178  0.366302  0.502199  0.051076  0.466689
    C   C179  0.000000  0.113503  0.500000  -0.381322
    C   C180  0.113831  0.000000  0.500000  -0.368388
    C   C181  0.000000  0.886497  0.500000  -0.381154
    C   C182  0.886169  0.000000  0.500000  -0.367783
    C   C183  0.500000  0.613503  0.000000  -0.381197
    C   C184  0.500000  0.072132  0.000000  0.763144
    C   C185  0.613831  0.500000  0.000000  -0.367155
    C   C186  0.500000  0.386497  0.000000  -0.381308
    C   C187  0.386169  0.500000  0.000000  -0.367628
    C   C188  0.000000  0.191799  0.500000  0.389780
    C   C189  0.192356  0.000000  0.500000  0.401085
    C   C190  0.000000  0.808201  0.500000  0.389591
    C   C191  0.807644  0.000000  0.500000  0.400379
    C   C192  0.500000  0.691799  0.000000  0.389469
    C   C193  0.692356  0.500000  0.000000  0.400093
    C   C194  0.500000  0.308201  0.000000  0.389622
    C   C195  0.072005  0.500000  0.000000  0.759526
    C   C196  0.307644  0.500000  0.000000  0.400593
    C   C197  0.000000  0.232535  0.500000  -0.121492
    C   C198  0.233019  0.000000  0.500000  -0.128594
    C   C199  0.000000  0.767465  0.500000  -0.121391
    C   C200  0.766981  0.000000  0.500000  -0.128615
    C   C201  0.500000  0.732535  0.000000  -0.121164
    C   C202  0.733019  0.500000  0.000000  -0.128280
    C   C203  0.500000  0.267465  0.000000  -0.121395
    C   C204  0.266981  0.500000  0.000000  -0.128440
    C   C205  0.000000  0.266750  0.500000  -0.138203
    C   C206  0.000000  0.500000  0.607656  0.777005
    C   C207  0.267173  0.000000  0.500000  -0.131127
    C   C208  0.000000  0.733250  0.500000  -0.138252
    C   C209  0.732827  0.000000  0.500000  -0.131054
    C   C210  0.500000  0.766750  0.000000  -0.138446
    C   C211  0.767173  0.500000  0.000000  -0.131337
    C   C212  0.500000  0.233250  0.000000  -0.138258
    C   C213  0.232827  0.500000  0.000000  -0.131243
    C   C214  0.967013  0.326929  0.488989  -0.481250
    C   C215  0.327241  0.033033  0.488912  -0.476389
    C   C216  0.032987  0.673071  0.488989  -0.481224
    Cu  Cu1   0.037023  0.500000  0.500000  0.926396
    Cu  Cu2   0.000000  0.000000  0.444497  0.883617
    Cu  Cu3   0.500000  0.500000  0.055503  0.883436
    Cu  Cu4   0.500000  0.500000  0.944497  0.883616
    Cu  Cu5   0.500000  0.962913  0.500000  0.929442
    Cu  Cu6   0.962976  0.500000  0.500000  0.926621
    Cu  Cu7   0.500000  0.037087  0.500000  0.929450
    Cu  Cu8   0.537023  0.000000  0.000000  0.926393
    Cu  Cu9   0.000000  0.462913  0.000000  0.929362
    Cu  Cu10  0.462976  0.000000  0.000000  0.926655
    Cu  Cu11  0.000000  0.537087  0.000000  0.929677
    Cu  Cu12  0.000000  0.000000  0.555503  0.883576
    H   H1    0.975818  0.188451  0.417726  0.204944
    H   H2    0.688998  0.506403  0.910700  0.205265
    H   H3    0.150558  0.408256  0.499195  0.180335
    H   H4    0.152338  0.371774  0.553504  0.158837
    H   H5    0.585471  0.124669  0.565337  0.141904
    H   H6    0.591568  0.150819  0.499595  0.179030
    H   H7    0.627981  0.152534  0.553917  0.159335
    H   H8    0.375463  0.914358  0.934986  0.142803
    H   H9    0.349441  0.908256  0.000804  0.180218
    H   H10   0.347662  0.871774  0.946496  0.158801
    H   H11   0.914530  0.624669  0.934663  0.141689
    H   H12   0.908432  0.650820  0.000405  0.178888
    H   H13   0.524182  0.311549  0.917726  0.204831
    H   H14   0.872019  0.652534  0.946082  0.159248
    H   H15   0.624537  0.085642  0.934986  0.142888
    H   H16   0.650559  0.091744  0.000805  0.180405
    H   H17   0.652338  0.128226  0.946497  0.158811
    H   H18   0.085470  0.375331  0.934663  0.141702
    H   H19   0.091568  0.349180  0.000405  0.178865
    H   H20   0.127981  0.347466  0.946082  0.159204
    H   H21   0.375463  0.085642  0.065013  0.142886
    H   H22   0.349442  0.091744  0.999194  0.180383
    H   H23   0.347662  0.128226  0.053503  0.158813
    H   H24   0.311001  0.493597  0.910700  0.205537
    H   H25   0.914529  0.375331  0.065337  0.141834
    H   H26   0.908432  0.349181  0.999595  0.178807
    H   H27   0.872018  0.347466  0.053918  0.159243
    H   H28   0.624537  0.914358  0.065014  0.142965
    H   H29   0.650558  0.908256  0.999195  0.180299
    H   H30   0.652338  0.871774  0.053504  0.158867
    H   H31   0.085471  0.624669  0.065337  0.141950
    H   H32   0.091568  0.650819  0.999595  0.178983
    H   H33   0.127981  0.652534  0.053917  0.159356
    H   H34   0.475818  0.311549  0.082274  0.204816
    H   H35   0.688998  0.493598  0.089299  0.205077
    H   H36   0.524182  0.688451  0.082274  0.204637
    H   H37   0.311001  0.506402  0.089299  0.205167
    H   H38   0.941908  0.310826  0.478379  0.203554
    H   H39   0.311165  0.058170  0.478243  0.200775
    H   H40   0.058092  0.689173  0.478379  0.203505
    H   H41   0.188998  0.006403  0.410700  0.205442
    H   H42   0.688834  0.941830  0.478243  0.200781
    H   H43   0.941908  0.689174  0.521621  0.203530
    H   H44   0.311165  0.941830  0.521757  0.200749
    H   H45   0.058092  0.310826  0.521621  0.203534
    H   H46   0.688835  0.058170  0.521757  0.200750
    H   H47   0.441907  0.810827  0.978379  0.203634
    H   H48   0.811165  0.558170  0.978243  0.200784
    H   H49   0.558093  0.189174  0.978379  0.203570
    H   H50   0.188834  0.441830  0.978243  0.200776
    H   H51   0.441908  0.189174  0.021621  0.203530
    H   H52   0.024182  0.811549  0.417726  0.204833
    H   H53   0.811165  0.441830  0.021757  0.200804
    H   H54   0.558092  0.810826  0.021621  0.203545
    H   H55   0.188835  0.558170  0.021757  0.200762
    H   H56   0.934902  0.083077  0.330004  0.166759
    H   H57   0.972562  0.089509  0.278494  0.186237
    H   H58   0.935905  0.125243  0.285868  0.183393
    H   H59   0.085989  0.025108  0.305248  0.148135
    H   H60   0.091589  0.977614  0.276865  0.192083
    H   H61   0.128377  0.012751  0.265825  0.184255
    H   H62   0.065097  0.916923  0.330004  0.166730
    H   H63   0.811001  0.993597  0.410700  0.205410
    H   H64   0.027438  0.910491  0.278494  0.186402
    H   H65   0.064094  0.874757  0.285867  0.183363
    H   H66   0.914011  0.974892  0.305248  0.148193
    H   H67   0.908411  0.022386  0.276865  0.192086
    H   H68   0.871623  0.987248  0.265825  0.184316
    H   H69   0.934903  0.916923  0.669996  0.166607
    H   H70   0.972562  0.910491  0.721506  0.186388
    H   H71   0.935906  0.874757  0.714133  0.183317
    H   H72   0.085989  0.974892  0.694752  0.148309
    H   H73   0.091589  0.022386  0.723134  0.192133
    H   H74   0.975818  0.811549  0.582274  0.204822
    H   H75   0.128377  0.987248  0.734175  0.184399
    H   H76   0.065097  0.083077  0.669995  0.166817
    H   H77   0.027438  0.089509  0.721506  0.186375
    H   H78   0.064095  0.125243  0.714132  0.183355
    H   H79   0.914011  0.025108  0.694752  0.148148
    H   H80   0.908411  0.977614  0.723134  0.192101
    H   H81   0.871623  0.012751  0.734175  0.184252
    H   H82   0.434903  0.583077  0.830003  0.166623
    H   H83   0.472563  0.589509  0.778494  0.186408
    H   H84   0.435906  0.625243  0.785867  0.183325
    H   H85   0.188999  0.993597  0.589299  0.205469
    H   H86   0.585989  0.525108  0.805248  0.148142
    H   H87   0.591589  0.477614  0.776865  0.192036
    H   H88   0.628377  0.512752  0.765825  0.184285
    H   H89   0.565097  0.416923  0.830004  0.166797
    H   H90   0.527438  0.410491  0.778494  0.186402
    H   H91   0.564094  0.374757  0.785867  0.183363
    H   H92   0.414011  0.474892  0.805248  0.148140
    H   H93   0.408411  0.522386  0.776865  0.192035
    H   H94   0.371623  0.487248  0.765825  0.184293
    H   H95   0.434903  0.416923  0.169996  0.166831
    H   H96   0.024182  0.188451  0.582274  0.204802
    H   H97   0.472563  0.410491  0.221506  0.186448
    H   H98   0.435907  0.374757  0.214133  0.183373
    H   H99   0.585989  0.474893  0.194752  0.148157
    H   H100  0.591589  0.522386  0.223134  0.192207
    H   H101  0.628377  0.487249  0.234175  0.184255
    H   H102  0.565096  0.583077  0.169996  0.167033
    H   H103  0.527437  0.589509  0.221506  0.186723
    H   H104  0.564093  0.625244  0.214133  0.183441
    H   H105  0.414011  0.525108  0.194752  0.148196
    H   H106  0.408411  0.477614  0.223134  0.192162
    H   H107  0.811001  0.006403  0.589299  0.205351
    H   H108  0.371623  0.512751  0.234175  0.184249
    H   H109  0.875463  0.414358  0.434986  0.142839
    H   H110  0.849441  0.408256  0.500805  0.180337
    H   H111  0.847662  0.371774  0.446496  0.158814
    H   H112  0.414529  0.124669  0.434663  0.141792
    H   H113  0.408432  0.150819  0.500404  0.178802
    H   H114  0.372019  0.152534  0.446082  0.159215
    H   H115  0.124537  0.585642  0.434986  0.142917
    H   H116  0.150558  0.591744  0.500805  0.180300
    H   H117  0.152338  0.628226  0.446496  0.158828
    H   H118  0.475818  0.688451  0.917726  0.204830
    H   H119  0.585470  0.875331  0.434663  0.141913
    H   H120  0.591568  0.849181  0.500404  0.178920
    H   H121  0.627981  0.847466  0.446082  0.159337
    H   H122  0.875463  0.585642  0.565014  0.142883
    H   H123  0.849441  0.591744  0.499195  0.180347
    H   H124  0.847662  0.628226  0.553504  0.158831
    H   H125  0.414529  0.875331  0.565337  0.141949
    H   H126  0.408432  0.849181  0.499595  0.178986
    H   H127  0.372019  0.847466  0.553918  0.159353
    H   H128  0.124537  0.414358  0.565014  0.142914
    O   O1    0.031213  0.445834  0.484187  -0.546239
    O   O2    0.945927  0.468733  0.984185  -0.546021
    O   O3    0.851855  0.605320  0.031054  -0.534446
    O   O4    0.565398  0.114420  0.977346  -0.390811
    O   O5    0.605095  0.148414  0.031336  -0.536494
    O   O6    0.114206  0.434516  0.977186  -0.391036
    O   O7    0.148145  0.394680  0.031054  -0.534409
    O   O8    0.434602  0.114420  0.022654  -0.390895
    O   O9    0.394905  0.148414  0.968664  -0.536425
    O   O10   0.885794  0.434516  0.022814  -0.390999
    O   O11   0.851854  0.394681  0.968946  -0.534440
    O   O12   0.565398  0.885580  0.022654  -0.390900
    O   O13   0.468787  0.054166  0.984187  -0.546362
    O   O14   0.605095  0.851586  0.968664  -0.536454
    O   O15   0.114206  0.565484  0.022814  -0.391071
    O   O16   0.148145  0.605319  0.968946  -0.534491
    O   O17   0.054073  0.531267  0.984185  -0.546086
    O   O18   0.531213  0.054166  0.015813  -0.546300
    O   O19   0.945927  0.531267  0.015815  -0.546113
    O   O20   0.468786  0.945834  0.015813  -0.546389
    O   O21   0.054073  0.468733  0.015815  -0.546079
    O   O22   0.031283  0.489453  0.581117  -0.590767
    O   O23   0.489470  0.968664  0.581116  -0.590733
    O   O24   0.968717  0.510547  0.581117  -0.590762
    O   O25   0.445927  0.968733  0.484185  -0.546108
    O   O26   0.510530  0.031336  0.581116  -0.590760
    O   O27   0.031283  0.510547  0.418883  -0.590784
    O   O28   0.489470  0.031336  0.418883  -0.590747
    O   O29   0.968717  0.489453  0.418883  -0.590773
    O   O30   0.510530  0.968664  0.418883  -0.590714
    O   O31   0.531283  0.989453  0.081117  -0.590797
    O   O32   0.989470  0.468664  0.081116  -0.590722
    O   O33   0.468717  0.010547  0.081117  -0.590787
    O   O34   0.010530  0.531336  0.081116  -0.590829
    O   O35   0.531283  0.010547  0.918883  -0.590805
    O   O36   0.968786  0.554166  0.484187  -0.546160
    O   O37   0.989470  0.531336  0.918884  -0.590766
    O   O38   0.468717  0.989453  0.918883  -0.590812
    O   O39   0.010530  0.468664  0.918884  -0.590682
    O   O40   0.946055  0.989416  0.546744  -0.543872
    O   O41   0.989459  0.054046  0.546859  -0.558642
    O   O42   0.053945  0.010584  0.546744  -0.543931
    O   O43   0.010541  0.945954  0.546859  -0.558651
    O   O44   0.946055  0.010584  0.453256  -0.543977
    O   O45   0.989459  0.945954  0.453141  -0.558587
    O   O46   0.053945  0.989416  0.453255  -0.543880
    O   O47   0.554073  0.031267  0.484184  -0.545861
    O   O48   0.010541  0.054046  0.453141  -0.558718
    O   O49   0.446055  0.489416  0.046744  -0.543818
    O   O50   0.489459  0.554046  0.046859  -0.558277
    O   O51   0.553945  0.510584  0.046744  -0.543737
    O   O52   0.510541  0.445954  0.046859  -0.558636
    O   O53   0.446055  0.510584  0.953255  -0.543906
    O   O54   0.489459  0.445954  0.953141  -0.558536
    O   O55   0.553945  0.489416  0.953255  -0.543885
    O   O56   0.510541  0.554046  0.953141  -0.558465
    O   O57   0.973724  0.113245  0.407807  -0.400700
    O   O58   0.031213  0.554166  0.515813  -0.546264
    O   O59   0.000126  0.147546  0.338177  -0.544545
    O   O60   0.114649  0.006209  0.399472  -0.382984
    O   O61   0.147943  0.963883  0.349095  -0.547620
    O   O62   0.026276  0.886755  0.407807  -0.400593
    O   O63   0.999873  0.852454  0.338177  -0.544298
    O   O64   0.885351  0.993791  0.399472  -0.383061
    O   O65   0.852057  0.036117  0.349095  -0.547585
    O   O66   0.973724  0.886755  0.592193  -0.400531
    O   O67   0.000127  0.852454  0.661823  -0.544339
    O   O68   0.114649  0.993791  0.600528  -0.383138
    O   O69   0.445927  0.031267  0.515815  -0.546240
    O   O70   0.147943  0.036117  0.650904  -0.547611
    O   O71   0.026276  0.113245  0.592193  -0.400678
    O   O72   0.999873  0.147546  0.661823  -0.544390
    O   O73   0.885351  0.006209  0.600528  -0.382967
    O   O74   0.852056  0.963883  0.650904  -0.547431
    O   O75   0.473724  0.613245  0.907806  -0.400585
    O   O76   0.500127  0.647546  0.838177  -0.544328
    O   O77   0.614649  0.506209  0.899472  -0.382846
    O   O78   0.647943  0.463883  0.849095  -0.547632
    O   O79   0.526276  0.386755  0.907806  -0.400667
    O   O80   0.968786  0.445834  0.515813  -0.546213
    O   O81   0.499873  0.352454  0.838177  -0.544326
    O   O82   0.385351  0.493791  0.899472  -0.382870
    O   O83   0.352056  0.536117  0.849095  -0.547457
    O   O84   0.473724  0.386755  0.092193  -0.400645
    O   O85   0.500127  0.352454  0.161823  -0.544353
    O   O86   0.614649  0.493791  0.100528  -0.382916
    O   O87   0.647943  0.536118  0.150904  -0.547366
    O   O88   0.526275  0.613245  0.092193  -0.401041
    O   O89   0.499872  0.647546  0.161822  -0.544219
    O   O90   0.385351  0.506209  0.100528  -0.383116
    O   O91   0.554073  0.968733  0.515815  -0.546119
    O   O92   0.352057  0.463882  0.150904  -0.547355
    O   O93   0.934602  0.385580  0.477346  -0.390699
    O   O94   0.894905  0.351586  0.531336  -0.536515
    O   O95   0.385794  0.065484  0.477185  -0.390817
    O   O96   0.351855  0.105319  0.531054  -0.534572
    O   O97   0.065398  0.614420  0.477346  -0.390794
    O   O98   0.105095  0.648414  0.531336  -0.536568
    O   O99   0.614206  0.934516  0.477185  -0.390786
    O   O100  0.648145  0.894681  0.531054  -0.534533
    O   O101  0.934602  0.614420  0.522654  -0.390755
    O   O102  0.531213  0.945834  0.984187  -0.546257
    O   O103  0.894905  0.648414  0.468664  -0.536452
    O   O104  0.385794  0.934516  0.522814  -0.391051
    O   O105  0.351855  0.894681  0.468946  -0.534510
    O   O106  0.065398  0.385580  0.522654  -0.390886
    O   O107  0.105095  0.351586  0.468664  -0.536468
    O   O108  0.614206  0.065484  0.522814  -0.391233
    O   O109  0.648145  0.105319  0.468946  -0.534514
    O   O110  0.434602  0.885580  0.977345  -0.390415
    O   O111  0.394905  0.851586  0.031335  -0.536672
    O   O112  0.885794  0.565484  0.977186  -0.390952
