# Generated by REPEAT Assigner based on pymatgen
data_DB0-m29_o82_o46_f0_pts.sym.2
_audit_creation_date              2022-05-24
_audit_creation_method            REPEAT_Assigner
_cell_length_a                    14.488435
_cell_length_b                    9.971975
_cell_length_c                    13.101474
_cell_angle_alpha                 83.139225
_cell_angle_beta                  93.069440
_cell_angle_gamma                 114.792331
_cell_volume                      1706.101476
_symmetry_space_group_name_H-M    P1
_symmetry_Int_Tables_number       1
loop_
    _symmetry_equiv_pos_site_id
    _symmetry_equiv_pos_as_xyz
    1  x,y,z
loop_
    _atom_site_type_symbol
    _atom_site_label
    _atom_site_fract_x
    _atom_site_fract_y
    _atom_site_fract_z
    _atom_type_partial_charge
    C   C1   0.204930  0.914425  0.866172  -0.064039
    C   C2   0.103346  0.864253  0.837325  0.210342
    C   C3   0.037631  0.899992  0.889542  -0.193469
    C   C4   0.897848  0.050622  0.863909  -0.105317
    C   C5   0.235352  0.987225  0.954183  -0.152770
    C   C6   0.170790  0.032891  0.000905  0.100033
    C   C7   0.072831  0.998798  0.963820  0.050780
    C   C8   0.009810  0.050722  0.010032  -0.049536
    C   C9   0.804192  0.035909  0.826374  -0.193628
    C   C10  0.727015  0.012932  0.892143  0.074266
    C   C11  0.917006  0.046371  0.968755  0.088220
    C   C12  0.846857  0.057931  0.031822  0.096944
    C   C13  0.747547  0.025883  0.996588  -0.088160
    C   C14  0.203370  0.109955  0.086519  -0.072768
    C   C15  0.137505  0.142017  0.139080  -0.180385
    C   C16  0.041053  0.110328  0.102474  0.236973
    C   C17  0.977416  0.143726  0.158252  -0.246748
    C   C18  0.879809  0.111860  0.125971  -0.089203
    H   H1   0.957797  0.847377  0.871520  0.149625
    H   H2   0.956208  0.070536  0.808884  0.124398
    H   H3   0.789309  0.032718  0.744762  0.164336
    H   H4   0.279148  0.144090  0.116913  0.118224
    H   H5   0.163034  0.195431  0.208750  0.111616
    H   H6   0.003124  0.192400  0.229633  0.160963
    H   H7   0.835128  0.144848  0.171991  0.124612
    O   O1   0.582834  0.018323  0.030205  -0.556781
    C   C19  0.664856  0.005368  0.067292  0.606944
    O   O2   0.513085  0.701144  0.176467  -0.405840
    O   O3   0.669796  0.966646  0.165980  -0.476914
    O   O4   0.454006  0.838958  0.257323  -0.552151
    C   C20  0.477455  0.724524  0.259302  0.485604
    Fe  Fe1  0.479088  0.985201  0.133991  1.425307
    O   O5   0.343431  0.904209  0.063435  -0.581262
    O   O6   0.409008  0.144489  0.991632  -0.534014
    C   C21  0.333959  0.011471  0.001285  0.763753
    O   O7   0.531471  0.186261  0.184593  -0.617742
    O   O8   0.375830  0.060056  0.254170  -0.557263
    C   C22  0.458686  0.183675  0.241140  0.737798
    O   O9   0.423818  0.740532  0.680963  -0.567564
    O   O10  0.580301  0.880261  0.616186  -0.539986
    C   C23  0.500094  0.752746  0.624796  0.616133
    O   O11  0.602598  0.056265  0.779249  -0.493076
    O   O12  0.555652  0.832072  0.874088  -0.465080
    C   C24  0.624516  0.967130  0.848508  0.585705
    O   O13  0.270118  0.918959  0.699720  -0.543788
    O   O14  0.462693  0.074280  0.597410  -0.516952
    C   C25  0.496030  0.218772  0.599180  0.555086
    O   O15  0.365769  0.899834  0.837407  -0.561186
    C   C26  0.280270  0.902020  0.799903  0.613581
    O   O16  0.535353  0.279700  0.683609  -0.485471
    Fe  Fe2  0.462509  0.943942  0.723896  1.420673
    C   C27  0.478264  0.642139  0.361752  0.106210
    C   C28  0.480087  0.715603  0.445246  -0.225333
    H   H8   0.481665  0.825565  0.435136  0.181642
    C   C29  0.483688  0.655746  0.544132  0.104464
    C   C30  0.488114  0.520010  0.563151  -0.254934
    H   H9   0.492810  0.479988  0.642182  0.190846
    C   C31  0.490251  0.443277  0.481778  0.122346
    C   C32  0.482273  0.502881  0.380090  0.022438
    H   H10  0.453660  0.448069  0.222665  0.126148
    C   C33  0.473276  0.418636  0.299715  -0.147747
    C   C34  0.482341  0.286460  0.318323  0.049979
    H   H11  0.503329  0.129263  0.424409  0.154625
    C   C35  0.497236  0.234285  0.415510  -0.195283
    C   C36  0.497742  0.306117  0.499026  0.034814
    C   C37  0.061146  0.763826  0.754242  -0.368386
    H   H12  0.976963  0.710518  0.757370  0.091297
    H   H13  0.083304  0.828110  0.677684  0.149904
    H   H14  0.088688  0.674690  0.764550  0.126147
