# Generated by REPEAT Assigner based on pymatgen
data_DB0-m29_o85_o54_f0_pts.sym.53
_audit_creation_date              2022-05-24
_audit_creation_method            REPEAT_Assigner
_cell_length_a                    13.361618
_cell_length_b                    9.589731
_cell_length_c                    27.711669
_cell_angle_alpha                 95.109725
_cell_angle_beta                  101.661330
_cell_angle_gamma                 107.496483
_cell_volume                      3273.689271
_symmetry_space_group_name_H-M    P1
_symmetry_Int_Tables_number       1
loop_
    _symmetry_equiv_pos_site_id
    _symmetry_equiv_pos_as_xyz
    1  x,y,z
loop_
    _atom_site_type_symbol
    _atom_site_label
    _atom_site_fract_x
    _atom_site_fract_y
    _atom_site_fract_z
    _atom_type_partial_charge
    C   C1   0.237303  0.982458  0.061156  -0.152131
    H   H1   0.270863  0.972034  0.099031  0.151820
    C   C2   0.130004  0.972134  0.047029  -0.121758
    H   H2   0.081353  0.945616  0.073756  0.138532
    C   C3   0.086967  0.997072  0.999995  0.092663
    C   C4   0.151779  0.021087  0.966264  -0.137798
    H   H3   0.120441  0.038855  0.929182  0.124036
    C   C5   0.257592  0.022359  0.979349  -0.021145
    C   C6   0.302377  0.011921  0.028043  0.068273
    C   C7   0.914883  0.952766  0.936508  -0.082383
    H   H4   0.948257  0.915572  0.907466  0.109731
    C   C8   0.809528  0.950962  0.923563  -0.178217
    H   H5   0.764633  0.914556  0.885077  0.180693
    C   C9   0.758335  0.983549  0.959370  -0.007269
    C   C10  0.815753  0.025901  0.009101  0.060248
    C   C11  0.923425  0.033976  0.021453  -0.156456
    H   H6   0.969058  0.073815  0.059588  0.132470
    C   C12  0.973441  0.994689  0.985703  0.090908
    O   O1   0.673307  0.084088  0.040792  -0.455104
    C   C13  0.766483  0.059965  0.049779  0.507805
    O   O2   0.627508  0.810708  0.091407  -0.444803
    O   O3   0.815756  0.063475  0.096125  -0.508014
    O   O4   0.664842  0.989913  0.157981  -0.486919
    C   C14  0.660452  0.855666  0.139796  0.534675
    Fe  Fe1  0.620898  0.092273  0.102512  1.407492
    O   O5   0.460483  0.989459  0.082935  -0.540585
    O   O6   0.484185  0.158813  0.030747  -0.446762
    C   C15  0.419497  0.049703  0.046506  0.546583
    O   O7   0.679646  0.310554  0.128387  -0.556204
    O   O8   0.582683  0.239677  0.185845  -0.503557
    C   C16  0.640410  0.345114  0.165985  0.561082
    O   O9   0.362826  0.720210  0.857930  -0.635298
    O   O10  0.504865  0.763525  0.822018  -0.572839
    C   C17  0.414343  0.673052  0.828067  0.707227
    O   O11  0.605506  0.008364  0.902669  -0.518542
    O   O12  0.574615  0.869658  0.963782  -0.411099
    C   C18  0.642462  0.959692  0.943127  0.610859
    O   O13  0.279736  0.050230  0.896166  -0.455743
    O   O14  0.413439  0.045093  0.828390  -0.496584
    C   C19  0.453299  0.188368  0.843685  0.521446
    O   O15  0.394751  0.961270  0.946006  -0.455947
    C   C20  0.316652  0.019490  0.940098  0.534214
    O   O16  0.509071  0.239137  0.889972  -0.451359
    Fe  Fe2  0.443212  0.935598  0.883860  1.378672
    C   C21  0.191981  0.327748  0.659501  0.421872
    O   O17  0.252869  0.470713  0.665277  -0.526506
    N   N1   0.206245  0.245962  0.696070  -0.059740
    C   C22  0.148758  0.099557  0.687636  0.311225
    C   C23  0.343957  0.229637  0.766836  -0.175370
    C   C24  0.413758  0.286473  0.813274  0.072605
    C   C25  0.382734  0.516395  0.808533  0.103180
    C   C26  0.301458  0.453785  0.765792  -0.203776
    C   C27  0.283881  0.310562  0.743115  0.183382
    C   C28  0.072725  0.112119  0.603341  0.110385
    C   C29  0.116828  0.263656  0.614903  -0.075740
    C   C30  0.090536  0.350435  0.580589  -0.047571
    C   C31  0.092950  0.026898  0.639356  -0.174374
    C   C32  0.437163  0.432476  0.832845  -0.181758
    H   H7   0.253942  0.519690  0.750489  0.134586
    H   H8   0.124309  0.469828  0.588727  0.135528
    C   C33  0.659758  0.603589  0.154143  -0.240603
    C   C34  0.908142  0.064378  0.476206  -0.020716
    C   C35  0.941552  0.838095  0.490540  0.103321
    C   C36  0.898110  0.920042  0.459049  0.034249
    C   C37  0.850719  0.136582  0.446063  -0.115403
    C   C38  0.788852  0.067366  0.399103  -0.080124
    C   C39  0.790975  0.930736  0.380003  -0.054753
    C   C40  0.846996  0.859004  0.409819  0.096653
    C   C41  0.853538  0.727244  0.389678  -0.118152
    C   C42  0.815233  0.678013  0.338853  0.428564
    N   N2   0.755107  0.745105  0.309937  -0.138149
    C   C43  0.737214  0.865455  0.331329  0.373235
    C   C44  0.717253  0.797326  0.224036  -0.231672
    C   C45  0.680340  0.750610  0.173174  0.107715
    C   C46  0.662180  0.501286  0.186077  0.170680
    C   C47  0.681618  0.545678  0.236872  -0.300537
    C   C48  0.716627  0.695398  0.256757  0.266082
    O   O18  0.666527  0.922569  0.305672  -0.445839
    C   C49  0.977414  0.133325  0.522524  0.135389
    C   C50  0.010874  0.047375  0.555704  -0.002164
    C   C51  0.984997  0.897301  0.540961  0.007425
    C   C52  0.017398  0.286232  0.535714  -0.249959
    H   H9   0.747219  0.914815  0.237588  0.189666
    H   H10  0.744260  0.125943  0.376772  0.139748
    H   H11  0.848269  0.244734  0.458864  0.106318
    H   H12  0.000396  0.359495  0.510289  0.151319
    O   O19  0.141740  0.027070  0.726708  -0.374639
    C   C53  0.055877  0.872643  0.625940  0.184476
    H   H13  0.335478  0.119868  0.749721  0.119789
    C   C54  0.943832  0.701413  0.470373  -0.216723
    C   C55  0.904026  0.649590  0.420008  -0.030195
    O   O20  0.843262  0.567413  0.318367  -0.470639
    C   C56  0.005600  0.810720  0.576655  -0.207711
    H   H14  0.983673  0.636863  0.491992  0.146912
    H   H15  0.911189  0.545824  0.405226  0.114620
    H   H16  0.673280  0.461938  0.260734  0.203903
    H   H17  0.978548  0.691952  0.567050  0.117492
    H   H18  0.495651  0.481532  0.867930  0.140168
    H   H19  0.636678  0.566241  0.114309  0.164653
    C   C57  0.078126  0.768538  0.660862  -0.138794
    C   C58  0.197076  0.797154  0.677222  0.046961
    C   C59  0.244093  0.799616  0.724596  -0.183203
    H   H20  0.041206  0.652678  0.641321  0.039023
    H   H21  0.040641  0.775041  0.692810  0.091535
    H   H22  0.245159  0.810830  0.649739  0.042171
    H   H23  0.197099  0.782249  0.752475  0.106421
    H   H24  0.330233  0.817931  0.735419  0.100646
