# Generated by REPEAT Assigner based on pymatgen
data_DB0-m29_o90_o101_f0_pts.sym.38
_audit_creation_date              2022-05-24
_audit_creation_method            REPEAT_Assigner
_cell_length_a                    16.512923
_cell_length_b                    17.337227
_cell_length_c                    11.155914
_cell_angle_alpha                 109.201583
_cell_angle_beta                  95.368457
_cell_angle_gamma                 107.105030
_cell_volume                      2817.919306
_symmetry_space_group_name_H-M    P1
_symmetry_Int_Tables_number       1
loop_
    _symmetry_equiv_pos_site_id
    _symmetry_equiv_pos_as_xyz
    1  x,y,z
loop_
    _atom_site_type_symbol
    _atom_site_label
    _atom_site_fract_x
    _atom_site_fract_y
    _atom_site_fract_z
    _atom_type_partial_charge
    C   C1   0.796322  0.001008  0.144398  -0.178803
    C   C2   0.716690  0.001354  0.093210  -0.004416
    C   C3   0.704936  0.009005  0.972398  0.081812
    C   C4   0.773496  0.020744  0.910322  -0.286109
    C   C5   0.851616  0.018535  0.961204  0.202819
    C   C6   0.862538  0.007264  0.077274  0.175488
    C   C7   0.917723  0.024658  0.893758  -0.256478
    C   C8   0.994252  0.017443  0.941185  0.153972
    C   C9   0.004685  0.004804  0.056535  0.162275
    C   C10  0.939381  0.000928  0.125464  -0.269648
    C   C11  0.060082  0.022263  0.873064  -0.259283
    C   C12  0.136220  0.014019  0.920114  0.146576
    C   C13  0.145669  0.999617  0.033899  0.196191
    C   C14  0.080244  0.995445  0.102504  -0.241413
    C   C15  0.202831  0.020295  0.853556  -0.143640
    C   C16  0.280052  0.013610  0.901147  -0.037724
    C   C17  0.289333  0.999950  0.017393  0.096853
    C   C18  0.221366  0.991276  0.080931  -0.286380
    H   H1   0.807005  0.993766  0.236498  0.137693
    H   H2   0.763933  0.026098  0.816605  0.203183
    H   H3   0.908950  0.033499  0.802526  0.161105
    H   H4   0.052071  0.032797  0.783083  0.169594
    H   H5   0.193852  0.030353  0.763381  0.134531
    H   H6   0.229249  0.982414  0.172235  0.212845
    H   H7   0.088281  0.985038  0.192584  0.146665
    H   H8   0.947869  0.991267  0.216087  0.176519
    O   O1   0.571377  0.993294  0.126272  -0.508487
    C   C19  0.648906  0.995978  0.171043  0.574028
    O   O2   0.526411  0.829839  0.160439  -0.453852
    O   O3   0.666550  0.995273  0.287786  -0.472332
    O   O4   0.475604  0.898373  0.330637  -0.518939
    C   C20  0.496662  0.831361  0.265834  0.497205
    Fe  Fe1  0.492480  0.985510  0.248228  1.444969
    O   O5   0.372111  0.951260  0.146940  -0.658500
    O   O6   0.443357  0.066133  0.097275  -0.404294
    C   C21  0.371618  0.002953  0.083623  0.700223
    O   O7   0.547400  0.103133  0.391100  -0.615034
    O   O8   0.405056  0.085102  0.388876  -0.570259
    C   C22  0.487201  0.132359  0.436862  0.756400
    O   O9   0.452712  0.881122  0.593643  -0.625015
    O   O10  0.594266  0.925639  0.579646  -0.578789
    C   C23  0.517357  0.864936  0.542866  0.657575
    O   O11  0.613581  0.050350  0.842575  -0.541903
    O   O12  0.555615  0.924319  0.873227  -0.466580
    C   C24  0.620529  0.997050  0.900437  0.598542
    O   O13  0.343807  0.047697  0.730559  -0.516320
    O   O14  0.504270  0.083199  0.637803  -0.549831
    C   C25  0.522907  0.164176  0.717473  0.586444
    O   O15  0.410909  0.988747  0.844287  -0.574485
    C   C26  0.348360  0.018449  0.824594  0.559359
    O   O16  0.533534  0.181830  0.842864  -0.515419
    Fe  Fe2  0.494416  0.001844  0.729862  1.494701
    C   C27  0.511104  0.219494  0.536102  -0.014207
    C   C28  0.508841  0.286082  0.494811  0.050121
    C   C29  0.526089  0.369775  0.584323  -0.349018
    C   C30  0.543822  0.384841  0.715084  0.035176
    H   H9   0.557824  0.449292  0.786844  0.090911
    C   C31  0.544515  0.318181  0.756421  -0.132276
    H   H10  0.557768  0.332593  0.859607  0.140937
    C   C32  0.527486  0.234615  0.668121  0.018297
    N   N1   0.507224  0.510178  0.620036  -0.273905
    N   N2   0.502873  0.573034  0.579867  -0.220643
    C   C33  0.517050  0.569509  0.461523  0.765654
    N   N3   0.538855  0.503575  0.386694  -0.292376
    N   N4   0.543943  0.441400  0.427336  -0.171003
    C   C34  0.526010  0.442425  0.542925  0.720556
    C   C35  0.493591  0.617111  0.280152  0.072433
    H   H11  0.486348  0.552809  0.213878  0.068552
    C   C36  0.483085  0.677749  0.230744  -0.173203
    C   C37  0.492753  0.761197  0.315160  0.006408
    C   C38  0.504431  0.778691  0.448020  0.095553
    C   C39  0.509978  0.715694  0.495147  -0.059581
    H   H12  0.520830  0.731598  0.598803  0.080274
    C   C40  0.507331  0.635676  0.412050  -0.342870
    C   C41  0.456450  0.648920  0.088898  0.715413
    O   O17  0.480254  0.593431  0.017835  -0.539183
    O   O18  0.399297  0.677264  0.037340  -0.425425
    C   C42  0.370497  0.647599  0.905515  0.483245
    C   C43  0.307833  0.690779  0.876134  -0.285259
    H   H13  0.336718  0.576078  0.866583  -0.060452
    H   H14  0.426216  0.663879  0.858851  -0.030407
    H   H15  0.251952  0.674727  0.922529  0.057524
    H   H16  0.284442  0.666905  0.769588  0.048752
    H   H17  0.341194  0.762327  0.914751  0.091157
    C   C44  0.480854  0.264223  0.355355  0.459601
    O   O19  0.523454  0.236066  0.279743  -0.452493
    O   O20  0.410451  0.279689  0.312024  -0.428116
    C   C45  0.385989  0.265541  0.183508  0.597127
    C   C46  0.305864  0.289298  0.164208  -0.398089
    H   H18  0.371052  0.195968  0.123370  -0.077530
    H   H19  0.438993  0.306583  0.153425  -0.022645
    H   H20  0.252589  0.248445  0.194058  0.081200
    H   H21  0.285949  0.277936  0.060353  0.081917
    H   H22  0.320363  0.358913  0.224062  0.094240
