# Generated by REPEAT Assigner based on pymatgen
data_DB0-m9_o5_o11_f0_sra.sym.25
_audit_creation_date              2022-05-24
_audit_creation_method            REPEAT_Assigner
_cell_length_a                    14.899524
_cell_length_b                    6.307376
_cell_length_c                    11.900552
_cell_angle_alpha                 90.000000
_cell_angle_beta                  100.749051
_cell_angle_gamma                 90.000000
_cell_volume                      1098.753303
_symmetry_space_group_name_H-M    P1
_symmetry_Int_Tables_number       1
loop_
    _symmetry_equiv_pos_site_id
    _symmetry_equiv_pos_as_xyz
    1  x,y,z
loop_
    _atom_site_type_symbol
    _atom_site_label
    _atom_site_fract_x
    _atom_site_fract_y
    _atom_site_fract_z
    _atom_type_partial_charge
    O  O1   0.378815  0.569473  0.439358  -0.574646
    O  O2   0.877773  0.419455  0.949010  -0.545746
    O  O3   0.626465  0.940851  0.461997  -0.603605
    O  O4   0.122702  0.048236  0.949948  -0.625085
    O  O5   0.568050  0.153660  0.634369  -0.438923
    O  O6   0.074151  0.835844  0.129701  -0.461575
    C  C1   0.624212  0.767527  0.402693  0.645053
    C  C2   0.117877  0.223883  0.891913  0.702496
    O  O7   0.443432  0.851376  0.360497  -0.486308
    O  O8   0.937352  0.138872  0.863472  -0.495815
    O  O9   0.385361  0.071507  0.533988  -0.505001
    O  O10  0.888813  0.919662  0.043163  -0.668446
    C  C3   0.370709  0.740046  0.374138  0.879856
    C  C4   0.866341  0.249328  0.883281  0.918576
    O  O11  0.550828  0.649850  0.383609  -0.419515
    O  O12  0.044238  0.340566  0.878049  -0.450200
    O  O13  0.510284  0.757337  0.590376  -0.626584
    O  O14  0.015943  0.232401  0.090184  -0.604200
    V  V1   0.504768  0.030475  0.488603  1.435628
    V  V2   0.004315  0.959300  0.987690  1.473463
    O  O15  0.461687  0.354859  0.631196  -0.459169
    O  O16  0.969515  0.634243  0.136060  -0.473300
    C  C5   0.386699  0.238332  0.600704  0.611854
    C  C6   0.896781  0.761116  0.116444  0.742137
    O  O17  0.633999  0.443215  0.574101  -0.561787
    O  O18  0.136377  0.547742  0.063474  -0.595088
    C  C7   0.640651  0.268225  0.632218  0.773701
    C  C8   0.145837  0.722738  0.121753  0.739390
    V  V3   0.506589  0.530643  0.516124  1.394225
    V  V4   0.007797  0.459370  0.015707  1.460516
    O  O19  0.497736  0.255159  0.413862  -0.609316
    O  O20  0.993043  0.734590  0.912906  -0.634567
    C  C9   0.718323  0.249310  0.722801  -0.103816
    C  C10  0.225435  0.740328  0.209637  -0.086486
    C  C11  0.785209  0.244879  0.797137  -0.272377
    C  C12  0.292059  0.745539  0.284323  -0.234143
    C  C13  0.262810  0.077113  0.678488  -0.015887
    C  C14  0.796609  0.938603  0.228646  0.069289
    C  C15  0.319444  0.240151  0.675710  -0.175382
    C  C16  0.836277  0.761685  0.200194  -0.302961
    H  H1   0.323256  0.363423  0.739884  0.120371
    H  H2   0.825004  0.614324  0.242293  0.157663
    C  C17  0.209050  0.067350  0.768976  0.016421
    C  C18  0.734476  0.928895  0.309838  -0.040150
    C  C19  0.178464  0.243479  0.809666  -0.304106
    C  C20  0.689464  0.753428  0.325939  -0.214650
    H  H3   0.187243  0.914838  0.796192  0.124224
    H  H4   0.720153  0.073145  0.352773  0.108703
    H  H5   0.191316  0.396540  0.774372  0.174192
    H  H6   0.696338  0.610325  0.277840  0.133317
    C  C21  0.254555  0.900377  0.596789  0.658641
    O  O21  0.230746  0.726819  0.625478  -0.511545
    O  O22  0.261048  0.935203  0.483165  -0.528904
    H  H7   0.248662  0.798858  0.438137  0.334029
    C  C22  0.816191  0.150069  0.187701  0.513633
    O  O23  0.767644  0.298398  0.203675  -0.444496
    O  O24  0.892187  0.187752  0.138766  -0.269932
    H  H8   0.894420  0.343659  0.119262  0.156332
