# Generated by REPEAT Assigner based on pymatgen
data_DB0-m3_o10_o29_f0_pcu.sym.4_sqe
_audit_creation_date              2022-05-24
_audit_creation_method            REPEAT_Assigner
_cell_length_a                    7.727838
_cell_length_b                    8.913115
_cell_length_c                    27.557506
_cell_angle_alpha                 89.986662
_cell_angle_beta                  83.919649
_cell_angle_gamma                 91.439636
_cell_volume                      1886.854487
_symmetry_space_group_name_H-M    P1
_symmetry_Int_Tables_number       1
loop_
    _symmetry_equiv_pos_site_id
    _symmetry_equiv_pos_as_xyz
    1  x,y,z
loop_
    _atom_site_type_symbol
    _atom_site_label
    _atom_site_fract_x
    _atom_site_fract_y
    _atom_site_fract_z
    _atom_type_partial_charge
    O   O1   0.383069  0.737362  0.502921  -0.651043
    O   O2   0.616932  0.262638  0.497079  -0.651079
    O   O3   0.680897  0.707780  0.495286  -0.623106
    O   O4   0.319103  0.292220  0.504714  -0.623248
    C   C1   0.542969  0.792030  0.498810  0.761143
    C   C2   0.457031  0.207970  0.501190  0.761222
    O   O5   0.348254  0.516960  0.576375  -0.728922
    O   O6   0.651746  0.483041  0.423625  -0.728846
    O   O7   0.645569  0.483147  0.568435  -0.528178
    O   O8   0.354431  0.516853  0.431565  -0.528133
    C   C3   0.496083  0.500114  0.594938  0.667613
    C   C4   0.503917  0.499886  0.405062  0.667365
    Zn  Zn1  0.303644  0.518951  0.505242  1.021101
    Zn  Zn2  0.696356  0.481049  0.494758  1.021149
    C   C5   0.516090  0.631014  0.823209  0.324563
    C   C6   0.483910  0.368986  0.176791  0.324685
    O   O9   0.539016  0.760035  0.797888  -0.415121
    O   O10  0.460984  0.239965  0.202111  -0.415247
    N   N1   0.492769  0.501275  0.799619  -0.083430
    N   N2   0.507231  0.498725  0.200381  -0.083615
    C   C7   0.469906  0.371193  0.824446  0.287244
    C   C8   0.530094  0.628807  0.175554  0.287367
    C   C9   0.596720  0.403012  0.720090  -0.053732
    C   C10  0.403281  0.596988  0.279910  -0.053732
    C   C11  0.601421  0.405911  0.669945  -0.086025
    C   C12  0.398579  0.594089  0.330055  -0.086106
    C   C13  0.386817  0.595089  0.675910  -0.202399
    C   C14  0.613183  0.404911  0.324089  -0.202648
    C   C15  0.390305  0.598874  0.725841  -0.159382
    C   C16  0.609695  0.401126  0.274159  -0.159260
    C   C17  0.493276  0.501169  0.748001  0.113168
    C   C18  0.506725  0.498831  0.251999  0.113210
    C   C19  0.495467  0.500409  0.899400  -0.120563
    C   C20  0.504533  0.499591  0.100600  -0.120714
    C   C21  0.521683  0.631387  0.873086  0.072973
    C   C22  0.478317  0.368613  0.126914  0.073158
    C   C23  0.554120  0.762883  0.896471  -0.083263
    C   C24  0.445881  0.237118  0.103529  -0.083405
    C   C25  0.466724  0.369785  0.874669  0.124380
    C   C26  0.533276  0.630215  0.125331  0.124368
    C   C27  0.494443  0.500247  0.647892  0.158897
    C   C28  0.505557  0.499753  0.352108  0.159187
    H   H1   0.303564  0.669605  0.658613  0.140952
    H   H2   0.696437  0.330395  0.341387  0.140972
    H   H3   0.308588  0.675381  0.747722  0.164697
    H   H4   0.691412  0.324619  0.252278  0.164712
    H   H5   0.578291  0.865537  0.875809  0.124301
    H   H6   0.421710  0.134463  0.124191  0.124375
    C   C29  0.532748  0.633304  0.024366  -0.109730
    C   C30  0.467252  0.366696  0.975634  -0.109716
    C   C31  0.470118  0.366355  0.026283  0.192077
    C   C32  0.529882  0.633645  0.973717  0.192110
    C   C33  0.502355  0.499770  0.050233  0.075811
    C   C34  0.497645  0.500231  0.949767  0.075712
    C   C35  0.566964  0.763650  0.050001  0.006529
    C   C36  0.433036  0.236350  0.949999  0.006503
    C   C37  0.566684  0.761640  0.099852  -0.065246
    C   C38  0.433316  0.238361  0.900148  -0.065199
    O   O11  0.553902  0.757089  0.199779  -0.364818
    O   O12  0.446098  0.242911  0.800221  -0.364807
    C   C39  0.558237  0.764842  0.946162  -0.338433
    C   C40  0.441763  0.235158  0.053838  -0.338385
    H   H7   0.321940  0.673104  0.262573  0.103656
    H   H8   0.678060  0.326896  0.737427  0.103672
    H   H9   0.596102  0.870864  0.033142  0.013466
    H   H10  0.403899  0.129136  0.966858  0.013463
    H   H11  0.583439  0.872841  0.961303  0.229869
    H   H12  0.416561  0.127159  0.038697  0.229834
    C   C41  0.568413  0.955465  0.498189  -0.192317
    C   C42  0.431587  0.044535  0.501811  -0.192325
    H   H13  0.699244  0.003827  0.494790  0.119266
    H   H14  0.300756  0.996173  0.505210  0.119267
    N   N3   0.954645  0.458632  0.487970  0.006957
    N   N4   0.045355  0.541368  0.512030  0.007151
    Cl  Cl1  0.070527  0.346829  0.445769  0.173069
    Cl  Cl2  0.929473  0.653171  0.554230  0.172933
    Cl  Cl3  0.262525  0.715017  0.365601  -0.071043
    Cl  Cl4  0.737475  0.284983  0.634399  -0.071082
    Cl  Cl5  0.615973  0.927296  0.130193  -0.004907
    Cl  Cl6  0.384027  0.072704  0.869807  -0.004942
