# Generated by REPEAT Assigner based on pymatgen
data_DB0-m9_o20_o23_f0_sra.sym.121
_audit_creation_date              2022-05-24
_audit_creation_method            REPEAT_Assigner
_cell_length_a                    6.320835
_cell_length_b                    18.766500
_cell_length_c                    21.215984
_cell_angle_alpha                 90.706579
_cell_angle_beta                  89.935881
_cell_angle_gamma                 90.005151
_cell_volume                      2516.445909
_symmetry_space_group_name_H-M    P1
_symmetry_Int_Tables_number       1
loop_
    _symmetry_equiv_pos_site_id
    _symmetry_equiv_pos_as_xyz
    1  x,y,z
loop_
    _atom_site_type_symbol
    _atom_site_label
    _atom_site_fract_x
    _atom_site_fract_y
    _atom_site_fract_z
    _atom_type_partial_charge
    O  O1   0.523442  0.534569  0.406949  -0.590269
    O  O2   0.148290  0.549654  0.578142  -0.603657
    O  O3   0.940144  0.433159  0.531598  -0.414009
    C  C1   0.324122  0.586294  0.579753  0.909135
    O  O4   0.244216  0.592279  0.454476  -0.435360
    O  O5   0.028649  0.475171  0.408131  -0.582144
    C  C2   0.353958  0.574879  0.403673  0.865060
    O  O6   0.443948  0.589836  0.529007  -0.448470
    O  O7   0.338324  0.454527  0.494438  -0.542440
    V  V1   0.064171  0.518181  0.492572  1.170744
    O  O8   0.740067  0.422700  0.457825  -0.481715
    C  C3   0.866273  0.430228  0.407542  0.866113
    O  O9   0.654406  0.478379  0.579998  -0.633355
    C  C4   0.833771  0.445482  0.582684  0.913687
    V  V2   0.564211  0.500872  0.493480  1.327201
    O  O10  0.838653  0.564386  0.489319  -0.514462
    C  C5   0.068090  0.309558  0.758944  -0.331832
    C  C6   0.679196  0.294087  0.752265  0.088997
    C  C7   0.689011  0.233129  0.797335  -0.146470
    H  H1   0.043615  0.360918  0.784286  0.122918
    H  H2   0.544315  0.286356  0.719511  -0.005883
    H  H3   0.659692  0.344872  0.778905  0.004156
    H  H4   0.669098  0.253419  0.846301  0.057789
    H  H5   0.562119  0.194208  0.786057  0.042414
    C  C8   0.928904  0.096611  0.873890  -0.354187
    C  C9   0.883637  0.295833  0.715450  0.253096
    C  C10  0.078108  0.249802  0.805362  0.299935
    C  C11  0.902257  0.197609  0.790432  0.227355
    C  C12  0.928775  0.166871  0.724896  -0.211104
    C  C13  0.914605  0.226920  0.678888  0.196888
    C  C14  0.914388  0.141050  0.834839  -0.079262
    C  C15  0.871321  0.352361  0.671005  -0.089251
    C  C16  0.856758  0.396700  0.631852  -0.358415
    H  H6   0.062653  0.230034  0.650950  -0.012999
    H  H7   0.085650  0.140725  0.720925  0.052432
    H  H8   0.216405  0.311207  0.731017  0.068897
    H  H9   0.232818  0.222213  0.801491  -0.029193
    H  H10  0.801042  0.127700  0.715474  0.094848
    C  C17  0.914729  0.119555  0.145673  -0.336336
    C  C18  0.907633  0.166955  0.185648  0.157609
    C  C19  0.897448  0.222625  0.232853  -0.036003
    C  C20  0.888399  0.269852  0.272949  -0.041492
    C  C21  0.878288  0.325544  0.320128  0.162923
    C  C22  0.871260  0.373008  0.360039  -0.344433
    C  C23  0.352337  0.637240  0.631845  -0.379471
    C  C24  0.369848  0.678485  0.676555  0.183662
    C  C25  0.386690  0.726231  0.729935  -0.044161
    C  C26  0.400075  0.766597  0.775402  -0.047146
    C  C27  0.416853  0.814412  0.828750  0.184808
    C  C28  0.434242  0.855716  0.873440  -0.378812
    C  C29  0.356595  0.625181  0.354941  -0.331303
    C  C30  0.366760  0.669686  0.315617  0.162086
    C  C31  0.385102  0.723136  0.271361  -0.035847
    C  C32  0.402554  0.769401  0.233882  -0.032699
    C  C33  0.420621  0.822896  0.189656  0.160813
    C  C34  0.430386  0.867440  0.150353  -0.331228
    O  O11  0.342068  0.903114  0.976283  -0.446994
    O  O12  0.541928  0.900457  0.050770  -0.433941
    O  O13  0.757390  0.017481  0.097383  -0.577024
    C  C35  0.432524  0.917776  0.101640  0.861628
    O  O14  0.637814  0.943461  0.927213  -0.605055
    O  O15  0.845841  0.059847  0.974035  -0.410903
    C  C36  0.462163  0.906690  0.925567  0.904719
    O  O16  0.262925  0.958024  0.098454  -0.585088
    O  O17  0.447686  0.038332  0.011110  -0.543721
    V  V3   0.721890  0.974694  0.012856  1.176962
    O  O18  0.131336  0.014762  0.925446  -0.625933
    C  C37  0.951987  0.047669  0.922898  0.903100
    O  O19  0.046070  0.070096  0.047800  -0.473300
    C  C38  0.919729  0.062448  0.098051  0.847961
    V  V4   0.221851  0.992051  0.011887  1.317210
    O  O20  0.947467  0.928505  0.015994  -0.515180
    C  C39  0.048993  0.278766  0.871817  -0.481351
    C  C40  0.254595  0.310321  0.896147  0.594262
    C  C41  0.318165  0.373728  0.856953  -0.341694
    C  C42  0.225333  0.334181  0.964025  -0.425952
    H  H11  0.001401  0.234532  0.902981  0.126754
    H  H12  0.923472  0.320056  0.872280  0.100472
    H  H13  0.380813  0.269337  0.893635  -0.104686
    H  H14  0.188033  0.413360  0.856961  0.068722
    H  H15  0.352905  0.355908  0.808058  0.034050
    H  H16  0.462104  0.398523  0.877486  0.067252
    H  H17  0.099677  0.375349  0.966709  0.093172
    H  H18  0.375841  0.356810  0.982148  0.081634
    H  H19  0.179055  0.287875  0.992944  0.086025
    C  C43  0.728120  0.215318  0.635111  -0.496574
    C  C44  0.785663  0.162628  0.583118  0.572085
    C  C45  0.833992  0.090373  0.610651  -0.435385
    C  C46  0.601859  0.155643  0.537780  -0.417869
    H  H20  0.685346  0.266830  0.613454  0.143356
    H  H21  0.591059  0.195136  0.662255  0.111705
    H  H22  0.926442  0.182265  0.557374  -0.062477
    H  H23  0.696980  0.072019  0.638824  0.093654
    H  H24  0.976545  0.094145  0.640848  0.076796
    H  H25  0.864317  0.051631  0.571797  0.089363
    H  H26  0.460816  0.135896  0.563336  0.093960
    H  H27  0.643779  0.117500  0.499429  0.089231
    H  H28  0.566334  0.208428  0.517373  0.078895
