# Generated by REPEAT Assigner based on pymatgen
data_DB0-m3_o4_o470_f0_fsc.sym.27
_audit_creation_date              2022-05-24
_audit_creation_method            REPEAT_Assigner
_cell_length_a                    11.124125
_cell_length_b                    9.267829
_cell_length_c                    8.578025
_cell_angle_alpha                 90.000000
_cell_angle_beta                  102.498422
_cell_angle_gamma                 90.000000
_cell_volume                      863.406605
_symmetry_space_group_name_H-M    P1
_symmetry_Int_Tables_number       1
loop_
    _symmetry_equiv_pos_site_id
    _symmetry_equiv_pos_as_xyz
    1  x,y,z
loop_
    _atom_site_type_symbol
    _atom_site_label
    _atom_site_fract_x
    _atom_site_fract_y
    _atom_site_fract_z
    _atom_type_partial_charge
    C   C1   0.247519  0.987591  0.081616  0.010111
    C   C2   0.310456  0.978226  0.961216  -0.206131
    C   C3   0.252217  0.991454  0.804247  0.030788
    C   C4   0.126104  0.001810  0.765761  -0.416464
    C   C5   0.059349  0.998247  0.885929  0.422020
    C   C6   0.120178  0.990589  0.044621  -0.007107
    C   C7   0.932112  0.002685  0.847285  -0.543314
    C   C8   0.864935  0.994776  0.966291  0.240668
    C   C9   0.926322  0.984450  0.124793  0.205980
    C   C10  0.053670  0.982859  0.163314  -0.370956
    C   C11  0.737442  0.004240  0.932005  -0.256037
    C   C12  0.676904  0.020082  0.054430  -0.141343
    C   C13  0.734667  0.998893  0.210642  -0.081404
    C   C14  0.860798  0.977028  0.245596  -0.234229
    H   H1   0.407338  0.960660  0.991361  0.125313
    H   H2   0.082527  0.005517  0.640808  0.155967
    H   H3   0.581179  0.045322  0.026088  0.127409
    H   H4   0.909693  0.959564  0.366825  0.141769
    H   H5   0.101008  0.975345  0.287092  0.154344
    O   O1   0.616373  0.120888  0.706147  -0.698967
    O   O2   0.622737  0.872334  0.709561  -0.667774
    C   C15  0.660196  0.998889  0.770998  0.920579
    O   O3   0.369830  0.870570  0.642698  -0.732882
    O   O4   0.362679  0.119534  0.637316  -0.739259
    C   C16  0.327193  0.993882  0.683036  0.862629
    O   O5   0.366119  0.870129  0.308415  -0.643634
    O   O6   0.359148  0.119257  0.305610  -0.633170
    C   C17  0.321797  0.992526  0.244212  0.721001
    O   O7   0.612719  0.120104  0.369580  -0.777198
    O   O8   0.620577  0.872131  0.376100  -0.726291
    C   C18  0.657495  0.997169  0.331004  0.953891
    Zn  Zn1  0.494948  0.836268  0.508782  1.014737
    Zn  Zn2  0.488875  0.154978  0.505027  1.034938
    C   C19  0.395194  0.427345  0.430402  0.164171
    C   C20  0.398374  0.569295  0.432026  0.095488
    N   N1   0.488601  0.344823  0.504870  0.033044
    N   N2   0.495172  0.646556  0.508652  0.041105
    C   C21  0.588833  0.417983  0.584821  -0.121127
    C   C22  0.592582  0.568771  0.585895  -0.091127
    H   H6   0.668140  0.361347  0.650322  0.166093
    H   H7   0.674712  0.622549  0.649651  0.172313
    C   C23  0.271633  0.586779  0.334932  -0.084874
    C   C24  0.268017  0.417175  0.333511  -0.200816
    H   H8   0.208215  0.635457  0.403746  0.084642
    H   H9   0.202914  0.371866  0.401982  0.109972
    H   H10  0.269611  0.632447  0.214934  0.092876
    H   H11  0.264546  0.370897  0.213408  0.099857
    C   C25  0.871737  0.029120  0.681261  0.780458
    O   O9   0.820078  0.930641  0.599225  -0.472339
    C   C26  0.885834  0.173132  0.609177  -0.492210
    H   H12  0.933967  0.247481  0.703605  0.102958
    H   H13  0.794382  0.217411  0.555154  0.146834
    H   H14  0.939448  0.164866  0.514885  0.126700
