# Generated by REPEAT Assigner based on pymatgen
data_DB0-m2_o13_o25_f0_pcu.sym.47_sqe
_audit_creation_date              2022-05-24
_audit_creation_method            REPEAT_Assigner
_cell_length_a                    15.907292
_cell_length_b                    12.957650
_cell_length_c                    11.626897
_cell_angle_alpha                 99.615997
_cell_angle_beta                  94.205203
_cell_angle_gamma                 89.996233
_cell_volume                      2356.334136
_symmetry_space_group_name_H-M    P1
_symmetry_Int_Tables_number       1
loop_
    _symmetry_equiv_pos_site_id
    _symmetry_equiv_pos_as_xyz
    1  x,y,z
loop_
    _atom_site_type_symbol
    _atom_site_label
    _atom_site_fract_x
    _atom_site_fract_y
    _atom_site_fract_z
    _atom_type_partial_charge
    O   O1   0.500661  0.356319  0.583428  -0.535309
    O   O2   0.503278  0.647362  0.417995  -0.544950
    O   O3   0.496106  0.343886  0.383292  -0.609465
    O   O4   0.507494  0.659772  0.617653  -0.625916
    C   C1   0.495584  0.301201  0.477918  0.751716
    C   C2   0.503890  0.702580  0.523030  0.713056
    O   O5   0.378997  0.507864  0.591929  -0.498288
    O   O6   0.619343  0.489234  0.407765  -0.495211
    O   O7   0.374579  0.495404  0.392352  -0.621931
    O   O8   0.623786  0.502173  0.607874  -0.618506
    C   C3   0.337572  0.505364  0.490376  0.705952
    C   C4   0.660829  0.497776  0.510213  0.767048
    Cu  Cu1  0.501693  0.509066  0.616895  0.765138
    Cu  Cu2  0.496801  0.494746  0.383916  0.760826
    C   C5   0.980527  0.452891  0.588591  -0.143741
    C   C6   0.017817  0.545893  0.411193  -0.153911
    C   C7   0.027965  0.402265  0.484264  -0.121694
    C   C8   0.970401  0.596501  0.515498  -0.112500
    H   H1   0.052628  0.321448  0.469286  0.082187
    H   H2   0.945750  0.677323  0.530459  0.081038
    H   H3   0.964299  0.415583  0.663382  0.094423
    H   H4   0.034049  0.583151  0.336366  0.095342
    C   C9   0.247245  0.504361  0.486747  -0.030843
    C   C10  0.751131  0.496511  0.513537  -0.094605
    C   C11  0.033553  0.551298  0.596851  -0.426861
    C   C12  0.964776  0.447493  0.402917  -0.411673
    C   C13  0.080054  0.501517  0.494213  0.818042
    C   C14  0.918299  0.497281  0.505576  0.780563
    C   C15  0.171616  0.503228  0.488415  -0.501743
    C   C16  0.826749  0.496338  0.511598  -0.454250
    C   C17  0.505506  0.816942  0.534633  -0.099377
    C   C18  0.495237  0.186820  0.466298  -0.155624
    C   C19  0.477151  0.017400  0.348399  -0.238008
    C   C20  0.524135  0.986333  0.652450  -0.237247
    C   C21  0.478857  0.124894  0.358085  -0.061685
    C   C22  0.522093  0.878847  0.642826  -0.079436
    C   C23  0.511055  0.140080  0.564227  -0.063691
    C   C24  0.490017  0.863676  0.436670  -0.103277
    C   C25  0.509229  0.032546  0.554328  0.144094
    C   C26  0.492114  0.971196  0.446509  0.162275
    H   H5   0.475519  0.816685  0.351664  0.074243
    H   H6   0.525207  0.187009  0.649353  0.068929
    H   H7   0.534335  0.844225  0.720652  0.111377
    H   H8   0.466262  0.159554  0.280346  0.103574
    H   H9   0.463774  0.969680  0.263438  0.136857
    H   H10  0.537488  0.034046  0.737422  0.137524
    N   N1   0.505120  0.519769  0.791082  0.020637
    N   N2   0.493458  0.484047  0.209738  0.027500
    C   C27  0.416085  0.416733  0.030809  -0.451923
    C   C28  0.581529  0.588704  0.970277  -0.462899
    C   C29  0.430207  0.424296  0.149982  0.098743
    C   C30  0.567973  0.580176  0.850893  0.116562
    C   C31  0.543396  0.540023  0.152185  -0.333800
    C   C32  0.454188  0.465409  0.849008  -0.333063
    C   C33  0.530729  0.533855  0.031353  0.324159
    C   C34  0.466691  0.471918  0.969862  0.323434
    H   H11  0.608938  0.623146  0.805221  0.130399
    H   H12  0.389702  0.380494  0.195380  0.135758
    H   H13  0.364677  0.366626  0.988751  0.201375
    H   H14  0.632973  0.638755  0.012317  0.202718
    C   C35  0.926982  0.387204  0.290342  0.801754
    O   O9   0.972800  0.351133  0.214342  -0.552393
    O   O10  0.842831  0.372621  0.272499  -0.276769
    C   C36  0.807281  0.317569  0.169371  -0.037011
    H   H15  0.737854  0.314918  0.172964  0.074403
    H   H16  0.831396  0.236429  0.156172  0.051443
    H   H17  0.822580  0.356732  0.095493  0.070583
    C   C37  0.071166  0.611786  0.709420  0.811727
    O   O11  0.025240  0.647418  0.785462  -0.553197
    O   O12  0.155227  0.627326  0.727091  -0.289117
    C   C38  0.190507  0.683124  0.829971  -0.020798
    H   H18  0.259894  0.686637  0.826268  0.066856
    H   H19  0.175688  0.644069  0.904134  0.067379
    H   H20  0.165713  0.763940  0.842792  0.048588
    C   C39  0.383459  0.402076  0.786513  0.831055
    O   O13  0.313870  0.441009  0.778816  -0.472398
    O   O14  0.392384  0.298228  0.752777  -0.317752
    C   C40  0.324604  0.236159  0.704833  -0.028766
    H   H21  0.345097  0.153797  0.683953  0.082560
    H   H22  0.298672  0.262082  0.623292  0.066787
    H   H23  0.275345  0.240862  0.768241  0.047141
    C   C41  0.614250  0.603122  0.214785  0.842202
    O   O15  0.683051  0.562953  0.226170  -0.478237
    O   O16  0.606668  0.707657  0.244058  -0.326562
    C   C42  0.674679  0.769186  0.292284  -0.002122
    H   H24  0.655220  0.852178  0.309402  0.080487
    H   H25  0.725270  0.761286  0.230698  0.039098
    H   H26  0.698417  0.745405  0.375983  0.058994
