data_DB0-m3_o11_o25_f0_pcu.sym.85_repeat
_audit_creation_date              2024-02-23
_audit_creation_method            'Materials Studio'
_symmetry_space_group_name_H-M    'P1'
_symmetry_Int_Tables_number       1
_symmetry_cell_setting            triclinic
loop_
_symmetry_equiv_pos_as_xyz
  x,y,z
_cell_length_a                    16.0093
_cell_length_b                    11.1379
_cell_length_c                    9.9213
_cell_angle_alpha                 89.9974
_cell_angle_beta                  89.9946
_cell_angle_gamma                 90.0034
loop_
_atom_site_label
_atom_site_type_symbol
_atom_site_fract_x
_atom_site_fract_y
_atom_site_fract_z
_atom_site_U_iso_or_equiv
_atom_site_adp_type
_atom_site_occupancy
O1     O     0.50685   0.31537   0.61578   0.00000  Uiso   1.00
O2     O     0.50427   0.31396   0.38346   0.00000  Uiso   1.00
C1     C     0.50637   0.25861   0.50035   0.00000  Uiso   1.00
O3     O     0.37952   0.49100   0.62145   0.00000  Uiso   1.00
O4     O     0.37781   0.49026   0.38913   0.00000  Uiso   1.00
C2     C     0.33983   0.48924   0.50600   0.00000  Uiso   1.00
Zn1    Zn    0.50426   0.49360   0.65574   0.00000  Uiso   1.00
Zn2    Zn    0.50184   0.49331   0.34896   0.00000  Uiso   1.00
O5     O     0.50133   0.67304   0.62149   0.00000  Uiso   1.00
O6     O     0.49980   0.67162   0.38869   0.00000  Uiso   1.00
O7     O     0.62836   0.49874   0.61615   0.00000  Uiso   1.00
O8     O     0.62664   0.49672   0.38281   0.00000  Uiso   1.00
C3     C     0.49983   0.72874   0.50436   0.00000  Uiso   1.00
C4     C     0.66622   0.49831   0.49877   0.00000  Uiso   1.00
C5     C     0.97393   0.41119   0.58487   0.00000  Uiso   1.00
C6     C     0.02904   0.39231   0.46356   0.00000  Uiso   1.00
H1     H     0.94888   0.33958   0.65120   0.00000  Uiso   1.00
H2     H     0.95334   0.45354   0.27395   0.00000  Uiso   1.00
C7     C     0.25020   0.48996   0.50715   0.00000  Uiso   1.00
C8     C     0.75585   0.49860   0.49758   0.00000  Uiso   1.00
C9     C     0.02900   0.51676   0.62652   0.00000  Uiso   1.00
C10    C     0.08356   0.49465   0.50467   0.00000  Uiso   1.00
C11    C     0.97588   0.60129   0.54130   0.00000  Uiso   1.00
C12    C     0.92248   0.49595   0.49946   0.00000  Uiso   1.00
C13    C     0.03169   0.57906   0.41931   0.00000  Uiso   1.00
C14    C     0.97643   0.47370   0.37688   0.00000  Uiso   1.00
C15    C     0.17494   0.49165   0.50663   0.00000  Uiso   1.00
C16    C     0.83111   0.49781   0.49791   0.00000  Uiso   1.00
H3     H     0.05725   0.64945   0.35185   0.00000  Uiso   1.00
H4     H     0.95125   0.68971   0.57389   0.00000  Uiso   1.00
H5     H     0.05224   0.53563   0.72967   0.00000  Uiso   1.00
C17    C     0.50502   0.92795   0.39217   0.00000  Uiso   1.00
C18    C     0.49620   0.86109   0.50457   0.00000  Uiso   1.00
H6     H     0.48466   0.90289   0.60109   0.00000  Uiso   1.00
C19    C     0.49788   0.06077   0.39512   0.00000  Uiso   1.00
C20    C     0.51135   0.12725   0.50498   0.00000  Uiso   1.00
H7     H     0.48195   0.10612   0.30199   0.00000  Uiso   1.00
H8     H     0.52828   0.08700   0.60029   0.00000  Uiso   1.00
C21    C     0.55360   0.55936   0.92938   0.00000  Uiso   1.00
N1     N     0.50656   0.49155   0.85729   0.00000  Uiso   1.00
H9     H     0.59308   0.62513   0.88015   0.00000  Uiso   1.00
H10    H     0.47930   0.41962   0.90466   0.00000  Uiso   1.00
C22    C     0.55899   0.54579   0.07783   0.00000  Uiso   1.00
N2     N     0.50022   0.49705   0.14739   0.00000  Uiso   1.00
H11    H     0.61291   0.58264   0.12924   0.00000  Uiso   1.00
H12    H     0.44518   0.47867   0.09852   0.00000  Uiso   1.00
O9     O     0.05815   0.28162   0.42488   0.00000  Uiso   1.00
C23    C     0.10622   0.26764   0.31436   0.00000  Uiso   1.00
O10    O     0.12424   0.35383   0.24440   0.00000  Uiso   1.00
C24    C     0.13714   0.14599   0.27716   0.00000  Uiso   1.00
H13    H     0.11444   0.07948   0.35185   0.00000  Uiso   1.00
H14    H     0.20641   0.14610   0.27632   0.00000  Uiso   1.00
H15    H     0.11360   0.12179   0.17561   0.00000  Uiso   1.00
O11    O     0.51543   0.87302   0.27173   0.00000  Uiso   1.00
C25    C     0.55715   0.92256   0.16716   0.00000  Uiso   1.00
O12    O     0.60867   0.00150   0.18588   0.00000  Uiso   1.00
C26    C     0.54468   0.87421   0.02879   0.00000  Uiso   1.00
H16    H     0.49654   0.80270   0.03132   0.00000  Uiso   1.00
H17    H     0.60446   0.83697   0.99087   0.00000  Uiso   1.00
H18    H     0.52361   0.94749   0.96118   0.00000  Uiso   1.00
