# Generated by REPEAT Assigner based on pymatgen
data_DB0-m2_o11_o29_f0_pcu.sym.5_sqe
_audit_creation_date              2022-05-24
_audit_creation_method            REPEAT_Assigner
_cell_length_a                    27.519234
_cell_length_b                    11.031992
_cell_length_c                    9.563395
_cell_angle_alpha                 90.020485
_cell_angle_beta                  90.015571
_cell_angle_gamma                 89.993636
_cell_volume                      2903.369749
_symmetry_space_group_name_H-M    P1
_symmetry_Int_Tables_number       1
loop_
    _symmetry_equiv_pos_site_id
    _symmetry_equiv_pos_as_xyz
    1  x,y,z
loop_
    _atom_site_type_symbol
    _atom_site_label
    _atom_site_fract_x
    _atom_site_fract_y
    _atom_site_fract_z
    _atom_type_partial_charge
    O   O1   0.503165  0.316946  0.632157  -0.612465
    O   O2   0.501363  0.312509  0.391313  -0.625748
    C   C1   0.501892  0.258067  0.512803  0.744759
    O   O3   0.432664  0.493362  0.624143  -0.562155
    O   O4   0.432896  0.493939  0.383286  -0.556946
    C   C2   0.410018  0.494483  0.503529  0.581851
    Cu  Cu1  0.503257  0.493709  0.645123  0.943773
    Cu  Cu2  0.503555  0.487931  0.365501  0.957913
    O   O5   0.506773  0.668763  0.618830  -0.600240
    O   O6   0.502409  0.664804  0.378985  -0.612072
    O   O7   0.573840  0.484299  0.626986  -0.579640
    O   O8   0.574111  0.491535  0.387023  -0.607918
    C   C3   0.505067  0.723476  0.498318  0.732294
    C   C4   0.596787  0.487177  0.507205  0.684653
    C   C5   0.180449  0.389236  0.486603  0.442390
    O   O9   0.205723  0.286029  0.469804  -0.510540
    N   N1   0.204417  0.494446  0.504410  -0.171085
    C   C6   0.179923  0.598791  0.523063  0.440420
    C   C7   0.281270  0.465548  0.383822  -0.114795
    C   C8   0.331374  0.467008  0.382951  -0.180849
    C   C9   0.331514  0.524159  0.623929  -0.139801
    C   C10  0.281411  0.525371  0.623585  -0.133238
    C   C11  0.256184  0.495285  0.503873  0.230240
    C   C12  0.104363  0.492670  0.506051  0.108588
    C   C13  0.130182  0.386826  0.488938  -0.116488
    C   C14  0.105662  0.279192  0.473035  -0.053891
    C   C15  0.129639  0.599422  0.522333  -0.115453
    C   C16  0.356762  0.495546  0.503334  0.045427
    H   H1   0.350556  0.547232  0.719126  0.122945
    H   H2   0.261941  0.548057  0.718215  0.128888
    H   H3   0.124891  0.195013  0.456494  0.131811
    C   C17  0.650045  0.486243  0.507502  -0.068570
    C   C18  0.978363  0.381291  0.509879  0.058150
    C   C19  0.977743  0.599617  0.505833  0.058648
    C   C20  0.952994  0.490020  0.508111  0.012618
    C   C21  0.952205  0.273872  0.523976  -0.196748
    C   C22  0.902341  0.274493  0.529132  -0.053019
    C   C23  0.877224  0.381816  0.519208  -0.118047
    C   C24  0.902463  0.489143  0.508545  0.120228
    C   C25  0.876603  0.595579  0.498237  -0.121273
    C   C26  0.826330  0.593236  0.496767  0.440207
    N   N2   0.802399  0.487380  0.508899  -0.169440
    C   C27  0.826939  0.382384  0.521026  0.440987
    C   C28  0.725379  0.451576  0.626215  -0.174455
    C   C29  0.675260  0.452784  0.626478  -0.075778
    C   C30  0.675461  0.519456  0.388832  -0.074871
    C   C31  0.725559  0.520917  0.389930  -0.175476
    C   C32  0.750629  0.486498  0.508336  0.262036
    O   O10  0.802228  0.277739  0.531550  -0.507088
    C   C33  0.029071  0.382393  0.498844  0.040218
    C   C34  0.053835  0.491773  0.506850  0.030739
    C   C35  0.028483  0.600271  0.515611  0.039238
    C   C36  0.055814  0.276615  0.478480  -0.186480
    H   H4   0.656165  0.425740  0.720125  0.117322
    H   H5   0.744836  0.424979  0.719516  0.132808
    H   H6   0.883575  0.189054  0.540557  0.132809
    H   H7   0.969035  0.186627  0.536682  0.135947
    H   H8   0.039467  0.189443  0.460837  0.131768
    O   O11  0.204670  0.702853  0.539244  -0.509581
    C   C37  0.104567  0.706170  0.539090  -0.052597
    H   H9   0.350301  0.443513  0.287760  0.142894
    H   H10  0.261687  0.442376  0.289521  0.123732
    H   H11  0.123374  0.791029  0.554982  0.131065
    C   C38  0.950948  0.706128  0.492351  -0.195884
    C   C39  0.901085  0.703781  0.488072  -0.050839
    O   O12  0.801017  0.697004  0.486289  -0.504879
    C   C40  0.054691  0.706969  0.535280  -0.187931
    H   H12  0.967249  0.793950  0.479359  0.135514
    H   H13  0.656552  0.546555  0.294854  0.114511
    H   H14  0.881817  0.788573  0.477013  0.131799
    H   H15  0.745154  0.547716  0.296983  0.134926
    H   H16  0.037912  0.793539  0.553537  0.132246
    C   C41  0.500576  0.926017  0.390877  -0.017874
    C   C42  0.506453  0.856058  0.503349  -0.300546
    H   H17  0.495586  0.883859  0.289592  0.112534
    H   H18  0.512497  0.894612  0.605543  0.178845
    C   C43  0.501318  0.060181  0.396905  -0.016109
    C   C44  0.500987  0.125161  0.515853  -0.286744
    H   H19  0.501471  0.106952  0.297349  0.110732
    H   H20  0.499509  0.083293  0.617754  0.144569
    C   C45  0.470494  0.443308  0.927795  0.093788
    N   N3   0.502503  0.499697  0.854194  -0.320337
    H   H21  0.446365  0.378998  0.877614  0.100971
    C   C46  0.466131  0.462318  0.080692  0.037799
    N   N4   0.504048  0.480918  0.156407  -0.265792
    H   H22  0.430691  0.453996  0.128559  0.114143
    H   H23  0.536625  0.462804  0.108106  0.220886
    C   C47  0.518018  0.613301  0.906464  0.582438
    C   C48  0.567015  0.639585  0.912935  -0.273554
    C   C49  0.582435  0.752010  0.957709  -0.086040
    C   C50  0.548913  0.839365  0.993915  -0.163666
    C   C51  0.499945  0.814486  0.984591  0.012378
    C   C52  0.484447  0.701936  0.940509  -0.345707
    H   H24  0.593465  0.571528  0.884526  0.132730
    H   H25  0.620843  0.771805  0.963839  0.120005
    H   H26  0.561005  0.927690  0.028366  0.110515
    H   H27  0.473636  0.883574  0.010973  0.085035
    H   H28  0.445914  0.684741  0.930611  0.138918
