# Generated by REPEAT Assigner based on pymatgen
data_DB0-m2_o22_o23_f0_pcu.sym.62_sqe
_audit_creation_date              2022-05-24
_audit_creation_method            REPEAT_Assigner
_cell_length_a                    10.764775
_cell_length_b                    9.336385
_cell_length_c                    15.856974
_cell_angle_alpha                 90.000000
_cell_angle_beta                  89.991675
_cell_angle_gamma                 90.000000
_cell_volume                      1593.690612
_symmetry_space_group_name_H-M    P1
_symmetry_Int_Tables_number       1
loop_
    _symmetry_equiv_pos_site_id
    _symmetry_equiv_pos_as_xyz
    1  x,y,z
loop_
    _atom_site_type_symbol
    _atom_site_label
    _atom_site_fract_x
    _atom_site_fract_y
    _atom_site_fract_z
    _atom_type_partial_charge
    O   O1   0.320409  0.623302  0.511825  -0.609696
    O   O2   0.318934  0.377709  0.500407  -0.485139
    C   C1   0.260519  0.500983  0.508635  0.711166
    O   O3   0.490080  0.626502  0.377392  -0.576437
    O   O4   0.487506  0.380337  0.375357  -0.496220
    C   C2   0.485672  0.504314  0.337120  0.794381
    Cu  Cu1  0.500210  0.644587  0.499929  0.807604
    Cu  Cu2  0.499678  0.357090  0.497432  0.548089
    O   O5   0.680409  0.624125  0.492976  -0.451669
    O   O6   0.679943  0.378638  0.490131  -0.590842
    O   O7   0.518887  0.620303  0.621557  -0.584187
    O   O8   0.503547  0.375348  0.620091  -0.612776
    C   C3   0.738960  0.501310  0.492034  0.531978
    C   C4   0.514110  0.496959  0.660148  0.980087
    C   C5   0.424133  0.631516  0.041992  -0.011041
    C   C6   0.443289  0.359933  0.044223  -0.054461
    C   C7   0.428615  0.372318  0.949463  -0.129384
    C   C8   0.440358  0.634351  0.947115  -0.150096
    H   H1   0.347994  0.640975  0.916420  0.063736
    H   H2   0.329657  0.391322  0.933707  0.077053
    H   H3   0.512810  0.275699  0.057984  0.095655
    H   H4   0.466041  0.730184  0.068570  0.051801
    H   H5   0.457524  0.271031  0.918650  0.042396
    H   H6   0.492823  0.731185  0.928499  0.058219
    C   C9   0.514524  0.495909  0.750641  -0.323869
    C   C10  0.492573  0.502197  0.078354  0.286806
    C   C11  0.505991  0.498261  0.918821  0.144424
    C   C12  0.637034  0.489201  0.956280  0.088482
    C   C13  0.627611  0.514835  0.051401  -0.112367
    C   C14  0.511894  0.496469  0.826612  -0.072507
    C   C15  0.487276  0.504893  0.170627  -0.216888
    C   C16  0.484995  0.505704  0.246613  -0.181579
    H   H7   0.660838  0.624510  0.065756  0.022776
    H   H8   0.685601  0.441033  0.089226  0.067313
    C   C17  0.064425  0.639753  0.550294  0.624375
    C   C18  0.066602  0.367110  0.552056  0.128487
    H   H9   0.105794  0.736741  0.521586  -0.055520
    H   H10  0.091871  0.272571  0.514101  0.060294
    C   C19  0.925837  0.646648  0.532783  -0.576845
    C   C20  0.924455  0.371787  0.550191  -0.188526
    H   H11  0.912650  0.725132  0.481193  0.123129
    H   H12  0.897999  0.275687  0.513373  0.011452
    H   H13  0.887111  0.560209  0.367897  0.168466
    H   H14  0.912446  0.377211  0.386988  0.111559
    C   C21  0.075614  0.503720  0.415303  0.477888
    C   C22  0.119438  0.502587  0.508825  -0.722596
    C   C23  0.878469  0.501760  0.499412  0.539023
    C   C24  0.933681  0.485275  0.411691  -0.528326
    C   C25  0.618809  0.080786  0.466333  -0.204628
    C   C26  0.611000  0.917429  0.459144  0.073066
    H   H15  0.691451  0.101730  0.514287  0.056628
    H   H16  0.696515  0.878272  0.490112  0.019896
    H   H17  0.565731  0.132600  0.622774  0.107141
    H   H18  0.605108  0.907650  0.612973  0.038450
    C   C27  0.489969  0.087283  0.583806  -0.471516
    C   C28  0.510182  0.926199  0.588160  0.187745
    C   C29  0.401825  0.078028  0.445652  -0.258467
    C   C30  0.390303  0.917500  0.461816  0.002332
    N   N1   0.500858  0.141667  0.497009  0.496213
    N   N2   0.501054  0.860120  0.503594  -0.058986
    H   H19  0.311281  0.129796  0.456774  0.103454
    H   H20  0.306019  0.897182  0.499295  0.081642
    H   H21  0.418583  0.094436  0.377924  0.089610
    H   H22  0.373842  0.862472  0.401104  0.070885
    C   C31  0.117060  0.640490  0.373046  0.403808
    H   H23  0.215220  0.664455  0.367840  -0.010135
    O   O9   0.043131  0.725528  0.343289  -0.434502
    C   C32  0.133675  0.384341  0.365703  0.265051
    H   H24  0.110449  0.273289  0.377512  0.040614
    O   O10  0.204233  0.412120  0.307838  -0.409480
    C   C33  0.669286  0.146434  0.386250  0.456555
    H   H25  0.764199  0.184661  0.386669  -0.019898
    O   O11  0.610572  0.153324  0.320618  -0.435584
    C   C34  0.619903  0.870297  0.369235  0.459902
    H   H26  0.547294  0.893293  0.323912  0.022213
    O   O12  0.712347  0.806521  0.345513  -0.480151
    C   C35  0.369823  0.127099  0.626824  0.681740
    H   H27  0.374436  0.182465  0.686820  -0.049261
    O   O13  0.268661  0.088710  0.600762  -0.461669
    C   C36  0.424415  0.870796  0.654776  0.126415
    H   H28  0.443650  0.895610  0.720345  0.038445
    O   O14  0.334938  0.797705  0.637595  -0.176595
    C   C37  0.289365  0.633442  0.064023  0.445959
    H   H29  0.224573  0.560976  0.033816  -0.010808
    O   O15  0.250347  0.722687  0.113494  -0.447031
    C   C38  0.324009  0.312090  0.083775  0.375768
    H   H30  0.280097  0.371907  0.134122  0.039699
    O   O16  0.276464  0.200272  0.060644  -0.436052
    C   C39  0.719442  0.601045  0.918379  0.361323
    H   H31  0.700847  0.714062  0.927214  0.012338
    O   O17  0.811338  0.565075  0.878746  -0.417576
    C   C40  0.692731  0.345745  0.934995  0.485891
    H   H32  0.699588  0.313132  0.869515  -0.034533
    O   O18  0.732386  0.265400  0.989298  -0.462590
    C   C41  0.083701  0.658891  0.643309  0.252819
    H   H33  0.058035  0.578729  0.688524  0.097083
    O   O19  0.105013  0.778437  0.670561  -0.484288
    C   C42  0.118972  0.331772  0.637553  0.300719
    H   H34  0.082740  0.239991  0.671527  0.053267
    O   O20  0.210324  0.392635  0.665545  -0.404301
    C   C43  0.858822  0.709991  0.607443  0.471478
    H   H35  0.875642  0.821329  0.623381  0.013829
    O   O21  0.779559  0.644667  0.646432  -0.429262
    C   C44  0.860553  0.348965  0.633414  0.235041
    H   H36  0.791704  0.264630  0.637932  0.051328
    O   O22  0.888327  0.415185  0.696820  -0.306703
