# Generated by REPEAT Assigner based on pymatgen
data_DB0-m3_o27_o85_f0_fsc_sqe
_audit_creation_date              2022-05-24
_audit_creation_method            REPEAT_Assigner
_cell_length_a                    6.653419
_cell_length_b                    13.297334
_cell_length_c                    17.942318
_cell_angle_alpha                 100.602598
_cell_angle_beta                  90.067113
_cell_angle_gamma                 89.499968
_cell_volume                      1560.244545
_symmetry_space_group_name_H-M    P1
_symmetry_Int_Tables_number       1
loop_
    _symmetry_equiv_pos_site_id
    _symmetry_equiv_pos_as_xyz
    1  x,y,z
loop_
    _atom_site_type_symbol
    _atom_site_label
    _atom_site_fract_x
    _atom_site_fract_y
    _atom_site_fract_z
    _atom_type_partial_charge
    O   O1   0.194388  0.090738  0.920126  -0.780577
    O   O2   0.247935  0.107708  0.046942  -0.785002
    C   C1   0.292616  0.132433  0.981334  0.891487
    O   O3   0.831213  0.118622  0.064893  -0.615480
    O   O4   0.779408  0.090405  0.937505  -0.618023
    C   C2   0.734066  0.139622  0.005819  0.738076
    O   O5   0.829408  0.896183  0.051058  -0.785152
    O   O6   0.777075  0.879371  0.924182  -0.763737
    C   C3   0.731908  0.854426  0.989574  0.854065
    O   O7   0.193500  0.868415  0.907458  -0.639320
    O   O8   0.243963  0.896875  0.034921  -0.625686
    C   C4   0.289743  0.847423  0.966836  0.785202
    Zn  Zn1  0.039817  0.007605  0.068718  1.095900
    Zn  Zn2  0.984414  0.979603  0.903058  1.090485
    C   C5   0.940483  0.083388  0.227762  -0.071211
    H   H1   0.840983  0.134023  0.204100  0.107298
    C   C6   0.932596  0.081264  0.304360  0.158354
    H   H2   0.828874  0.130837  0.340581  0.022935
    C   C7   0.051320  0.012796  0.333863  -0.499820
    C   C8   0.181108  0.949807  0.286473  0.159718
    H   H3   0.274490  0.895117  0.308510  0.015739
    C   C9   0.185425  0.953800  0.210119  -0.038936
    H   H4   0.280926  0.901272  0.172417  0.109451
    N   N1   0.064353  0.019322  0.181802  0.010833
    N   N2   0.144172  0.934099  0.441338  -0.322146
    N   N3   0.124025  0.924241  0.512983  -0.335287
    C   C10  0.991422  0.983458  0.558195  0.886669
    N   N4   0.880107  0.053098  0.530439  -0.313076
    N   N5   0.900255  0.062956  0.458794  -0.340418
    C   C11  0.032858  0.003738  0.413582  0.899479
    C   C12  0.843151  0.037387  0.685299  0.140680
    H   H5   0.749767  0.092073  0.663259  0.020127
    C   C13  0.838821  0.033395  0.761653  -0.044833
    H   H6   0.743310  0.085921  0.799352  0.105238
    N   N6   0.959896  0.967877  0.789974  0.010952
    C   C14  0.083782  0.903815  0.744019  -0.057011
    H   H7   0.183284  0.853185  0.767684  0.107868
    C   C15  0.091681  0.905938  0.667420  0.149803
    H   H8   0.195415  0.856367  0.631202  0.023272
    C   C16  0.972954  0.974401  0.637913  -0.479412
    C   C17  0.700932  0.679977  0.011196  -0.283228
    C   C18  0.609798  0.763823  0.990146  -0.028727
    C   C19  0.416384  0.756128  0.961332  -0.179201
    C   C20  0.324289  0.661850  0.947047  -0.114052
    C   C21  0.420165  0.577108  0.965141  0.161315
    C   C22  0.604572  0.587302  0.000358  0.239397
    C   C23  0.328916  0.482942  0.950507  -0.328375
    C   C24  0.422822  0.399143  0.970877  0.046854
    C   C25  0.605956  0.409639  0.007705  0.164784
    C   C26  0.697242  0.504487  0.022492  -0.332306
    C   C27  0.329235  0.305501  0.956937  -0.086580
    C   C28  0.416601  0.222270  0.980117  -0.117426
    C   C29  0.606042  0.230529  0.012009  -0.106089
    C   C30  0.696301  0.325088  0.028678  -0.133913
    H   H9   0.852370  0.686014  0.033296  0.226186
    H   H10  0.171873  0.655532  0.925872  0.097967
    H   H11  0.183468  0.474770  0.923251  0.120087
    H   H12  0.184367  0.297234  0.929257  0.104119
    H   H13  0.842090  0.331036  0.055180  0.067859
    N   N7   0.047944  0.458878  0.052797  -0.015521
    C   C31  0.193165  0.502464  0.099825  -0.249006
    C   C32  0.123593  0.593615  0.141742  -0.169749
    C   C33  0.928378  0.605869  0.118780  -0.301424
    C   C34  0.886324  0.521068  0.064426  0.236381
    H   H14  0.063809  0.392829  0.012019  0.238978
    H   H15  0.342581  0.470724  0.102470  0.165773
    H   H16  0.206622  0.645794  0.183779  0.142802
    H   H17  0.827991  0.669032  0.139949  0.164587
