# Generated by REPEAT Assigner based on pymatgen
data_DB0-m2_o1_o19_f0_nbo.sym.72
_audit_creation_date              2022-05-24
_audit_creation_method            REPEAT_Assigner
_cell_length_a                    21.598163
_cell_length_b                    21.598163
_cell_length_c                    23.573329
_cell_angle_alpha                 90.000000
_cell_angle_beta                  90.000000
_cell_angle_gamma                 90.000000
_cell_volume                      10996.501754
_symmetry_space_group_name_H-M    P1
_symmetry_Int_Tables_number       1
loop_
    _symmetry_equiv_pos_site_id
    _symmetry_equiv_pos_as_xyz
    1  x,y,z
loop_
    _atom_site_type_symbol
    _atom_site_label
    _atom_site_fract_x
    _atom_site_fract_y
    _atom_site_fract_z
    _atom_type_partial_charge
    C   C1    0.117541  0.500000  0.000000  0.394304
    C   C2    0.500000  0.000000  0.107487  0.678824
    C   C3    0.356052  0.832185  0.972251  -0.345681
    C   C4    0.812896  0.594748  0.939149  0.422948
    C   C5    0.812106  0.601386  0.880799  -0.292140
    C   C6    0.826561  0.657815  0.856740  0.235032
    C   C7    0.847534  0.705825  0.889947  -0.183717
    C   C8    0.851365  0.698494  0.947746  -0.069126
    C   C9    0.832185  0.643949  0.972251  -0.345637
    C   C10   0.594748  0.187104  0.939149  0.422899
    C   C11   0.601386  0.187894  0.880799  -0.292139
    C   C12   0.657815  0.173439  0.856740  0.235015
    C   C13   0.000000  0.500000  0.892513  0.678848
    C   C14   0.705825  0.152466  0.889947  -0.183720
    C   C15   0.698494  0.148635  0.947746  -0.069116
    C   C16   0.643949  0.167815  0.972251  -0.345584
    C   C17   0.187104  0.594748  0.060851  0.422924
    C   C18   0.187894  0.601386  0.119201  -0.292141
    C   C19   0.173439  0.657815  0.143260  0.235061
    C   C20   0.152466  0.705825  0.110053  -0.183809
    C   C21   0.148635  0.698494  0.052254  -0.069102
    C   C22   0.167815  0.643949  0.027749  -0.345581
    C   C23   0.405252  0.187104  0.060851  0.423060
    C   C24   0.500000  0.000000  0.892513  0.678827
    C   C25   0.398614  0.187894  0.119201  -0.292224
    C   C26   0.342185  0.173439  0.143260  0.235050
    C   C27   0.294175  0.152466  0.110053  -0.183708
    C   C28   0.301506  0.148635  0.052254  -0.069171
    C   C29   0.356052  0.167815  0.027749  -0.345667
    C   C30   0.812896  0.405252  0.060851  0.423024
    C   C31   0.812106  0.398614  0.119201  -0.292180
    C   C32   0.826561  0.342185  0.143260  0.235029
    C   C33   0.847534  0.294175  0.110053  -0.183712
    C   C34   0.851365  0.301506  0.052254  -0.069177
    C   C35   0.500000  0.000000  0.607600  0.716036
    C   C36   0.832185  0.356052  0.027749  -0.345608
    C   C37   0.594748  0.812896  0.060851  0.423021
    C   C38   0.601386  0.812106  0.119201  -0.292198
    C   C39   0.657815  0.826561  0.143260  0.235058
    C   C40   0.705825  0.847534  0.110053  -0.183746
    C   C41   0.698494  0.851365  0.052254  -0.069092
    C   C42   0.643948  0.832185  0.027749  -0.345679
    C   C43   0.684234  0.940538  0.411202  0.027005
    C   C44   0.682906  0.968879  0.358844  -0.119510
    C   C45   0.650597  0.942404  0.314860  -0.010098
    C   C46   0.000000  0.500000  0.607600  0.715969
    C   C47   0.617269  0.888862  0.323884  0.240674
    C   C48   0.620082  0.859398  0.375668  -0.266797
    C   C49   0.654253  0.884821  0.419157  -0.056990
    C   C50   0.940538  0.315766  0.411202  0.026715
    C   C51   0.968879  0.317094  0.358844  -0.119427
    C   C52   0.942404  0.349403  0.314860  -0.010080
    C   C53   0.888861  0.382731  0.323884  0.240456
    C   C54   0.859397  0.379918  0.375669  -0.266608
    C   C55   0.884820  0.345747  0.419157  -0.056889
    C   C56   0.315766  0.059462  0.411202  0.026700
    C   C57   0.500000  0.000000  0.392400  0.716018
    C   C58   0.317094  0.031121  0.358844  -0.119461
    C   C59   0.349403  0.057596  0.314860  -0.010080
    C   C60   0.382731  0.111139  0.323884  0.240459
    C   C61   0.379918  0.140603  0.375669  -0.266575
    C   C62   0.345747  0.115180  0.419157  -0.056953
    C   C63   0.059462  0.684234  0.411202  0.027005
    C   C64   0.031121  0.682906  0.358844  -0.119501
    C   C65   0.057596  0.650597  0.314860  -0.010136
    C   C66   0.111139  0.617269  0.323884  0.240575
    C   C67   0.140602  0.620082  0.375669  -0.266697
    C   C68   0.000000  0.500000  0.392400  0.715975
    C   C69   0.115179  0.654253  0.419157  -0.057031
    C   C70   0.684234  0.059462  0.588798  0.026874
    C   C71   0.682906  0.031121  0.641156  -0.119460
    C   C72   0.650597  0.057596  0.685140  -0.010156
    C   C73   0.617269  0.111139  0.676116  0.240627
    C   C74   0.620082  0.140602  0.624332  -0.266657
    C   C75   0.654253  0.115180  0.580843  -0.056972
    C   C76   0.940538  0.684234  0.588798  0.026761
    C   C77   0.968879  0.682906  0.641156  -0.119460
    C   C78   0.942404  0.650597  0.685140  -0.010105
    C   C79   0.000000  0.500000  0.168605  -0.148755
    C   C80   0.888861  0.617269  0.676116  0.240464
    C   C81   0.859397  0.620082  0.624331  -0.266586
    C   C82   0.884820  0.654253  0.580843  -0.056903
    C   C83   0.315766  0.940538  0.588798  0.026734
    C   C84   0.317094  0.968879  0.641156  -0.119450
    C   C85   0.349403  0.942404  0.685140  -0.010091
    C   C86   0.382731  0.888861  0.676116  0.240443
    C   C87   0.379918  0.859397  0.624331  -0.266580
    C   C88   0.345747  0.884820  0.580843  -0.056893
    C   C89   0.059462  0.315766  0.588798  0.027002
    C   C90   0.500000  0.000000  0.168605  -0.148737
    C   C91   0.031121  0.317094  0.641156  -0.119517
    C   C92   0.057596  0.349403  0.685140  -0.010127
    C   C93   0.111139  0.382731  0.676116  0.240583
    C   C94   0.140602  0.379918  0.624331  -0.266744
    C   C95   0.115179  0.345747  0.580843  -0.056999
    C   C96   0.316419  0.427439  0.919310  0.271426
    C   C97   0.325281  0.364385  0.923605  -0.154627
    C   C98   0.354567  0.332517  0.880642  0.092805
    C   C99   0.374278  0.363355  0.832794  -0.053148
    C   C100  0.364572  0.426082  0.827846  -0.238656
    C   C101  0.000000  0.500000  0.831395  -0.148762
    C   C102  0.335249  0.457804  0.870774  -0.078115
    C   C103  0.427439  0.683581  0.919310  0.271392
    C   C104  0.364385  0.674719  0.923605  -0.154710
    C   C105  0.332517  0.645433  0.880642  0.092929
    C   C106  0.363355  0.625722  0.832794  -0.053202
    C   C107  0.426082  0.635428  0.827846  -0.238604
    C   C108  0.457804  0.664751  0.870774  -0.078109
    C   C109  0.683581  0.572561  0.919310  0.271471
    C   C110  0.674719  0.635615  0.923605  -0.154788
    C   C111  0.645433  0.667483  0.880642  0.092958
    C   C112  0.500000  0.882459  0.000000  0.394182
    C   C113  0.500000  0.000000  0.831395  -0.148732
    C   C114  0.625722  0.636645  0.832794  -0.053193
    C   C115  0.635428  0.573918  0.827846  -0.238653
    C   C116  0.664751  0.542196  0.870774  -0.078111
    C   C117  0.572561  0.316419  0.919310  0.271609
    C   C118  0.635615  0.325281  0.923605  -0.154805
    C   C119  0.667483  0.354567  0.880642  0.093014
    C   C120  0.636645  0.374278  0.832794  -0.053234
    C   C121  0.573918  0.364572  0.827846  -0.238539
    C   C122  0.542196  0.335249  0.870774  -0.078409
    C   C123  0.316419  0.572561  0.080690  0.271433
    C   C124  0.500000  0.000000  0.668694  -0.205756
    C   C125  0.325281  0.635615  0.076395  -0.154631
    C   C126  0.354567  0.667483  0.119358  0.092808
    C   C127  0.374278  0.636645  0.167206  -0.053159
    C   C128  0.364572  0.573918  0.172154  -0.238658
    C   C129  0.335249  0.542196  0.129226  -0.078114
    C   C130  0.427439  0.316419  0.080690  0.271393
    C   C131  0.364385  0.325281  0.076395  -0.154698
    C   C132  0.332517  0.354567  0.119358  0.092921
    C   C133  0.363355  0.374278  0.167206  -0.053204
    C   C134  0.426082  0.364572  0.172154  -0.238598
    C   C135  0.000000  0.500000  0.668694  -0.205722
    C   C136  0.457804  0.335249  0.129226  -0.078113
    C   C137  0.683581  0.427439  0.080690  0.271450
    C   C138  0.674719  0.364385  0.076395  -0.154769
    C   C139  0.645433  0.332517  0.119358  0.092961
    C   C140  0.625722  0.363355  0.167206  -0.053201
    C   C141  0.635428  0.426082  0.172154  -0.238639
    C   C142  0.664751  0.457804  0.129226  -0.078094
    C   C143  0.572561  0.683581  0.080690  0.271601
    C   C144  0.635615  0.674719  0.076395  -0.154808
    C   C145  0.667483  0.645433  0.119358  0.093019
    C   C146  0.500000  0.000000  0.331306  -0.205755
    C   C147  0.636645  0.625722  0.167206  -0.053230
    C   C148  0.573918  0.635428  0.172154  -0.238548
    C   C149  0.542196  0.664751  0.129226  -0.078391
    C   C150  0.814049  0.931868  0.415509  0.349432
    C   C151  0.820402  0.869314  0.425050  -0.241836
    C   C152  0.849388  0.832345  0.385573  0.082434
    C   C153  0.870420  0.857704  0.335500  -0.027864
    C   C154  0.863331  0.920174  0.325445  -0.231837
    C   C155  0.835141  0.957201  0.365422  -0.170446
    C   C156  0.931868  0.185951  0.415509  0.349578
    C   C157  0.000000  0.500000  0.331306  -0.205731
    C   C158  0.869314  0.179598  0.425050  -0.241817
    C   C159  0.832345  0.150612  0.385573  0.082442
    C   C160  0.857704  0.129580  0.335500  -0.027921
    C   C161  0.920174  0.136669  0.325445  -0.231844
    C   C162  0.957201  0.164859  0.365422  -0.170462
    C   C163  0.185951  0.068132  0.415509  0.349589
    C   C164  0.179598  0.130686  0.425050  -0.241809
    C   C165  0.150612  0.167655  0.385573  0.082419
    C   C166  0.129580  0.142296  0.335500  -0.027953
    C   C167  0.136668  0.079826  0.325445  -0.231809
    C   C168  0.000000  0.500000  0.219875  0.053157
    C   C169  0.164859  0.042799  0.365422  -0.170534
    C   C170  0.068132  0.814049  0.415509  0.349421
    C   C171  0.130686  0.820402  0.425050  -0.241800
    C   C172  0.167655  0.849388  0.385573  0.082399
    C   C173  0.142296  0.870420  0.335500  -0.027887
    C   C174  0.079826  0.863332  0.325445  -0.231785
    C   C175  0.042799  0.835141  0.365422  -0.170533
    C   C176  0.814049  0.068132  0.584491  0.349564
    C   C177  0.820402  0.130686  0.574950  -0.241854
    C   C178  0.849388  0.167655  0.614427  0.082440
    C   C179  0.500000  0.000000  0.219875  0.053147
    C   C180  0.870420  0.142296  0.664500  -0.027944
    C   C181  0.863332  0.079826  0.674555  -0.231785
    C   C182  0.835141  0.042799  0.634578  -0.170565
    C   C183  0.931868  0.814049  0.584491  0.349578
    C   C184  0.869314  0.820402  0.574950  -0.241833
    C   C185  0.832345  0.849388  0.614427  0.082422
    C   C186  0.857704  0.870420  0.664500  -0.027932
    C   C187  0.920174  0.863332  0.674555  -0.231810
    C   C188  0.957201  0.835141  0.634578  -0.170536
    C   C189  0.185951  0.931868  0.584491  0.349517
    C   C190  0.000000  0.500000  0.780125  0.053163
    C   C191  0.179598  0.869314  0.574950  -0.241795
    C   C192  0.150612  0.832345  0.614427  0.082388
    C   C193  0.129580  0.857704  0.664500  -0.027889
    C   C194  0.136668  0.920174  0.674555  -0.231841
    C   C195  0.164859  0.957201  0.634578  -0.170518
    C   C196  0.068132  0.185951  0.584491  0.349417
    C   C197  0.130686  0.179598  0.574950  -0.241776
    C   C198  0.167655  0.150612  0.614427  0.082398
    C   C199  0.142296  0.129580  0.664500  -0.027892
    C   C200  0.079826  0.136668  0.674555  -0.231771
    C   C201  0.500000  0.000000  0.780125  0.053141
    C   C202  0.042799  0.164859  0.634578  -0.170576
    C   C203  0.500000  0.000000  0.719960  0.041719
    C   C204  0.882459  0.500000  0.000000  0.394318
    C   C205  0.000000  0.500000  0.719960  0.041703
    C   C206  0.500000  0.000000  0.280040  0.041723
    C   C207  0.000000  0.500000  0.280040  0.041695
    C   C208  0.218446  0.457513  0.967042  -0.221415
    C   C209  0.457513  0.781554  0.967042  -0.221443
    C   C210  0.781554  0.542487  0.967042  -0.221415
    C   C211  0.542487  0.218446  0.967042  -0.221369
    C   C212  0.218446  0.542487  0.032958  -0.221391
    C   C213  0.457513  0.218446  0.032958  -0.221415
    C   C214  0.781554  0.457513  0.032958  -0.221422
    C   C215  0.500000  0.117541  0.000000  0.394237
    C   C216  0.542487  0.781554  0.032958  -0.221396
    C   C217  0.717789  0.969797  0.457705  0.037059
    C   C218  0.969797  0.282211  0.457705  0.037199
    C   C219  0.282210  0.030203  0.457706  0.037300
    C   C220  0.030203  0.717789  0.457705  0.037033
    C   C221  0.717789  0.030203  0.542295  0.037175
    C   C222  0.969797  0.717789  0.542295  0.037201
    C   C223  0.282210  0.969797  0.542295  0.037212
    C   C224  0.030203  0.282211  0.542295  0.037056
    C   C225  0.282480  0.462243  0.962857  -0.050031
    C   C226  0.617526  0.000000  0.500000  0.715470
    C   C227  0.462243  0.717520  0.962857  -0.050020
    C   C228  0.717520  0.537757  0.962857  -0.050032
    C   C229  0.537757  0.282480  0.962857  -0.050108
    C   C230  0.282480  0.537757  0.037143  -0.050051
    C   C231  0.462243  0.282480  0.037143  -0.050033
    C   C232  0.717520  0.462243  0.037143  -0.050025
    C   C233  0.537757  0.717520  0.037143  -0.050096
    C   C234  0.781795  0.969907  0.457411  -0.159211
    C   C235  0.969906  0.218205  0.457411  -0.159394
    C   C236  0.218205  0.030094  0.457411  -0.159424
    C   C237  0.000000  0.382474  0.500000  0.715535
    C   C238  0.030093  0.781795  0.457411  -0.159197
    C   C239  0.781795  0.030094  0.542589  -0.159384
    C   C240  0.969906  0.781795  0.542589  -0.159415
    C   C241  0.218205  0.969906  0.542589  -0.159357
    C   C242  0.030093  0.218205  0.542589  -0.159205
    C   C243  0.314648  0.500000  0.000000  0.030683
    C   C244  0.500000  0.685352  0.000000  0.030738
    C   C245  0.685352  0.500000  0.000000  0.030650
    C   C246  0.500000  0.314648  0.000000  0.030746
    C   C247  0.814290  0.000000  0.500000  0.049691
    C   C248  0.382474  0.000000  0.500000  0.715539
    C   C249  0.000000  0.185710  0.500000  0.049694
    C   C250  0.185710  0.000000  0.500000  0.049819
    C   C251  0.000000  0.814290  0.500000  0.049720
    C   C252  0.500000  0.617315  0.000000  0.394914
    C   C253  0.617315  0.500000  0.000000  0.394963
    C   C254  0.500000  0.382685  0.000000  0.394924
    C   C255  0.382685  0.500000  0.000000  0.394956
    C   C256  0.000000  0.117604  0.500000  0.498558
    C   C257  0.117604  0.000000  0.500000  0.498438
    C   C258  0.000000  0.882396  0.500000  0.498538
    C   C259  0.000000  0.617526  0.500000  0.715548
    C   C260  0.882396  0.000000  0.500000  0.498594
    C   C261  0.185817  0.500000  0.000000  0.176851
    C   C262  0.500000  0.814183  0.000000  0.176957
    C   C263  0.814183  0.500000  0.000000  0.176861
    C   C264  0.500000  0.185817  0.000000  0.176915
    C   C265  0.685538  0.000000  0.500000  -0.049279
    C   C266  0.000000  0.314462  0.500000  -0.049285
    C   C267  0.314462  0.000000  0.500000  -0.049378
    C   C268  0.000000  0.685538  0.500000  -0.049276
    C   C269  0.187104  0.405252  0.939149  0.423018
    C   C270  0.000000  0.500000  0.107487  0.678845
    C   C271  0.187894  0.398614  0.880799  -0.292166
    C   C272  0.173439  0.342185  0.856740  0.235055
    C   C273  0.152466  0.294175  0.889947  -0.183786
    C   C274  0.148635  0.301506  0.947746  -0.069116
    C   C275  0.167815  0.356052  0.972251  -0.345626
    C   C276  0.405252  0.812896  0.939149  0.423089
    C   C277  0.398614  0.812106  0.880799  -0.292221
    C   C278  0.342185  0.826561  0.856740  0.235046
    C   C279  0.294175  0.847534  0.889947  -0.183705
    C   C280  0.301506  0.851365  0.947746  -0.069165
    Cl  Cl1   0.189126  0.328576  0.785190  -0.166289
    Cl  Cl2   0.976817  0.347405  0.247650  -0.098874
    Cl  Cl3   0.347405  0.023183  0.247650  -0.098880
    Cl  Cl4   0.023183  0.652595  0.247650  -0.098862
    Cl  Cl5   0.652595  0.023183  0.752350  -0.098868
    Cl  Cl6   0.976817  0.652595  0.752350  -0.098874
    Cl  Cl7   0.347405  0.976817  0.752350  -0.098878
    Cl  Cl8   0.023183  0.347405  0.752350  -0.098867
    Cl  Cl9   0.365755  0.252582  0.886195  -0.146737
    Cl  Cl10  0.252582  0.634246  0.886195  -0.146752
    Cl  Cl11  0.634246  0.747418  0.886195  -0.146763
    Cl  Cl12  0.328576  0.810874  0.785190  -0.166258
    Cl  Cl13  0.747418  0.365754  0.886195  -0.146762
    Cl  Cl14  0.365755  0.747418  0.113805  -0.146741
    Cl  Cl15  0.252582  0.365754  0.113805  -0.146751
    Cl  Cl16  0.634246  0.252582  0.113805  -0.146768
    Cl  Cl17  0.747418  0.634246  0.113805  -0.146767
    Cl  Cl18  0.859190  0.753235  0.399045  -0.113972
    Cl  Cl19  0.753235  0.140810  0.399045  -0.113970
    Cl  Cl20  0.140810  0.246765  0.399045  -0.113976
    Cl  Cl21  0.246765  0.859190  0.399045  -0.113969
    Cl  Cl22  0.859190  0.246765  0.600955  -0.113966
    Cl  Cl23  0.810874  0.671424  0.785190  -0.166256
    Cl  Cl24  0.753235  0.859190  0.600955  -0.113970
    Cl  Cl25  0.140810  0.753235  0.600955  -0.113964
    Cl  Cl26  0.246765  0.140810  0.600955  -0.113962
    Cl  Cl27  0.671424  0.189126  0.785190  -0.166262
    Cl  Cl28  0.189126  0.671424  0.214810  -0.166277
    Cl  Cl29  0.328576  0.189126  0.214810  -0.166257
    Cl  Cl30  0.810874  0.328576  0.214810  -0.166253
    Cl  Cl31  0.671424  0.810874  0.214810  -0.166287
    Cl  Cl32  0.652595  0.976817  0.247650  -0.098876
    Cu  Cu1   0.000000  0.560326  0.000000  0.886149
    Cu  Cu2   0.500000  0.500000  0.055124  0.830253
    Cu  Cu3   0.000000  0.000000  0.444694  0.849121
    Cu  Cu4   0.000000  0.000000  0.555306  0.849165
    Cu  Cu5   0.560326  0.000000  0.000000  0.886152
    Cu  Cu6   0.000000  0.439675  0.000000  0.886064
    Cu  Cu7   0.439675  0.000000  0.000000  0.886031
    Cu  Cu8   0.500000  0.060481  0.500000  0.922892
    Cu  Cu9   0.060481  0.500000  0.500000  0.922885
    Cu  Cu10  0.500000  0.939519  0.500000  0.922887
    Cu  Cu11  0.939519  0.500000  0.500000  0.922888
    Cu  Cu12  0.500000  0.500000  0.944876  0.830252
    H   H1    0.205269  0.435550  0.854302  0.105914
    H   H2    0.858762  0.749914  0.870854  0.114460
    H   H3    0.828934  0.005916  0.357356  0.141137
    H   H4    0.849311  0.198255  0.463279  0.116986
    H   H5    0.828640  0.107441  0.304166  0.079526
    H   H6    0.940102  0.120257  0.286172  0.146944
    H   H7    0.005916  0.171066  0.357356  0.141161
    H   H8    0.198255  0.150688  0.463279  0.116999
    H   H9    0.107441  0.171360  0.304166  0.079542
    H   H10   0.120257  0.059898  0.286172  0.146958
    H   H11   0.171065  0.994084  0.357356  0.141166
    H   H12   0.150688  0.801745  0.463279  0.116961
    H   H13   0.866157  0.736647  0.974135  0.111299
    H   H14   0.171359  0.892559  0.304166  0.079506
    H   H15   0.059898  0.879743  0.286172  0.146950
    H   H16   0.994084  0.828934  0.357356  0.141149
    H   H17   0.801744  0.150689  0.536721  0.117025
    H   H18   0.892559  0.171360  0.695834  0.079526
    H   H19   0.879743  0.059898  0.713828  0.146952
    H   H20   0.828934  0.994084  0.642644  0.141183
    H   H21   0.849311  0.801745  0.536721  0.117011
    H   H22   0.828640  0.892559  0.695834  0.079528
    H   H23   0.940102  0.879743  0.713828  0.146961
    H   H24   0.830624  0.640459  0.017875  0.203461
    H   H25   0.005916  0.828935  0.642644  0.141177
    H   H26   0.198255  0.849311  0.536721  0.117009
    H   H27   0.107441  0.828640  0.695834  0.079516
    H   H28   0.120256  0.940102  0.713828  0.146972
    H   H29   0.171065  0.005916  0.642644  0.141170
    H   H30   0.150688  0.198256  0.536721  0.116954
    H   H31   0.171359  0.107441  0.695834  0.079500
    H   H32   0.059898  0.120257  0.713828  0.146953
    H   H33   0.994084  0.171066  0.642644  0.141188
    H   H34   0.564450  0.205269  0.854302  0.105933
    H   H35   0.749914  0.141238  0.870854  0.114463
    H   H36   0.736647  0.133843  0.974135  0.111294
    H   H37   0.640459  0.169376  0.017874  0.203421
    H   H38   0.205269  0.564450  0.145698  0.105913
    H   H39   0.141238  0.749914  0.129146  0.114487
    H   H40   0.133843  0.736647  0.025865  0.111298
    H   H41   0.141238  0.250086  0.870854  0.114488
    H   H42   0.169376  0.640459  0.982126  0.203421
    H   H43   0.435550  0.205269  0.145698  0.105924
    H   H44   0.250086  0.141238  0.129146  0.114461
    H   H45   0.263353  0.133843  0.025865  0.111301
    H   H46   0.359541  0.169376  0.982125  0.203425
    H   H47   0.794731  0.435550  0.145698  0.105913
    H   H48   0.858762  0.250086  0.129146  0.114471
    H   H49   0.866157  0.263353  0.025865  0.111301
    H   H50   0.830624  0.359541  0.982126  0.203424
    H   H51   0.564450  0.794731  0.145698  0.105939
    H   H52   0.133843  0.263353  0.974134  0.111286
    H   H53   0.749914  0.858762  0.129146  0.114483
    H   H54   0.736647  0.866157  0.025866  0.111272
    H   H55   0.640459  0.830624  0.982126  0.203426
    H   H56   0.707375  0.011899  0.352211  0.088764
    H   H57   0.589338  0.869595  0.290246  0.018233
    H   H58   0.595068  0.816673  0.382304  0.124673
    H   H59   0.656501  0.861749  0.459788  0.096929
    H   H60   0.011898  0.292625  0.352210  0.088734
    H   H61   0.869594  0.410662  0.290246  0.018288
    H   H62   0.816673  0.404932  0.382304  0.124679
    H   H63   0.169376  0.359540  0.017874  0.203420
    H   H64   0.861749  0.343499  0.459788  0.096932
    H   H65   0.292625  0.988102  0.352211  0.088718
    H   H66   0.410662  0.130406  0.290246  0.018284
    H   H67   0.404932  0.183327  0.382304  0.124671
    H   H68   0.343499  0.138251  0.459789  0.096958
    H   H69   0.988101  0.707375  0.352211  0.088762
    H   H70   0.130406  0.589338  0.290246  0.018264
    H   H71   0.183327  0.595068  0.382304  0.124666
    H   H72   0.138251  0.656501  0.459789  0.096963
    H   H73   0.707375  0.988102  0.647789  0.088737
    H   H74   0.435550  0.794731  0.854302  0.105920
    H   H75   0.589338  0.130406  0.709754  0.018254
    H   H76   0.595068  0.183327  0.617696  0.124653
    H   H77   0.656501  0.138251  0.540212  0.096933
    H   H78   0.011898  0.707375  0.647789  0.088734
    H   H79   0.869594  0.589338  0.709754  0.018281
    H   H80   0.816673  0.595068  0.617696  0.124672
    H   H81   0.861749  0.656501  0.540212  0.096930
    H   H82   0.292625  0.011898  0.647790  0.088737
    H   H83   0.410662  0.869594  0.709754  0.018294
    H   H84   0.404932  0.816673  0.617696  0.124671
    H   H85   0.250086  0.858762  0.870854  0.114457
    H   H86   0.343499  0.861749  0.540212  0.096930
    H   H87   0.988101  0.292625  0.647789  0.088765
    H   H88   0.130405  0.410663  0.709754  0.018274
    H   H89   0.183327  0.404932  0.617696  0.124673
    H   H90   0.138251  0.343499  0.540211  0.096961
    H   H91   0.306986  0.339594  0.959356  0.092412
    H   H92   0.396915  0.338243  0.798991  0.098168
    H   H93   0.379368  0.450317  0.790095  0.142663
    H   H94   0.326178  0.506620  0.866233  0.088373
    H   H95   0.339594  0.693014  0.959357  0.092488
    H   H96   0.263353  0.866157  0.974135  0.111301
    H   H97   0.338243  0.603085  0.798991  0.098170
    H   H98   0.450317  0.620633  0.790095  0.142650
    H   H99   0.506620  0.673822  0.866233  0.088362
    H   H100  0.693014  0.660406  0.959357  0.092505
    H   H101  0.603085  0.661757  0.798991  0.098175
    H   H102  0.620632  0.549683  0.790095  0.142669
    H   H103  0.673822  0.493380  0.866233  0.088366
    H   H104  0.660406  0.306986  0.959356  0.092482
    H   H105  0.661757  0.396915  0.798991  0.098169
    H   H106  0.549683  0.379368  0.790095  0.142642
    H   H107  0.359541  0.830624  0.017875  0.203428
    H   H108  0.493380  0.326178  0.866233  0.088539
    H   H109  0.306986  0.660406  0.040644  0.092429
    H   H110  0.396915  0.661757  0.201009  0.098174
    H   H111  0.379368  0.549683  0.209905  0.142664
    H   H112  0.326178  0.493380  0.133767  0.088376
    H   H113  0.339594  0.306986  0.040643  0.092492
    H   H114  0.338243  0.396915  0.201009  0.098172
    H   H115  0.450317  0.379367  0.209905  0.142645
    H   H116  0.506620  0.326178  0.133767  0.088362
    H   H117  0.693014  0.339594  0.040643  0.092485
    H   H118  0.794731  0.564450  0.854302  0.105904
    H   H119  0.603085  0.338243  0.201009  0.098176
    H   H120  0.620633  0.450317  0.209905  0.142659
    H   H121  0.673822  0.506620  0.133767  0.088359
    H   H122  0.660406  0.693014  0.040644  0.092475
    H   H123  0.661757  0.603085  0.201009  0.098174
    H   H124  0.549683  0.620632  0.209905  0.142641
    H   H125  0.493380  0.673822  0.133767  0.088531
    H   H126  0.801744  0.849312  0.463279  0.116978
    H   H127  0.892559  0.828641  0.304166  0.079497
    H   H128  0.879743  0.940102  0.286172  0.146943
    O   O1    0.088199  0.550756  0.983851  -0.466453
    O   O2    0.051071  0.411624  0.484482  -0.551032
    O   O3    0.411624  0.948929  0.484482  -0.551051
    O   O4    0.948929  0.588376  0.484482  -0.551034
    O   O5    0.588376  0.948929  0.515518  -0.551003
    O   O6    0.051071  0.588376  0.515518  -0.551031
    O   O7    0.411624  0.051071  0.515518  -0.551021
    O   O8    0.948929  0.411624  0.515518  -0.551029
    O   O9    0.017561  0.550932  0.080863  -0.517916
    O   O10   0.550932  0.982439  0.080863  -0.517913
    O   O11   0.982439  0.449068  0.080863  -0.517914
    O   O12   0.550756  0.911801  0.983851  -0.466405
    O   O13   0.449068  0.017561  0.080863  -0.517905
    O   O14   0.017561  0.449068  0.919137  -0.517904
    O   O15   0.550932  0.017561  0.919137  -0.517923
    O   O16   0.982439  0.550932  0.919137  -0.517920
    O   O17   0.449068  0.982439  0.919137  -0.517906
    O   O18   0.516844  0.051096  0.580980  -0.553761
    O   O19   0.051096  0.483156  0.580980  -0.553692
    O   O20   0.483156  0.948904  0.580980  -0.553770
    O   O21   0.948904  0.516844  0.580980  -0.553756
    O   O22   0.516844  0.948904  0.419020  -0.553703
    O   O23   0.911801  0.449244  0.983851  -0.466426
    O   O24   0.051096  0.516844  0.419020  -0.553704
    O   O25   0.483156  0.051096  0.419020  -0.553771
    O   O26   0.948904  0.483156  0.419020  -0.553749
    O   O27   0.518428  0.588120  0.953654  -0.454563
    O   O28   0.588120  0.481572  0.953654  -0.454551
    O   O29   0.481572  0.411880  0.953654  -0.454545
    O   O30   0.411880  0.518428  0.953654  -0.454562
    O   O31   0.518428  0.411880  0.046346  -0.454574
    O   O32   0.588120  0.518428  0.046346  -0.454559
    O   O33   0.481572  0.588120  0.046346  -0.454541
    O   O34   0.449244  0.088199  0.983851  -0.466361
    O   O35   0.411880  0.481572  0.046346  -0.454564
    O   O36   0.017344  0.088369  0.453362  -0.485660
    O   O37   0.088369  0.982656  0.453362  -0.485569
    O   O38   0.982656  0.911631  0.453362  -0.485618
    O   O39   0.911631  0.017344  0.453362  -0.485689
    O   O40   0.017344  0.911631  0.546638  -0.485624
    O   O41   0.088369  0.017344  0.546638  -0.485588
    O   O42   0.982656  0.088369  0.546638  -0.485614
    O   O43   0.911631  0.982656  0.546638  -0.485648
    O   O44   0.088199  0.449244  0.016149  -0.466427
    O   O45   0.550756  0.088199  0.016149  -0.466453
    O   O46   0.911801  0.550756  0.016149  -0.466461
    O   O47   0.449244  0.911801  0.016149  -0.466356
    O   O48   0.588376  0.051071  0.484482  -0.551013
