# Generated by REPEAT Assigner based on pymatgen
data_DB0-m3_o14_o28_f0_pcu.sym.26_sqe
_audit_creation_date              2022-05-24
_audit_creation_method            REPEAT_Assigner
_cell_length_a                    23.441738
_cell_length_b                    11.025936
_cell_length_c                    9.816060
_cell_angle_alpha                 90.000179
_cell_angle_beta                  89.996082
_cell_angle_gamma                 90.012260
_cell_volume                      2537.128347
_symmetry_space_group_name_H-M    P1
_symmetry_Int_Tables_number       1
loop_
    _symmetry_equiv_pos_site_id
    _symmetry_equiv_pos_as_xyz
    1  x,y,z
loop_
    _atom_site_type_symbol
    _atom_site_label
    _atom_site_fract_x
    _atom_site_fract_y
    _atom_site_fract_z
    _atom_type_partial_charge
    O   O1   0.501173  0.316687  0.614283  -0.541331
    O   O2   0.501382  0.321511  0.382955  -0.590594
    C   C1   0.504542  0.260724  0.497168  0.642413
    O   O3   0.411957  0.491250  0.617545  -0.668408
    O   O4   0.411560  0.495970  0.385683  -0.681282
    C   C2   0.384810  0.491469  0.501813  0.747458
    Zn  Zn1  0.496949  0.496613  0.654658  0.987484
    Zn  Zn2  0.496334  0.502099  0.345461  1.027007
    O   O5   0.493918  0.677202  0.618878  -0.546923
    O   O6   0.492973  0.682919  0.383818  -0.629684
    O   O7   0.581871  0.505365  0.616768  -0.631246
    O   O8   0.581420  0.511853  0.380312  -0.611515
    C   C3   0.491966  0.737949  0.504072  0.679339
    C   C4   0.608233  0.510749  0.498334  0.652478
    C   C5   0.879479  0.599752  0.561402  0.465630
    N   N1   0.850032  0.511432  0.497205  -0.199145
    C   C6   0.877610  0.419916  0.433939  0.468300
    C   C7   0.936590  0.415438  0.433865  -0.120500
    C   C8   0.967116  0.504792  0.499229  0.108514
    C   C9   0.938491  0.597578  0.563448  -0.107993
    C   C10  0.965240  0.321895  0.369694  -0.054196
    C   C11  0.024012  0.318448  0.370882  -0.067183
    C   C12  0.054593  0.408506  0.436272  -0.091001
    C   C13  0.025974  0.501320  0.500450  0.086335
    C   C14  0.056504  0.590665  0.565817  -0.110660
    C   C15  0.027852  0.684208  0.629990  -0.057333
    C   C16  0.969076  0.687638  0.628835  -0.060112
    C   C17  0.113600  0.406269  0.438398  0.447379
    N   N2   0.143058  0.494593  0.502561  -0.179985
    C   C18  0.115488  0.586153  0.565775  0.455361
    O   O9   0.851259  0.691529  0.621168  -0.488563
    O   O10  0.847505  0.331132  0.373675  -0.478551
    H   H1   0.942384  0.250458  0.317734  0.126952
    H   H2   0.045338  0.244445  0.319783  0.132388
    O   O11  0.141801  0.314385  0.378788  -0.488402
    O   O12  0.145601  0.674915  0.626056  -0.476728
    H   H3   0.050709  0.755640  0.681954  0.126188
    H   H4   0.947747  0.761625  0.679959  0.131218
    C   C19  0.233585  0.493486  0.380963  -0.210469
    H   H5   0.210831  0.497583  0.285277  0.144278
    C   C20  0.292399  0.492592  0.380649  -0.037087
    H   H6   0.314510  0.495027  0.284100  0.096197
    C   C21  0.322236  0.489789  0.502158  -0.099687
    C   C22  0.292521  0.487252  0.623857  -0.033752
    H   H7   0.314758  0.484814  0.720238  0.090927
    C   C23  0.233686  0.488356  0.623895  -0.213599
    H   H8   0.210980  0.485688  0.719719  0.141980
    C   C24  0.203957  0.491787  0.502507  0.271441
    C   C25  0.759553  0.511753  0.618987  -0.185048
    H   H9   0.782353  0.507697  0.714612  0.141285
    C   C26  0.700736  0.511704  0.619420  -0.080495
    H   H10  0.678733  0.508595  0.716079  0.114876
    C   C27  0.670824  0.514200  0.497958  -0.038088
    C   C28  0.700523  0.517623  0.376219  -0.092428
    H   H11  0.678327  0.519807  0.279786  0.119739
    C   C29  0.759359  0.517409  0.376102  -0.172735
    H   H12  0.782032  0.520499  0.280248  0.136211
    C   C30  0.789134  0.514042  0.497407  0.253009
    C   C31  0.547638  0.115911  0.726759  -0.208610
    H   H13  0.570931  0.199735  0.716078  0.131722
    C   C32  0.549475  0.060491  0.851755  -0.128985
    H   H14  0.570542  0.104364  0.936354  0.120449
    C   C33  0.522257  0.952057  0.869844  -0.023559
    H   H15  0.520239  0.911209  0.969803  0.114952
    C   C34  0.499526  0.892487  0.759603  -0.208251
    H   H16  0.476438  0.811060  0.782849  0.104154
    C   C35  0.503743  0.940750  0.628444  0.138402
    C   C36  0.519868  0.061879  0.617016  0.223929
    C   C37  0.510426  0.125511  0.495717  -0.162867
    C   C38  0.499681  0.058213  0.378270  -0.114900
    H   H17  0.486795  0.884135  0.292831  0.107491
    C   C39  0.492407  0.934152  0.386382  -0.061398
    C   C40  0.493067  0.873202  0.509363  -0.155499
    H   H18  0.556963  0.635652  0.122950  0.133323
    C   C41  0.423498  0.342525  0.139554  -0.181003
    H   H19  0.421912  0.335266  0.247048  0.152989
    C   C42  0.387101  0.266588  0.071229  -0.030887
    H   H20  0.358820  0.207258  0.127164  0.092485
    C   C43  0.388002  0.263550  0.932670  -0.009854
    H   H21  0.360335  0.202133  0.877859  0.089504
    C   C44  0.424976  0.337260  0.863264  -0.161717
    H   H22  0.424231  0.327412  0.755868  0.131440
    C   C45  0.460821  0.418446  0.930011  0.189818
    C   C46  0.459994  0.421638  0.071542  0.146936
    N   N3   0.494304  0.499813  0.140995  -0.084652
    C   C47  0.529159  0.573461  0.069681  -0.046481
    H   H23  0.558069  0.630557  0.873452  0.091835
    C   C48  0.530004  0.570066  0.928386  0.082090
    N   N4   0.496172  0.492775  0.858994  -0.156244
    N   N5   0.500863  0.111688  0.245973  0.703020
    O   O13  0.546032  0.171700  0.208732  -0.366793
    O   O14  0.467559  0.068026  0.152127  -0.402503
