data_DB0-m2_o11_o29_f0_pcu.sym.24_repeat
_audit_creation_date              2024-02-20
_audit_creation_method            'Materials Studio'
_symmetry_space_group_name_H-M    'P1'
_symmetry_Int_Tables_number       1
_symmetry_cell_setting            triclinic
loop_
_symmetry_equiv_pos_as_xyz
  x,y,z
_cell_length_a                    27.5506
_cell_length_b                    11.0687
_cell_length_c                    9.5428
_cell_angle_alpha                 90.0206
_cell_angle_beta                  90.0156
_cell_angle_gamma                 89.9937
loop_
_atom_site_label
_atom_site_type_symbol
_atom_site_fract_x
_atom_site_fract_y
_atom_site_fract_z
_atom_site_U_iso_or_equiv
_atom_site_adp_type
_atom_site_occupancy
O1     O     0.49735   0.32197   0.62631   0.00000  Uiso   1.00
O2     O     0.49842   0.31854   0.38548   0.00000  Uiso   1.00
C1     C     0.49904   0.26366   0.50700   0.00000  Uiso   1.00
O3     O     0.42898   0.50292   0.62094   0.00000  Uiso   1.00
O4     O     0.42998   0.49926   0.37976   0.00000  Uiso   1.00
C2     C     0.40671   0.49865   0.49965   0.00000  Uiso   1.00
Cu1    Cu    0.49941   0.49775   0.64310   0.00000  Uiso   1.00
Cu2    Cu    0.50059   0.49381   0.36273   0.00000  Uiso   1.00
O5     O     0.49845   0.67300   0.62002   0.00000  Uiso   1.00
O6     O     0.49940   0.66969   0.37953   0.00000  Uiso   1.00
O7     O     0.57003   0.50005   0.62565   0.00000  Uiso   1.00
O8     O     0.57102   0.49659   0.38530   0.00000  Uiso   1.00
C3     C     0.50036   0.72825   0.49894   0.00000  Uiso   1.00
C4     C     0.59331   0.49481   0.50630   0.00000  Uiso   1.00
C5     C     0.17711   0.40623   0.45096   0.00000  Uiso   1.00
O9     O     0.20214   0.30864   0.40854   0.00000  Uiso   1.00
N1     N     0.20120   0.50449   0.49572   0.00000  Uiso   1.00
C6     C     0.17710   0.60276   0.54127   0.00000  Uiso   1.00
C7     C     0.27833   0.49073   0.37265   0.00000  Uiso   1.00
C8     C     0.32839   0.48992   0.37332   0.00000  Uiso   1.00
C9     C     0.32795   0.51392   0.62209   0.00000  Uiso   1.00
C10    C     0.27793   0.51601   0.62091   0.00000  Uiso   1.00
C11    C     0.25295   0.50409   0.49633   0.00000  Uiso   1.00
C12    C     0.10119   0.50310   0.49843   0.00000  Uiso   1.00
C13    C     0.12700   0.40428   0.45182   0.00000  Uiso   1.00
C14    C     0.10273   0.30246   0.40868   0.00000  Uiso   1.00
C15    C     0.12645   0.60403   0.54329   0.00000  Uiso   1.00
C16    C     0.35349   0.50104   0.49820   0.00000  Uiso   1.00
H1     H     0.34659   0.52273   0.72120   0.00000  Uiso   1.00
H2     H     0.25835   0.52529   0.71849   0.00000  Uiso   1.00
H3     H     0.12206   0.22261   0.37511   0.00000  Uiso   1.00
C17    C     0.64654   0.49433   0.50770   0.00000  Uiso   1.00
C18    C     0.97519   0.40069   0.44370   0.00000  Uiso   1.00
C19    C     0.97428   0.59215   0.56260   0.00000  Uiso   1.00
C20    C     0.94960   0.49505   0.50405   0.00000  Uiso   1.00
C21    C     0.94918   0.30976   0.37675   0.00000  Uiso   1.00
C22    C     0.89933   0.30841   0.37623   0.00000  Uiso   1.00
C23    C     0.87356   0.39937   0.44288   0.00000  Uiso   1.00
C24    C     0.89901   0.49249   0.50579   0.00000  Uiso   1.00
C25    C     0.87338   0.58362   0.57069   0.00000  Uiso   1.00
C26    C     0.82327   0.58199   0.57173   0.00000  Uiso   1.00
N2     N     0.79895   0.49120   0.50980   0.00000  Uiso   1.00
C27    C     0.82293   0.40016   0.44665   0.00000  Uiso   1.00
C28    C     0.72167   0.49383   0.63399   0.00000  Uiso   1.00
C29    C     0.67161   0.49483   0.63330   0.00000  Uiso   1.00
C30    C     0.67211   0.49276   0.38303   0.00000  Uiso   1.00
C31    C     0.72213   0.49165   0.38404   0.00000  Uiso   1.00
C32    C     0.74714   0.49204   0.50938   0.00000  Uiso   1.00
O10    O     0.79705   0.30924   0.39074   0.00000  Uiso   1.00
C33    C     0.02601   0.39979   0.44978   0.00000  Uiso   1.00
C34    C     0.05061   0.50040   0.50010   0.00000  Uiso   1.00
C35    C     0.02493   0.59820   0.55220   0.00000  Uiso   1.00
C36    C     0.05301   0.29973   0.40800   0.00000  Uiso   1.00
H4     H     0.65252   0.49554   0.73220   0.00000  Uiso   1.00
H5     H     0.74085   0.49293   0.73285   0.00000  Uiso   1.00
H6     H     0.96620   0.23868   0.31790   0.00000  Uiso   1.00
H7     H     0.03720   0.21484   0.37800   0.00000  Uiso   1.00
O11    O     0.20291   0.69945   0.58241   0.00000  Uiso   1.00
C37    C     0.10047   0.70437   0.58723   0.00000  Uiso   1.00
H8     H     0.34743   0.47971   0.27512   0.00000  Uiso   1.00
H9     H     0.25907   0.48215   0.27443   0.00000  Uiso   1.00
C38    C     0.94756   0.68056   0.63199   0.00000  Uiso   1.00
C39    C     0.89787   0.67628   0.63531   0.00000  Uiso   1.00
O12    O     0.79851   0.67310   0.63142   0.00000  Uiso   1.00
C40    C     0.05066   0.70100   0.59100   0.00000  Uiso   1.00
H10    H     0.96367   0.75352   0.68995   0.00000  Uiso   1.00
H11    H     0.65350   0.49249   0.28337   0.00000  Uiso   1.00
H12    H     0.87874   0.74714   0.69019   0.00000  Uiso   1.00
H13    H     0.74166   0.49182   0.28579   0.00000  Uiso   1.00
H14    H     0.03333   0.78405   0.62097   0.00000  Uiso   1.00
C41    C     0.50026   0.93162   0.38691   0.00000  Uiso   1.00
C42    C     0.50035   0.86134   0.50187   0.00000  Uiso   1.00
H15    H     0.50076   0.90045   0.60536   0.00000  Uiso   1.00
C43    C     0.50051   0.06551   0.39350   0.00000  Uiso   1.00
C44    C     0.49832   0.13117   0.51145   0.00000  Uiso   1.00
H16    H     0.50253   0.11223   0.29397   0.00000  Uiso   1.00
H17    H     0.49603   0.09044   0.61394   0.00000  Uiso   1.00
C45    C     0.47960   0.41316   0.92449   0.00000  Uiso   1.00
N3     N     0.49806   0.50011   0.85275   0.00000  Uiso   1.00
H18    H     0.46606   0.33352   0.87154   0.00000  Uiso   1.00
H19    H     0.50211   0.58137   0.90349   0.00000  Uiso   1.00
C46    C     0.47410   0.42047   0.07869   0.00000  Uiso   1.00
N4     N     0.50115   0.49054   0.15303   0.00000  Uiso   1.00
H20    H     0.53061   0.52786   0.10331   0.00000  Uiso   1.00
N5     N     0.12398   0.81335   0.62870   0.00000  Uiso   1.00
H21    H     0.11336   0.83264   0.73133   0.00000  Uiso   1.00
H22    H     0.11148   0.88255   0.56369   0.00000  Uiso   1.00
N6     N     0.50040   0.87780   0.25099   0.00000  Uiso   1.00
H23    H     0.53121   0.90858   0.19828   0.00000  Uiso   1.00
H24    H     0.46981   0.90910   0.19753   0.00000  Uiso   1.00
N7     N     0.43879   0.34558   0.14485   0.00000  Uiso   1.00
H25    H     0.44710   0.25604   0.12014   0.00000  Uiso   1.00
H26    H     0.40515   0.36590   0.10031   0.00000  Uiso   1.00
N8     N     0.87555   0.21229   0.30441   0.00000  Uiso   1.00
H27    H     0.88694   0.21399   0.20008   0.00000  Uiso   1.00
H28    H     0.88706   0.13116   0.34925   0.00000  Uiso   1.00
