# Generated by REPEAT Assigner based on pymatgen
data_DB0-m29_o88_o1490_f0_pts.sym.76
_audit_creation_date              2022-05-24
_audit_creation_method            REPEAT_Assigner
_cell_length_a                    15.483902
_cell_length_b                    11.720781
_cell_length_c                    13.621144
_cell_angle_alpha                 88.591244
_cell_angle_beta                  101.838092
_cell_angle_gamma                 106.515044
_cell_volume                      2318.122484
_symmetry_space_group_name_H-M    P1
_symmetry_Int_Tables_number       1
loop_
    _symmetry_equiv_pos_site_id
    _symmetry_equiv_pos_as_xyz
    1  x,y,z
loop_
    _atom_site_type_symbol
    _atom_site_label
    _atom_site_fract_x
    _atom_site_fract_y
    _atom_site_fract_z
    _atom_type_partial_charge
    C   C1   0.810842  0.001182  0.182675  -0.095105
    C   C2   0.893857  0.009567  0.156971  -0.135294
    H   H1   0.955302  0.023031  0.214969  0.101594
    C   C3   0.899641  0.000895  0.058345  0.187982
    C   C4   0.821386  0.983532  0.984062  -0.216764
    H   H2   0.827957  0.980419  0.906813  0.141002
    C   C5   0.736712  0.974921  0.007566  0.073770
    C   C6   0.730963  0.981442  0.108276  -0.039832
    C   C7   0.989613  0.014127  0.032901  -0.156463
    C   C8   0.001277  0.924388  0.982609  -0.165656
    H   H3   0.942449  0.848127  0.956462  0.148025
    C   C9   0.100344  0.897145  0.870806  -0.167653
    H   H4   0.041516  0.881228  0.809068  0.130918
    C   C10  0.185864  0.903752  0.852802  -0.132955
    H   H5   0.193647  0.894916  0.776527  0.155548
    C   C11  0.262513  0.931044  0.930022  -0.031512
    C   C12  0.252227  0.941125  0.028504  0.077226
    C   C13  0.165940  0.936049  0.045313  -0.200709
    H   H6   0.156260  0.946163  0.120591  0.158378
    C   C14  0.091226  0.920369  0.966067  0.180403
    O   O1   0.511081  0.136863  0.752964  -0.589946
    C   C15  0.443627  0.129937  0.674928  0.584663
    O   O2   0.408166  0.070295  0.923927  -0.478479
    O   O3   0.376993  0.029950  0.656493  -0.573477
    O   O4   0.373804  0.889370  0.846333  -0.548459
    C   C16  0.352718  0.962185  0.902815  0.649190
    Fe  Fe1  0.490450  0.974850  0.806088  1.433867
    O   O5   0.581304  0.986632  0.936498  -0.505269
    O   O6   0.664827  0.942592  0.832340  -0.519803
    C   C17  0.656944  0.964297  0.923568  0.509549
    O   O7   0.499832  0.883375  0.688051  -0.532245
    O   O8   0.465197  0.713599  0.775573  -0.493323
    C   C18  0.484590  0.767676  0.693948  0.647057
    O   O9   0.503798  0.058114  0.351365  -0.548088
    O   O10  0.455159  0.186347  0.240584  -0.445481
    C   C19  0.481974  0.158324  0.333423  0.517334
    O   O11  0.412005  0.957803  0.103160  -0.506912
    O   O12  0.312951  0.946219  0.206954  -0.530228
    C   C20  0.328975  0.951595  0.115771  0.531646
    O   O13  0.613999  0.874330  0.373116  -0.448911
    O   O14  0.620670  0.029379  0.189753  -0.622398
    C   C21  0.641345  0.951981  0.137601  0.710568
    O   O15  0.469362  0.797397  0.285027  -0.517861
    C   C22  0.537791  0.786385  0.356022  0.522177
    O   O16  0.582951  0.845975  0.114757  -0.532467
    Fe  Fe2  0.502422  0.959544  0.232273  1.441200
    C   C23  0.510310  0.765926  0.523721  -0.023792
    C   C24  0.491666  0.702437  0.606724  -0.097358
    C   C25  0.480791  0.581232  0.605723  -0.035603
    C   C26  0.516697  0.710467  0.439625  -0.187226
    C   C27  0.507055  0.589702  0.437948  0.584781
    C   C28  0.490023  0.523012  0.521367  -0.304037
    C   C29  0.482122  0.400514  0.517172  0.385698
    C   C30  0.471229  0.329309  0.600230  -0.373423
    C   C31  0.458425  0.208959  0.591676  0.117962
    N   N1   0.517251  0.538663  0.355694  -0.509155
    C   C32  0.508608  0.421777  0.349229  0.245192
    C   C33  0.487648  0.348673  0.427874  -0.207083
    C   C34  0.475180  0.225455  0.420728  0.072227
    C   C35  0.458094  0.158082  0.502497  -0.185119
    H   H7   0.520160  0.388498  0.281756  0.079986
    H   H8   0.519048  0.860649  0.522019  0.132860
    H   H9   0.446529  0.062864  0.498805  0.185915
    H   H10  0.464463  0.535843  0.671858  0.095745
    H   H11  0.471420  0.362670  0.673031  0.223558
    C   C36  0.810776  0.011231  0.289851  0.296394
    C   C37  0.857124  0.954978  0.363213  -0.205594
    C   C38  0.848641  0.997236  0.451529  -0.170765
    C   C39  0.798833  0.077471  0.426184  -0.005018
    O   O17  0.776170  0.087224  0.327778  -0.078981
    H   H12  0.893657  0.891436  0.353246  0.160740
    H   H13  0.876292  0.973771  0.526220  0.160649
    H   H14  0.780548  0.128188  0.479791  0.142639
    C   C40  0.062252  0.127955  0.060605  0.365383
    C   C41  0.121349  0.186940  0.000735  -0.198161
    C   C42  0.170791  0.290984  0.051218  -0.171374
    C   C43  0.137902  0.289524  0.137560  -0.011547
    O   O18  0.071042  0.191310  0.143198  -0.133464
    H   H15  0.125930  0.159759  0.927200  0.153369
    H   H16  0.223646  0.361441  0.027393  0.178955
    H   H17  0.162218  0.360793  0.194206  0.148843
