# Generated by REPEAT Assigner based on pymatgen
data_DB0-m2_o3_o15_f0_nbo.sym.2
_audit_creation_date              2022-05-24
_audit_creation_method            REPEAT_Assigner
_cell_length_a                    38.577849
_cell_length_b                    38.577849
_cell_length_c                    21.560442
_cell_angle_alpha                 90.000000
_cell_angle_beta                  90.000000
_cell_angle_gamma                 90.000000
_cell_volume                      32087.337450
_symmetry_space_group_name_H-M    P1
_symmetry_Int_Tables_number       1
loop_
    _symmetry_equiv_pos_site_id
    _symmetry_equiv_pos_as_xyz
    1  x,y,z
loop_
    _atom_site_type_symbol
    _atom_site_label
    _atom_site_fract_x
    _atom_site_fract_y
    _atom_site_fract_z
    _atom_type_partial_charge
    O   O1    0.971394  0.549440  0.516852  -0.580627
    O   O2    0.549440  0.028606  0.516852  -0.580670
    O   O3    0.028606  0.450560  0.516852  -0.580653
    O   O4    0.450560  0.971394  0.516852  -0.580625
    O   O5    0.028606  0.549440  0.483148  -0.580666
    O   O6    0.450560  0.028606  0.483148  -0.580660
    O   O7    0.971394  0.450560  0.483148  -0.580608
    O   O8    0.549440  0.971394  0.483148  -0.580647
    O   O9    0.471394  0.049440  0.016852  -0.580639
    O   O10   0.049440  0.528606  0.016852  -0.580653
    O   O11   0.528606  0.950560  0.016852  -0.580650
    O   O12   0.950560  0.471394  0.016852  -0.580614
    O   O13   0.528606  0.049440  0.983148  -0.580666
    O   O14   0.950560  0.528606  0.983148  -0.580642
    O   O15   0.471394  0.950560  0.983148  -0.580621
    O   O16   0.049440  0.471394  0.983148  -0.580633
    C   C1    0.000000  0.565720  0.500000  0.612109
    C   C2    0.565720  0.000000  0.500000  0.612111
    C   C3    0.000000  0.434280  0.500000  0.611844
    C   C4    0.434280  0.000000  0.500000  0.611841
    C   C5    0.500000  0.065720  0.000000  0.611878
    C   C6    0.065720  0.500000  0.000000  0.611870
    C   C7    0.500000  0.934280  0.000000  0.611911
    C   C8    0.934280  0.500000  0.000000  0.611906
    O   O17   0.971380  0.490523  0.588508  -0.633410
    O   O18   0.490523  0.028620  0.588508  -0.633443
    O   O19   0.028620  0.509477  0.588508  -0.633432
    O   O20   0.509477  0.971380  0.588508  -0.633400
    O   O21   0.028620  0.490523  0.411492  -0.633446
    O   O22   0.509477  0.028620  0.411492  -0.633438
    O   O23   0.971380  0.509477  0.411492  -0.633386
    O   O24   0.490523  0.971380  0.411492  -0.633429
    O   O25   0.471380  0.990523  0.088508  -0.633517
    O   O26   0.990523  0.528620  0.088508  -0.633526
    O   O27   0.528620  0.009477  0.088508  -0.633550
    O   O28   0.009477  0.471380  0.088508  -0.633523
    O   O29   0.528620  0.990523  0.911492  -0.633531
    O   O30   0.009477  0.528620  0.911492  -0.633543
    O   O31   0.471380  0.009477  0.911492  -0.633527
    O   O32   0.990523  0.471380  0.911492  -0.633511
    O   O33   0.049564  0.990664  0.551214  -0.595207
    O   O34   0.990664  0.950436  0.551214  -0.595193
    O   O35   0.950436  0.009336  0.551214  -0.595201
    O   O36   0.009336  0.049564  0.551214  -0.595218
    O   O37   0.950436  0.990664  0.448786  -0.595185
    O   O38   0.009336  0.950436  0.448786  -0.595189
    O   O39   0.049564  0.009336  0.448786  -0.595207
    O   O40   0.990664  0.049564  0.448786  -0.595205
    O   O41   0.549564  0.490664  0.051214  -0.595170
    O   O42   0.490664  0.450436  0.051214  -0.595207
    O   O43   0.450436  0.509336  0.051214  -0.595213
    O   O44   0.509336  0.549564  0.051214  -0.595180
    O   O45   0.450436  0.490664  0.948786  -0.595200
    O   O46   0.509336  0.450436  0.948786  -0.595202
    O   O47   0.549564  0.509336  0.948786  -0.595172
    O   O48   0.490664  0.549564  0.948786  -0.595165
    C   C9    0.000000  0.500000  0.617597  0.879848
    C   C10   0.500000  0.000000  0.617597  0.879834
    C   C11   0.000000  0.500000  0.382403  0.879832
    C   C12   0.500000  0.000000  0.382403  0.879862
    C   C13   0.500000  0.000000  0.117597  0.879974
    C   C14   0.000000  0.500000  0.117597  0.879949
    C   C15   0.500000  0.000000  0.882403  0.879985
    C   C16   0.000000  0.500000  0.882403  0.879982
    Cu  Cu1   0.966127  0.500000  0.500000  0.935542
    Cu  Cu2   0.500000  0.033873  0.500000  0.935499
    Cu  Cu3   0.033873  0.500000  0.500000  0.935537
    Cu  Cu4   0.500000  0.966127  0.500000  0.935438
    Cu  Cu5   0.466127  0.000000  0.000000  0.935551
    Cu  Cu6   0.000000  0.533873  0.000000  0.935641
    Cu  Cu7   0.533873  0.000000  0.000000  0.935609
    Cu  Cu8   0.000000  0.466127  0.000000  0.935593
    Cu  Cu9   0.000000  0.000000  0.560662  0.960959
    Cu  Cu10  0.000000  0.000000  0.439338  0.960980
    Cu  Cu11  0.500000  0.500000  0.060662  0.960990
    Cu  Cu12  0.500000  0.500000  0.939338  0.960951
    C   C17   0.042560  0.453909  0.686573  -0.454035
    C   C18   0.453909  0.957440  0.686573  -0.454040
    C   C19   0.957440  0.546091  0.686573  -0.454015
    C   C20   0.546091  0.042560  0.686573  -0.454024
    C   C21   0.957440  0.453909  0.313427  -0.454031
    C   C22   0.546091  0.957440  0.313427  -0.454039
    C   C23   0.042560  0.546091  0.313427  -0.454009
    C   C24   0.453909  0.042560  0.313427  -0.454059
    C   C25   0.542560  0.953909  0.186573  -0.453965
    C   C26   0.953909  0.457440  0.186573  -0.453943
    C   C27   0.457440  0.046091  0.186573  -0.453973
    C   C28   0.046091  0.542560  0.186573  -0.453939
    C   C29   0.457440  0.953909  0.813427  -0.453995
    C   C30   0.046091  0.457440  0.813427  -0.453993
    C   C31   0.542560  0.046091  0.813427  -0.453991
    C   C32   0.953909  0.542560  0.813427  -0.453984
    C   C33   0.065170  0.432603  0.718131  0.254271
    C   C34   0.432603  0.934830  0.718131  0.254266
    C   C35   0.934830  0.567397  0.718131  0.254290
    C   C36   0.567397  0.065170  0.718131  0.254273
    C   C37   0.934830  0.432603  0.281869  0.254287
    C   C38   0.567397  0.934830  0.281869  0.254306
    C   C39   0.065170  0.567397  0.281869  0.254293
    C   C40   0.432603  0.065170  0.281869  0.254284
    C   C41   0.565170  0.932603  0.218131  0.254216
    C   C42   0.932603  0.434830  0.218131  0.254232
    C   C43   0.434830  0.067397  0.218131  0.254233
    C   C44   0.067397  0.565170  0.218131  0.254230
    C   C45   0.434830  0.932603  0.781869  0.254242
    C   C46   0.067397  0.434830  0.781869  0.254255
    C   C47   0.565170  0.067397  0.781869  0.254239
    C   C48   0.932603  0.565170  0.781869  0.254241
    C   C49   0.022464  0.478267  0.782072  0.163685
    C   C50   0.478267  0.977536  0.782072  0.163666
    C   C51   0.977536  0.521733  0.782072  0.163664
    C   C52   0.521733  0.022464  0.782072  0.163658
    C   C53   0.977536  0.478267  0.217928  0.163645
    C   C54   0.521733  0.977536  0.217928  0.163627
    C   C55   0.022464  0.521733  0.217928  0.163638
    C   C56   0.478267  0.022464  0.217928  0.163648
    C   C57   0.522464  0.978267  0.282072  0.163808
    C   C58   0.978267  0.477536  0.282072  0.163791
    C   C59   0.477536  0.021733  0.282072  0.163802
    C   C60   0.021733  0.522464  0.282072  0.163802
    C   C61   0.477536  0.978267  0.717928  0.163773
    C   C62   0.021733  0.477536  0.717928  0.163787
    C   C63   0.522464  0.021733  0.717928  0.163786
    C   C64   0.978267  0.522464  0.717928  0.163796
    C   C65   0.000000  0.500000  0.814333  -0.262341
    C   C66   0.500000  0.000000  0.814333  -0.262336
    C   C67   0.000000  0.500000  0.185667  -0.262284
    C   C68   0.500000  0.000000  0.185667  -0.262308
    C   C69   0.500000  0.000000  0.314333  -0.262483
    C   C70   0.000000  0.500000  0.314333  -0.262436
    C   C71   0.500000  0.000000  0.685667  -0.262468
    C   C72   0.000000  0.500000  0.685667  -0.262467
    H   H1    0.041521  0.451238  0.636959  0.222535
    H   H2    0.451238  0.958479  0.636959  0.222535
    H   H3    0.958479  0.548762  0.636959  0.222513
    H   H4    0.548762  0.041521  0.636959  0.222514
    H   H5    0.958479  0.451238  0.363041  0.222539
    H   H6    0.548762  0.958479  0.363041  0.222518
    H   H7    0.041521  0.548762  0.363041  0.222515
    H   H8    0.451238  0.041521  0.363041  0.222540
    H   H9    0.541521  0.951238  0.136959  0.222523
    H   H10   0.951238  0.458479  0.136959  0.222520
    H   H11   0.458479  0.048762  0.136959  0.222512
    H   H12   0.048762  0.541521  0.136959  0.222509
    H   H13   0.458479  0.951238  0.863041  0.222530
    H   H14   0.048762  0.458479  0.863041  0.222524
    H   H15   0.541521  0.048762  0.863041  0.222521
    H   H16   0.951238  0.541521  0.863041  0.222533
    C   C73   0.003734  0.878100  0.445115  -0.086568
    C   C74   0.878100  0.996266  0.445115  -0.086551
    C   C75   0.996266  0.121900  0.445115  -0.086561
    C   C76   0.121900  0.003734  0.445115  -0.086547
    C   C77   0.996266  0.878100  0.554885  -0.086549
    C   C78   0.121900  0.996266  0.554885  -0.086474
    C   C79   0.003734  0.121900  0.554885  -0.086570
    C   C80   0.878100  0.003734  0.554885  -0.086558
    C   C81   0.503734  0.378100  0.945116  -0.086300
    C   C82   0.378100  0.496266  0.945115  -0.086479
    C   C83   0.496266  0.621900  0.945115  -0.086373
    C   C84   0.621900  0.503734  0.945115  -0.086250
    C   C85   0.496266  0.378100  0.054885  -0.086477
    C   C86   0.621900  0.496266  0.054885  -0.086371
    C   C87   0.503734  0.621900  0.054885  -0.086244
    C   C88   0.378100  0.503734  0.054885  -0.086296
    H   H17   0.006303  0.891601  0.401455  0.113461
    H   H18   0.891601  0.993697  0.401455  0.113456
    H   H19   0.993697  0.108399  0.401455  0.113460
    H   H20   0.108399  0.006303  0.401455  0.113460
    H   H21   0.993697  0.891601  0.598545  0.113455
    H   H22   0.108399  0.993697  0.598545  0.113435
    H   H23   0.006303  0.108399  0.598545  0.113463
    H   H24   0.891601  0.006303  0.598545  0.113459
    H   H25   0.506303  0.391601  0.901455  0.113371
    H   H26   0.391601  0.493697  0.901455  0.113449
    H   H27   0.493697  0.608399  0.901455  0.113412
    H   H28   0.608399  0.506303  0.901455  0.113359
    H   H29   0.493697  0.391601  0.098545  0.113448
    H   H30   0.608399  0.493697  0.098545  0.113412
    H   H31   0.506303  0.608399  0.098545  0.113359
    H   H32   0.391601  0.506303  0.098545  0.113377
    C   C89   0.003516  0.842372  0.445066  -0.158743
    C   C90   0.842372  0.996484  0.445066  -0.158756
    C   C91   0.996484  0.157628  0.445066  -0.158772
    C   C92   0.157628  0.003516  0.445066  -0.158820
    C   C93   0.996484  0.842372  0.554934  -0.158763
    C   C94   0.157628  0.996484  0.554934  -0.158947
    C   C95   0.003516  0.157628  0.554934  -0.158768
    C   C96   0.842372  0.003516  0.554934  -0.158753
    C   C97   0.503516  0.342372  0.945066  -0.158827
    C   C98   0.342372  0.496484  0.945066  -0.158812
    C   C99   0.496484  0.657628  0.945066  -0.158999
    C   C100  0.657628  0.503516  0.945066  -0.158903
    C   C101  0.496484  0.342372  0.054934  -0.158821
    C   C102  0.657628  0.496484  0.054934  -0.159007
    C   C103  0.503516  0.657628  0.054934  -0.158912
    C   C104  0.342372  0.503516  0.054934  -0.158834
    H   H33   0.005388  0.829000  0.401184  0.112179
    H   H34   0.829000  0.994612  0.401184  0.112180
    H   H35   0.994612  0.171000  0.401184  0.112186
    H   H36   0.171000  0.005388  0.401184  0.112198
    H   H37   0.994612  0.829000  0.598816  0.112183
    H   H38   0.171000  0.994612  0.598816  0.112258
    H   H39   0.005388  0.171000  0.598816  0.112189
    H   H40   0.829000  0.005388  0.598816  0.112183
    H   H41   0.505388  0.329000  0.901184  0.112175
    H   H42   0.329000  0.494612  0.901184  0.112194
    H   H43   0.494612  0.671000  0.901184  0.112270
    H   H44   0.671000  0.505388  0.901184  0.112191
    H   H45   0.494612  0.329000  0.098816  0.112196
    H   H46   0.671000  0.494612  0.098816  0.112273
    H   H47   0.505388  0.671000  0.098816  0.112194
    H   H48   0.329000  0.505388  0.098816  0.112174
    C   C105  0.000000  0.824168  0.500000  0.100514
    C   C106  0.824168  0.000000  0.500000  0.100515
    C   C107  0.000000  0.175832  0.500000  0.100523
    C   C108  0.175832  0.000000  0.500000  0.100657
    C   C109  0.500000  0.324168  0.000000  0.100523
    C   C110  0.324168  0.500000  0.000000  0.100519
    C   C111  0.500000  0.675832  0.000000  0.100660
    C   C112  0.675832  0.500000  0.000000  0.100660
    C   C113  0.000000  0.896171  0.500000  -0.031379
    C   C114  0.896171  0.000000  0.500000  -0.031382
    C   C115  0.000000  0.103829  0.500000  -0.031315
    C   C116  0.103829  0.000000  0.500000  -0.031334
    C   C117  0.500000  0.396171  0.000000  -0.031503
    C   C118  0.396171  0.500000  0.000000  -0.031509
    C   C119  0.500000  0.603829  0.000000  -0.031531
    C   C120  0.603829  0.500000  0.000000  -0.031529
    C   C121  0.979146  0.767787  0.540736  -0.133600
    C   C122  0.767787  0.020854  0.540736  -0.133623
    C   C123  0.020854  0.232213  0.540736  -0.133591
    C   C124  0.232213  0.979146  0.540736  -0.133525
    C   C125  0.020854  0.767787  0.459264  -0.133623
    C   C126  0.232213  0.020854  0.459264  -0.133576
    C   C127  0.979146  0.232213  0.459264  -0.133566
    C   C128  0.767787  0.979146  0.459264  -0.133598
    C   C129  0.479146  0.267787  0.040736  -0.133595
    C   C130  0.267787  0.520854  0.040736  -0.133584
    C   C131  0.520854  0.732213  0.040736  -0.133542
    C   C132  0.732213  0.479146  0.040736  -0.133523
    C   C133  0.520854  0.267787  0.959264  -0.133585
    C   C134  0.732213  0.520854  0.959264  -0.133541
    C   C135  0.479146  0.732213  0.959264  -0.133524
    C   C136  0.267787  0.479146  0.959264  -0.133594
    H   H49   0.962031  0.781150  0.572353  0.111193
    H   H50   0.781150  0.037969  0.572353  0.111197
    H   H51   0.037969  0.218850  0.572353  0.111188
    H   H52   0.218850  0.962031  0.572353  0.111167
    H   H53   0.037969  0.781150  0.427647  0.111197
    H   H54   0.218850  0.037969  0.427647  0.111182
    H   H55   0.962031  0.218850  0.427647  0.111183
    H   H56   0.781150  0.962031  0.427647  0.111191
    H   H57   0.462031  0.281150  0.072353  0.111191
    H   H58   0.281150  0.537969  0.072353  0.111193
    H   H59   0.537969  0.718850  0.072353  0.111180
    H   H60   0.718850  0.462031  0.072353  0.111168
    H   H61   0.537969  0.281150  0.927647  0.111192
    H   H62   0.718850  0.537969  0.927647  0.111180
    H   H63   0.462031  0.718850  0.927647  0.111167
    H   H64   0.281150  0.462031  0.927647  0.111191
    C   C137  0.979253  0.732063  0.540911  -0.154003
    C   C138  0.732063  0.020747  0.540911  -0.153998
    C   C139  0.020747  0.267937  0.540911  -0.154027
    C   C140  0.267937  0.979253  0.540911  -0.154058
    C   C141  0.020747  0.732063  0.459089  -0.153993
    C   C142  0.267937  0.020747  0.459089  -0.154025
    C   C143  0.979253  0.267937  0.459089  -0.154030
    C   C144  0.732063  0.979253  0.459089  -0.154002
    C   C145  0.479253  0.232063  0.040911  -0.154026
    C   C146  0.232063  0.520747  0.040911  -0.154036
    C   C147  0.520747  0.767937  0.040911  -0.154064
    C   C148  0.767937  0.479253  0.040911  -0.154076
    C   C149  0.520747  0.232063  0.959089  -0.154030
    C   C150  0.767937  0.520747  0.959089  -0.154058
    C   C151  0.479253  0.767937  0.959089  -0.154070
    C   C152  0.232063  0.479253  0.959089  -0.154017
    H   H65   0.963238  0.718698  0.574321  0.116850
    H   H66   0.718698  0.036762  0.574321  0.116854
    H   H67   0.036762  0.281302  0.574321  0.116862
    H   H68   0.281302  0.963238  0.574321  0.116864
    H   H69   0.036762  0.718698  0.425679  0.116852
    H   H70   0.281302  0.036762  0.425679  0.116861
    H   H71   0.963238  0.281302  0.425679  0.116858
    H   H72   0.718698  0.963238  0.425679  0.116849
    H   H73   0.463238  0.218698  0.074321  0.116859
    H   H74   0.218698  0.536762  0.074321  0.116861
    H   H75   0.536762  0.781302  0.074321  0.116869
    H   H76   0.781302  0.463238  0.074321  0.116868
    H   H77   0.536762  0.218698  0.925679  0.116860
    H   H78   0.781302  0.536762  0.925679  0.116866
    H   H79   0.463238  0.781302  0.925679  0.116867
    H   H80   0.218698  0.463238  0.925679  0.116856
    C   C153  0.000000  0.713852  0.500000  0.092821
    C   C154  0.713852  0.000000  0.500000  0.092825
    C   C155  0.000000  0.286148  0.500000  0.092853
    C   C156  0.286148  0.000000  0.500000  0.092872
    C   C157  0.500000  0.213852  0.000000  0.092856
    C   C158  0.213852  0.500000  0.000000  0.092855
    C   C159  0.500000  0.786148  0.000000  0.092883
    C   C160  0.786148  0.500000  0.000000  0.092881
    C   C161  0.000000  0.785999  0.500000  0.063380
    C   C162  0.785999  0.000000  0.500000  0.063378
    C   C163  0.000000  0.214001  0.500000  0.063355
    C   C164  0.214001  0.000000  0.500000  0.063283
    C   C165  0.500000  0.285999  0.000000  0.063380
    C   C166  0.285999  0.500000  0.000000  0.063381
    C   C167  0.500000  0.714001  0.000000  0.063294
    C   C168  0.714001  0.500000  0.000000  0.063295
    C   C169  0.030254  0.657485  0.488714  -0.148707
    C   C170  0.657485  0.969746  0.488714  -0.148725
    C   C171  0.969746  0.342515  0.488714  -0.148606
    C   C172  0.342515  0.030254  0.488714  -0.148625
    C   C173  0.969746  0.657485  0.511286  -0.148723
    C   C174  0.342515  0.969746  0.511286  -0.148595
    C   C175  0.030254  0.342515  0.511286  -0.148630
    C   C176  0.657485  0.030254  0.511286  -0.148713
    C   C177  0.530254  0.157485  0.988714  -0.148660
    C   C178  0.157485  0.469746  0.988714  -0.148631
    C   C179  0.469746  0.842515  0.988714  -0.148595
    C   C180  0.842515  0.530254  0.988714  -0.148628
    C   C181  0.469746  0.157485  0.011286  -0.148627
    C   C182  0.842515  0.469746  0.011286  -0.148590
    C   C183  0.530254  0.842515  0.011286  -0.148622
    C   C184  0.157485  0.530254  0.011286  -0.148660
    H   H81   0.054500  0.670857  0.481313  0.103993
    H   H82   0.670857  0.945500  0.481313  0.103999
    H   H83   0.945500  0.329143  0.481313  0.103974
    H   H84   0.329143  0.054500  0.481313  0.103978
    H   H85   0.945500  0.670857  0.518687  0.103999
    H   H86   0.329143  0.945500  0.518687  0.103974
    H   H87   0.054500  0.329143  0.518687  0.103980
    H   H88   0.670857  0.054500  0.518687  0.103993
    H   H89   0.554500  0.170857  0.981313  0.103988
    H   H90   0.170857  0.445500  0.981313  0.103979
    H   H91   0.445500  0.829143  0.981313  0.103973
    H   H92   0.829143  0.554500  0.981313  0.103978
    H   H93   0.445500  0.170857  0.018687  0.103978
    H   H94   0.829143  0.445500  0.018687  0.103972
    H   H95   0.554500  0.829143  0.018687  0.103977
    H   H96   0.170857  0.554500  0.018687  0.103988
    C   C185  0.030220  0.621763  0.488411  -0.085009
    C   C186  0.621763  0.969780  0.488411  -0.084913
    C   C187  0.969780  0.378237  0.488411  -0.085236
    C   C188  0.378237  0.030220  0.488411  -0.085241
    C   C189  0.969780  0.621763  0.511589  -0.084911
    C   C190  0.378237  0.969780  0.511589  -0.085254
    C   C191  0.030220  0.378237  0.511589  -0.085232
    C   C192  0.621763  0.030220  0.511589  -0.085004
    C   C193  0.530220  0.121763  0.988411  -0.085178
    C   C194  0.121763  0.469780  0.988411  -0.085199
    C   C195  0.469780  0.878237  0.988411  -0.085229
    C   C196  0.878237  0.530220  0.988411  -0.085202
    C   C197  0.469780  0.121763  0.011589  -0.085203
    C   C198  0.878237  0.469780  0.011589  -0.085238
    C   C199  0.530220  0.878237  0.011589  -0.085211
    C   C200  0.121763  0.530220  0.011589  -0.085178
    H   H97   0.054288  0.608295  0.479732  0.120045
    H   H98   0.608295  0.945712  0.479732  0.119982
    H   H99   0.945712  0.391705  0.479732  0.120112
    H   H100  0.391705  0.054289  0.479732  0.120116
    H   H101  0.945712  0.608295  0.520268  0.119979
    H   H102  0.391705  0.945711  0.520268  0.120116
    H   H103  0.054289  0.391705  0.520268  0.120113
    H   H104  0.608295  0.054288  0.520268  0.120044
    H   H105  0.554288  0.108295  0.979732  0.120101
    H   H106  0.108295  0.445712  0.979732  0.120102
    H   H107  0.445712  0.891705  0.979732  0.120110
    H   H108  0.891705  0.554288  0.979732  0.120107
    H   H109  0.445712  0.108295  0.020268  0.120102
    H   H110  0.891705  0.445711  0.020268  0.120111
    H   H111  0.554289  0.891705  0.020268  0.120110
    H   H112  0.108295  0.554288  0.020268  0.120099
    C   C201  0.000000  0.603691  0.500000  -0.029611
    C   C202  0.603691  0.000000  0.500000  -0.029607
    C   C203  0.000000  0.396309  0.500000  -0.029159
    C   C204  0.396309  0.000000  0.500000  -0.029139
    C   C205  0.500000  0.103691  0.000000  -0.029207
    C   C206  0.103691  0.500000  0.000000  -0.029209
    C   C207  0.500000  0.896309  0.000000  -0.029215
    C   C208  0.896309  0.500000  0.000000  -0.029219
    C   C209  0.065849  0.000000  0.500000  0.668060
    C   C210  0.000000  0.934151  0.500000  0.668139
    C   C211  0.934151  0.000000  0.500000  0.668141
    C   C212  0.000000  0.065849  0.500000  0.668074
    C   C213  0.565849  0.500000  0.000000  0.668043
    C   C214  0.500000  0.434151  0.000000  0.668108
    C   C215  0.434151  0.500000  0.000000  0.668113
    C   C216  0.500000  0.565849  0.000000  0.668045
    C   C217  0.000000  0.675686  0.500000  0.083549
    C   C218  0.675686  0.000000  0.500000  0.083550
    C   C219  0.000000  0.324314  0.500000  0.083484
    C   C220  0.324314  0.000000  0.500000  0.083472
    C   C221  0.500000  0.175686  0.000000  0.083497
    C   C222  0.175686  0.500000  0.000000  0.083498
    C   C223  0.500000  0.824314  0.000000  0.083473
    C   C224  0.824314  0.500000  0.000000  0.083476
    C   C225  0.912839  0.592395  0.682717  -0.453564
    H   H113  0.918168  0.590471  0.632330  0.130897
    H   H114  0.885034  0.586546  0.690426  0.123845
    H   H115  0.918604  0.619268  0.697756  0.114020
    C   C226  0.592395  0.087161  0.682717  -0.453526
    H   H116  0.590471  0.081831  0.632330  0.130869
    H   H117  0.586546  0.114966  0.690426  0.123839
    H   H118  0.619268  0.081396  0.697756  0.114016
    C   C227  0.087161  0.407605  0.682717  -0.453471
    H   H119  0.081832  0.409529  0.632330  0.130846
    H   H120  0.114966  0.413454  0.690426  0.123823
    H   H121  0.081396  0.380732  0.697756  0.114005
    C   C228  0.407605  0.912839  0.682717  -0.453454
    H   H122  0.409529  0.918168  0.632330  0.130836
    H   H123  0.413454  0.885034  0.690426  0.123817
    H   H124  0.380732  0.918604  0.697756  0.114000
    C   C229  0.087161  0.592395  0.317283  -0.453527
    H   H125  0.081832  0.590471  0.367670  0.130872
    H   H126  0.114966  0.586546  0.309574  0.123840
    H   H127  0.081396  0.619268  0.302244  0.114015
    C   C230  0.407605  0.087161  0.317283  -0.453487
    H   H128  0.409529  0.081832  0.367670  0.130848
    H   H129  0.413454  0.114966  0.309574  0.123827
    H   H130  0.380732  0.081396  0.302244  0.114009
    C   C231  0.912839  0.407605  0.317283  -0.453461
    H   H131  0.918168  0.409529  0.367670  0.130838
    H   H132  0.885034  0.413454  0.309574  0.123821
    H   H133  0.918604  0.380732  0.302244  0.114003
    C   C232  0.592395  0.912839  0.317283  -0.453579
    H   H134  0.590471  0.918168  0.367670  0.130900
    H   H135  0.586546  0.885034  0.309574  0.123847
    H   H136  0.619268  0.918604  0.302244  0.114023
    C   C233  0.412839  0.092395  0.182717  -0.453481
    H   H137  0.418168  0.090471  0.132330  0.130847
    H   H138  0.385034  0.086546  0.190426  0.123829
    H   H139  0.418604  0.119268  0.197756  0.114007
    C   C234  0.092395  0.587161  0.182717  -0.453480
    H   H140  0.090471  0.581832  0.132330  0.130849
    H   H141  0.086546  0.614966  0.190426  0.123833
    H   H142  0.119268  0.581396  0.197756  0.114009
    C   C235  0.587161  0.907605  0.182717  -0.453459
    H   H143  0.581832  0.909529  0.132330  0.130838
    H   H144  0.614966  0.913454  0.190426  0.123828
    H   H145  0.581396  0.880732  0.197756  0.114003
    C   C236  0.907605  0.412839  0.182717  -0.453455
    H   H146  0.909529  0.418168  0.132330  0.130837
    H   H147  0.913454  0.385034  0.190426  0.123826
    H   H148  0.880732  0.418604  0.197756  0.114000
    C   C237  0.587161  0.092395  0.817283  -0.453505
    H   H149  0.581831  0.090471  0.867670  0.130850
    H   H150  0.614966  0.086546  0.809574  0.123839
    H   H151  0.581396  0.119268  0.802244  0.114017
    C   C238  0.907605  0.587161  0.817283  -0.453471
    H   H152  0.909529  0.581832  0.867670  0.130841
    H   H153  0.913454  0.614966  0.809574  0.123832
    H   H154  0.880732  0.581396  0.802244  0.114006
    C   C239  0.412839  0.907605  0.817283  -0.453474
    H   H155  0.418168  0.909529  0.867670  0.130840
    H   H156  0.385034  0.913454  0.809574  0.123828
    H   H157  0.418604  0.880732  0.802244  0.114004
    C   C240  0.092395  0.412839  0.817283  -0.453489
    H   H158  0.090471  0.418168  0.867670  0.130848
    H   H159  0.086546  0.385034  0.809574  0.123832
    H   H160  0.119268  0.418604  0.802244  0.114010
