# Generated by REPEAT Assigner based on pymatgen
data_DB0-m2_o19_o25_f0_pcu.sym.47_sqe
_audit_creation_date              2022-05-24
_audit_creation_method            REPEAT_Assigner
_cell_length_a                    15.936091
_cell_length_b                    11.824150
_cell_length_c                    10.403283
_cell_angle_alpha                 90.000000
_cell_angle_beta                  90.003826
_cell_angle_gamma                 90.000000
_cell_volume                      1960.298161
_symmetry_space_group_name_H-M    P1
_symmetry_Int_Tables_number       1
loop_
    _symmetry_equiv_pos_site_id
    _symmetry_equiv_pos_as_xyz
    1  x,y,z
loop_
    _atom_site_type_symbol
    _atom_site_label
    _atom_site_fract_x
    _atom_site_fract_y
    _atom_site_fract_z
    _atom_type_partial_charge
    O   O1   0.502870  0.362293  0.610716  -0.600830
    O   O2   0.497070  0.690991  0.389512  -0.610938
    O   O3   0.497130  0.362293  0.389284  -0.600767
    O   O4   0.502930  0.690991  0.610488  -0.611002
    C   C1   0.500000  0.188294  0.500000  -0.330831
    C   C2   0.500000  0.865058  0.500000  -0.205229
    C   C3   0.500000  0.309655  0.500000  0.930514
    C   C4   0.500000  0.743696  0.500000  0.825557
    O   O5   0.378030  0.523085  0.609982  -0.590980
    O   O6   0.621970  0.523085  0.390019  -0.590876
    O   O7   0.378081  0.523002  0.388809  -0.586220
    O   O8   0.621919  0.523002  0.611191  -0.586287
    C   C5   0.338977  0.526164  0.499345  0.750698
    C   C6   0.661023  0.526164  0.500655  0.750678
    Cu  Cu1  0.499945  0.526655  0.628676  0.933027
    Cu  Cu2  0.500054  0.526655  0.371324  0.933446
    C   C7   0.500000  0.086384  0.500000  0.140283
    C   C8   0.500000  0.966967  0.500000  0.019630
    C   C9   0.972436  0.429420  0.560607  -0.224145
    C   C10  0.027313  0.614372  0.439460  -0.237236
    C   C11  0.027564  0.429420  0.439393  -0.224153
    C   C12  0.972687  0.614372  0.560540  -0.237235
    H   H1   0.050920  0.354596  0.385979  0.110918
    H   H2   0.949813  0.689205  0.614407  0.105186
    H   H3   0.949080  0.354596  0.614021  0.110915
    H   H4   0.050186  0.689204  0.385593  0.105185
    C   C13  0.248937  0.524590  0.499139  -0.122511
    C   C14  0.751062  0.524590  0.500861  -0.122533
    C   C15  0.027398  0.521763  0.615236  0.478242
    C   C16  0.972602  0.521763  0.384764  0.478269
    C   C17  0.081492  0.522124  0.497616  0.429962
    C   C18  0.918508  0.522124  0.502384  0.429957
    N   N1   0.500275  0.526628  0.179077  -0.125716
    N   N2   0.499725  0.526628  0.820923  -0.125646
    C   C19  0.173329  0.523400  0.498600  -0.282727
    C   C20  0.826671  0.523400  0.501400  -0.282706
    C   C21  0.500120  0.526623  0.067863  0.220660
    C   C22  0.499879  0.526623  0.932137  0.220596
    O   O9   0.942653  0.524084  0.260972  -0.553399
    C   C23  0.896226  0.439091  0.211623  0.847166
    O   O10  0.880098  0.355741  0.276042  -0.552182
    C   C24  0.864782  0.446953  0.077136  -0.533124
    H   H5   0.885654  0.527973  0.033989  0.135163
    H   H6   0.795244  0.443324  0.077190  0.167563
    H   H7   0.890032  0.375418  0.020067  0.151225
    O   O11  0.057347  0.524085  0.739028  -0.553396
    C   C25  0.103774  0.439091  0.788377  0.847188
    O   O12  0.119902  0.355742  0.723959  -0.552181
    C   C26  0.135217  0.446954  0.922864  -0.533148
    H   H8   0.114346  0.527974  0.966011  0.135170
    H   H9   0.204756  0.443325  0.922811  0.167570
    H   H10  0.109968  0.375419  0.979934  0.151228
