# Generated by REPEAT Assigner based on pymatgen
data_DB0-m2_o6_o10_f0_pcu.sym.125_sqe
_audit_creation_date              2022-05-24
_audit_creation_method            REPEAT_Assigner
_cell_length_a                    9.022220
_cell_length_b                    16.041929
_cell_length_c                    14.608088
_cell_angle_alpha                 90.009396
_cell_angle_beta                  98.075643
_cell_angle_gamma                 89.990260
_cell_volume                      2093.317723
_symmetry_space_group_name_H-M    P1
_symmetry_Int_Tables_number       1
loop_
    _symmetry_equiv_pos_site_id
    _symmetry_equiv_pos_as_xyz
    1  x,y,z
loop_
    _atom_site_type_symbol
    _atom_site_label
    _atom_site_fract_x
    _atom_site_fract_y
    _atom_site_fract_z
    _atom_type_partial_charge
    O   O1   0.510001  0.370760  0.579135  -0.623742
    O   O2   0.492467  0.613078  0.420736  -0.610490
    O   O3   0.490229  0.370794  0.420774  -0.616594
    O   O4   0.507659  0.613044  0.579410  -0.609307
    C   C1   0.500121  0.331861  0.499939  0.853957
    C   C2   0.500056  0.651894  0.500088  0.819041
    O   O5   0.286117  0.493850  0.562770  -0.455059
    O   O6   0.714060  0.493875  0.437260  -0.454095
    O   O7   0.279159  0.495266  0.405863  -0.509150
    O   O8   0.721020  0.495224  0.594168  -0.499282
    C   C3   0.210672  0.494222  0.479549  0.585463
    C   C4   0.789505  0.494211  0.520481  0.575775
    Cu  Cu1  0.504090  0.491866  0.591700  0.852671
    Cu  Cu2  0.496090  0.491907  0.408327  0.855689
    C   C5   0.043640  0.498878  0.464880  -0.088314
    C   C6   0.956535  0.498872  0.535152  -0.098818
    H   H1   0.500174  0.068640  0.645819  0.141743
    H   H2   0.499987  0.915118  0.354208  0.142958
    C   C7   0.500118  0.948946  0.581793  -0.184947
    C   C8   0.500043  0.034812  0.418233  -0.179556
    H   H3   0.500148  0.915291  0.645901  0.142910
    H   H4   0.500014  0.068466  0.354126  0.142636
    C   C9   0.500066  0.905916  0.500059  0.261191
    C   C10  0.500097  0.077841  0.499967  0.264301
    C   C11  0.500028  0.948849  0.418279  -0.184414
    C   C12  0.500133  0.034908  0.581747  -0.178114
    C   C13  0.500057  0.816463  0.500102  -0.094927
    C   C14  0.500110  0.167293  0.499925  -0.103311
    C   C15  0.500118  0.242409  0.499913  -0.239531
    C   C16  0.500054  0.741347  0.500114  -0.239754
    H   H5   0.596366  0.612365  0.094078  0.153890
    H   H6   0.403869  0.371138  0.905953  0.143276
    C   C17  0.558638  0.559200  0.958773  -0.159725
    C   C18  0.441605  0.424300  0.041261  -0.190987
    H   H7   0.604280  0.612129  0.926437  0.158217
    H   H8   0.395951  0.371374  0.073596  0.162660
    C   C19  0.504908  0.491527  0.906068  0.197011
    C   C20  0.495330  0.491977  0.093964  0.234744
    C   C21  0.446294  0.424110  0.947307  -0.125895
    C   C22  0.553950  0.559389  0.052725  -0.168913
    C   C23  0.508082  0.491649  0.808121  0.105280
    C   C24  0.492119  0.491881  0.191908  0.097411
    N   N1   0.490801  0.491835  0.270995  -0.173480
    N   N2   0.509379  0.491744  0.729032  -0.176449
    C   C25  0.979291  0.505752  0.363697  -0.128932
    C   C26  0.976305  0.421164  0.315620  0.561071
    C   C27  0.858743  0.363899  0.346188  -0.398844
    C   C28  0.944455  0.433248  0.211691  -0.480459
    H   H9   0.053299  0.547172  0.329774  0.033733
    H   H10  0.873196  0.539881  0.348213  0.041590
    H   H11  0.087002  0.390733  0.332552  -0.070035
    H   H12  0.745113  0.386722  0.319062  0.101330
    H   H13  0.873359  0.359578  0.422633  0.064616
    H   H14  0.872349  0.300642  0.317870  0.050563
    H   H15  0.837166  0.467052  0.193310  0.095050
    H   H16  0.937105  0.371622  0.176942  0.090966
    H   H17  0.036226  0.469598  0.187708  0.072644
    C   C29  0.020881  0.505749  0.636336  -0.108649
    C   C30  0.023918  0.421163  0.684392  0.534681
    C   C31  0.141510  0.363897  0.653807  -0.364814
    C   C32  0.055767  0.433252  0.788324  -0.487346
    H   H18  0.946843  0.547167  0.670269  0.034848
    H   H19  0.126959  0.539878  0.651824  0.031749
    H   H20  0.913239  0.390730  0.667454  -0.065772
    H   H21  0.255128  0.386716  0.680944  0.102225
    H   H22  0.126902  0.359577  0.577361  0.051066
    H   H23  0.127930  0.300639  0.682102  0.042155
    H   H24  0.163025  0.467069  0.806711  0.098332
    H   H25  0.063177  0.371628  0.823056  0.098016
    H   H26  0.963966  0.469591  0.812320  0.074246
