# Generated by REPEAT Assigner based on pymatgen
data_DB0-m2_o6_o28_f0_nbo.sym.11_sqe
_audit_creation_date              2022-05-24
_audit_creation_method            REPEAT_Assigner
_cell_length_a                    31.960599
_cell_length_b                    31.961486
_cell_length_c                    46.700477
_cell_angle_alpha                 90.000000
_cell_angle_beta                  90.000000
_cell_angle_gamma                 90.000000
_cell_volume                      47704.923152
_symmetry_space_group_name_H-M    P1
_symmetry_Int_Tables_number       1
loop_
    _symmetry_equiv_pos_site_id
    _symmetry_equiv_pos_as_xyz
    1  x,y,z
loop_
    _atom_site_type_symbol
    _atom_site_label
    _atom_site_fract_x
    _atom_site_fract_y
    _atom_site_fract_z
    _atom_type_partial_charge
    O   O1    0.059620  0.534990  0.992006  -0.641395
    O   O2    0.465538  0.059170  0.991990  -0.641548
    O   O3    0.940382  0.466055  0.991993  -0.642718
    O   O4    0.534474  0.939936  0.992008  -0.641576
    O   O5    0.059617  0.466056  0.008007  -0.642739
    O   O6    0.465529  0.939936  0.007992  -0.641564
    O   O7    0.940378  0.534990  0.007994  -0.641395
    O   O8    0.534465  0.059170  0.008010  -0.641541
    O   O9    0.559650  0.034457  0.492053  -0.641232
    O   O10   0.965525  0.559648  0.492041  -0.641251
    O   O11   0.440356  0.965507  0.492042  -0.641098
    O   O12   0.034478  0.440358  0.492055  -0.641208
    O   O13   0.559646  0.965506  0.507958  -0.641092
    O   O14   0.965518  0.440357  0.507945  -0.641234
    O   O15   0.440354  0.034457  0.507947  -0.641262
    O   O16   0.034470  0.559648  0.507959  -0.641250
    C   C1    0.079109  0.500523  0.000009  0.997353
    C   C2    0.500002  0.078659  0.000000  0.999659
    C   C3    0.920890  0.500523  0.999991  0.997364
    C   C4    0.500001  0.920447  0.000000  0.996606
    C   C5    0.579208  0.999981  0.500007  0.995166
    C   C6    0.999998  0.579209  0.500000  0.995192
    C   C7    0.420795  0.999982  0.499993  0.995213
    C   C8    0.999998  0.420797  0.500000  0.995072
    O   O17   0.011680  0.534841  0.040842  -0.563496
    O   O18   0.465660  0.011246  0.040831  -0.562920
    O   O19   0.988299  0.466203  0.040838  -0.563946
    O   O20   0.534300  0.987863  0.040849  -0.562988
    O   O21   0.011700  0.466203  0.959162  -0.563924
    O   O22   0.465703  0.987863  0.959151  -0.563008
    O   O23   0.988319  0.534841  0.959158  -0.563446
    O   O24   0.534343  0.011245  0.959169  -0.563015
    O   O25   0.511619  0.034314  0.540851  -0.562969
    O   O26   0.965647  0.511627  0.540842  -0.563119
    O   O27   0.488369  0.965649  0.540848  -0.562820
    O   O28   0.034314  0.488379  0.540857  -0.563063
    O   O29   0.511634  0.965649  0.459152  -0.562819
    O   O30   0.965682  0.488379  0.459143  -0.563028
    O   O31   0.488384  0.034314  0.459149  -0.563014
    O   O32   0.034349  0.511627  0.459158  -0.563092
    C   C9    0.999989  0.500519  0.054514  0.751471
    C   C10   0.499975  0.999563  0.054513  0.749288
    C   C11   0.000010  0.500520  0.945486  0.751310
    C   C12   0.500028  0.999563  0.945487  0.749446
    C   C13   0.499992  0.999981  0.554525  0.749914
    C   C14   0.999976  0.500008  0.554525  0.750495
    C   C15   0.500011  0.999981  0.445475  0.749971
    C   C16   0.000020  0.500008  0.445475  0.750433
    Cu  Cu1   0.999999  0.541296  0.000000  0.971092
    Cu  Cu2   0.459227  0.999553  0.999990  0.970726
    Cu  Cu3   0.000000  0.459749  0.000000  0.972718
    Cu  Cu4   0.540776  0.999553  0.000010  0.970745
    Cu  Cu5   0.500002  0.040759  0.500000  0.970688
    Cu  Cu6   0.959219  0.500003  0.499992  0.970602
    Cu  Cu7   0.500001  0.959204  0.500000  0.970416
    Cu  Cu8   0.040777  0.500003  0.500008  0.970581
    C   C17   0.025880  0.474162  0.309177  0.397337
    C   C18   0.525983  0.025765  0.309182  0.398659
    C   C19   0.974193  0.526216  0.309220  0.397401
    C   C20   0.473936  0.974071  0.309215  0.397423
    C   C21   0.025807  0.526213  0.690780  0.397215
    C   C22   0.526070  0.974074  0.690785  0.396970
    C   C23   0.974113  0.474166  0.690823  0.397137
    C   C24   0.474017  0.025762  0.690818  0.398462
    C   C25   0.525790  0.973627  0.809192  0.396607
    C   C26   0.026082  0.526144  0.809189  0.396133
    C   C27   0.474310  0.025887  0.809227  0.396857
    C   C28   0.973816  0.474670  0.809231  0.398109
    C   C29   0.525690  0.025890  0.190773  0.396223
    C   C30   0.026178  0.474666  0.190770  0.398660
    C   C31   0.474216  0.973624  0.190808  0.396680
    C   C32   0.973919  0.526146  0.190811  0.396682
    N   N1    0.000034  0.500162  0.323502  0.019781
    N   N2    0.499964  0.999933  0.323502  0.019384
    N   N3    0.999962  0.500162  0.676498  0.019960
    N   N4    0.500039  0.999933  0.676498  0.019665
    N   N5    0.500048  0.999735  0.823514  0.019651
    N   N6    0.999951  0.500430  0.823514  0.018999
    N   N7    0.499955  0.999735  0.176486  0.020306
    N   N8    0.000047  0.500429  0.176486  0.018157
    O   O33   0.498205  0.438776  0.024682  -0.611471
    O   O34   0.560726  0.501079  0.024545  -0.610791
    O   O35   0.498274  0.560346  0.024741  -0.597738
    O   O36   0.439149  0.501151  0.024870  -0.593042
    O   O37   0.501725  0.560346  0.975259  -0.597746
    O   O38   0.560849  0.501151  0.975130  -0.593034
    O   O39   0.501794  0.438776  0.975318  -0.611501
    O   O40   0.439273  0.501079  0.975455  -0.610809
    O   O41   0.988543  0.940325  0.523670  -0.623079
    O   O42   0.059681  0.988541  0.523667  -0.623120
    O   O43   0.011464  0.059679  0.523669  -0.623102
    O   O44   0.940325  0.011462  0.523672  -0.623086
    O   O45   0.988539  0.059678  0.476331  -0.623072
    O   O46   0.059678  0.011462  0.476328  -0.623036
    O   O47   0.011460  0.940325  0.476330  -0.623041
    O   O48   0.940322  0.988541  0.476333  -0.623085
    C   C33   0.973717  0.526499  0.279621  -0.109541
    C   C34   0.473703  0.973556  0.279616  -0.109164
    C   C35   0.026365  0.473991  0.279578  -0.110896
    C   C36   0.526203  0.026211  0.279582  -0.110348
    C   C37   0.973628  0.473995  0.720422  -0.110551
    C   C38   0.473797  0.026207  0.720418  -0.110180
    C   C39   0.026283  0.526496  0.720379  -0.109438
    C   C40   0.526304  0.973559  0.720383  -0.108683
    C   C41   0.473832  0.026159  0.779628  -0.110479
    C   C42   0.973588  0.474139  0.779632  -0.109706
    C   C43   0.526273  0.973445  0.779593  -0.108616
    C   C44   0.026308  0.526574  0.779589  -0.107730
    C   C45   0.473733  0.973442  0.220407  -0.108708
    C   C46   0.973692  0.526576  0.220410  -0.107951
    C   C47   0.526168  0.026162  0.220372  -0.110211
    C   C48   0.026406  0.474135  0.220368  -0.109559
    C   C49   0.000044  0.500273  0.264761  0.070703
    C   C50   0.499951  0.999864  0.264761  0.069032
    C   C51   0.999953  0.500274  0.735239  0.070364
    C   C52   0.500052  0.999864  0.735239  0.068602
    C   C53   0.500053  0.999823  0.764772  0.069849
    C   C54   0.999949  0.500329  0.764772  0.067646
    C   C55   0.499950  0.999823  0.235228  0.069561
    C   C56   0.000048  0.500329  0.235228  0.067458
    C   C57   0.947251  0.552940  0.264786  -0.037902
    C   C58   0.447291  0.947064  0.264778  -0.037847
    C   C59   0.052837  0.447607  0.264701  -0.036421
    C   C60   0.552611  0.052663  0.264709  -0.038384
    C   C61   0.947153  0.447614  0.735299  -0.036703
    C   C62   0.447386  0.052657  0.735291  -0.038189
    C   C63   0.052753  0.552934  0.735213  -0.037779
    C   C64   0.552718  0.947070  0.735222  -0.037963
    C   C65   0.447467  0.052697  0.764790  -0.036384
    C   C66   0.947070  0.447749  0.764798  -0.037437
    C   C67   0.552639  0.946950  0.764720  -0.038446
    C   C68   0.052829  0.552909  0.764712  -0.038547
    C   C69   0.447370  0.946944  0.235280  -0.038349
    C   C70   0.947174  0.552915  0.235288  -0.038439
    C   C71   0.552530  0.052703  0.235210  -0.036123
    C   C72   0.052920  0.447742  0.235203  -0.037754
    Cu  Cu9   0.499955  0.499555  0.028546  0.977193
    Cu  Cu10  0.500044  0.499555  0.971454  0.977099
    Cu  Cu11  0.000004  0.000002  0.527991  0.968265
    Cu  Cu12  0.999999  0.000002  0.472009  0.968455
    O   O49   0.050589  0.447675  0.323787  -0.509495
    O   O50   0.552444  0.050495  0.323797  -0.509858
    O   O51   0.949481  0.552649  0.323872  -0.509742
    O   O52   0.447483  0.949373  0.323862  -0.509606
    O   O53   0.050522  0.552643  0.676128  -0.509660
    O   O54   0.552527  0.949379  0.676138  -0.509520
    O   O55   0.949400  0.447682  0.676214  -0.509430
    O   O56   0.447553  0.050489  0.676203  -0.509799
    O   O57   0.550392  0.947044  0.823804  -0.509477
    O   O58   0.052648  0.550767  0.823799  -0.509309
    O   O59   0.449706  0.052426  0.823875  -0.509819
    O   O60   0.947254  0.450093  0.823880  -0.510002
    O   O61   0.550291  0.052432  0.176125  -0.509762
    O   O62   0.052736  0.450085  0.176120  -0.510190
    O   O63   0.449618  0.947038  0.176196  -0.509666
    O   O64   0.947356  0.550773  0.176201  -0.509430
    H   H1    0.926250  0.573860  0.275899  0.133634
    H   H2    0.426353  0.926077  0.275888  0.133469
    H   H3    0.073834  0.426644  0.275779  0.132937
    H   H4    0.573551  0.073680  0.275791  0.133400
    H   H5    0.926153  0.426654  0.724221  0.132977
    H   H6    0.426443  0.073671  0.724209  0.133358
    H   H7    0.073756  0.573852  0.724101  0.133588
    H   H8    0.573659  0.926086  0.724112  0.133526
    H   H9    0.426550  0.073705  0.775899  0.133225
    H   H10   0.926043  0.426855  0.775910  0.133198
    H   H11   0.573556  0.925910  0.775802  0.133531
    H   H12   0.073855  0.573843  0.775791  0.133499
    H   H13   0.426456  0.925902  0.224198  0.133537
    H   H14   0.926151  0.573852  0.224209  0.133459
    H   H15   0.573444  0.073713  0.224101  0.133151
    H   H16   0.073945  0.426845  0.224090  0.133236
    C   C73   0.990442  0.464557  0.131061  -0.563335
    C   C74   0.535878  0.990094  0.131080  -0.565815
    C   C75   0.009592  0.536386  0.131081  -0.561312
    C   C76   0.464043  0.009229  0.131062  -0.563670
    C   C77   0.990412  0.536388  0.868919  -0.561033
    C   C78   0.535959  0.009234  0.868938  -0.563921
    C   C79   0.009551  0.464556  0.868939  -0.563033
    C   C80   0.464127  0.990089  0.868920  -0.565773
    C   C81   0.490262  0.964090  0.631079  -0.560439
    C   C82   0.035830  0.490334  0.631092  -0.563916
    C   C83   0.509758  0.035825  0.631089  -0.559755
    C   C84   0.964095  0.509838  0.631076  -0.562034
    C   C85   0.490240  0.035824  0.368911  -0.559743
    C   C86   0.035902  0.509833  0.368924  -0.562003
    C   C87   0.509746  0.964091  0.368921  -0.560276
    C   C88   0.964165  0.490339  0.368908  -0.563822
    H   H17   0.982564  0.436259  0.142535  0.197693
    H   H18   0.564168  0.982233  0.142570  0.198486
    H   H19   0.017481  0.564666  0.142572  0.197359
    H   H20   0.435750  0.017125  0.142537  0.197679
    H   H21   0.982526  0.564670  0.857428  0.197325
    H   H22   0.564250  0.017134  0.857463  0.197750
    H   H23   0.017425  0.436257  0.857464  0.197646
    H   H24   0.435838  0.982224  0.857430  0.198451
    H   H25   0.482243  0.935837  0.642559  0.197210
    H   H26   0.064078  0.482324  0.642582  0.197799
    H   H27   0.517787  0.064069  0.642576  0.196856
    H   H28   0.935846  0.517882  0.642554  0.197262
    H   H29   0.482207  0.064067  0.357424  0.196872
    H   H30   0.064153  0.517872  0.357447  0.197247
    H   H31   0.517769  0.935839  0.357441  0.197200
    H   H32   0.935916  0.482333  0.357418  0.197787
    C   C89   0.990481  0.464262  0.101554  0.710054
    C   C90   0.536197  0.990102  0.101572  0.711101
    C   C91   0.009522  0.536723  0.101573  0.707674
    C   C92   0.463731  0.009129  0.101554  0.708914
    C   C93   0.990481  0.536725  0.898427  0.707524
    C   C94   0.536270  0.009134  0.898446  0.709203
    C   C95   0.009512  0.464261  0.898446  0.709832
    C   C96   0.463807  0.990097  0.898428  0.711228
    C   C97   0.490299  0.963785  0.601572  0.706986
    C   C98   0.036149  0.490343  0.601584  0.709898
    C   C99   0.509698  0.036152  0.601581  0.707064
    C   C100  0.963783  0.509750  0.601569  0.708374
    C   C101  0.490301  0.036150  0.398419  0.706930
    C   C102  0.036215  0.509745  0.398431  0.708279
    C   C103  0.509709  0.963787  0.398428  0.706722
    C   C104  0.963846  0.490349  0.398416  0.709726
    C   C105  0.999996  0.500503  0.086263  -0.622813
    C   C106  0.499967  0.999594  0.086262  -0.621776
    C   C107  0.000003  0.500504  0.913737  -0.622552
    C   C108  0.500036  0.999594  0.913737  -0.622074
    C   C109  0.499995  0.999974  0.586275  -0.619947
    C   C110  0.999968  0.500030  0.586275  -0.621788
    C   C111  0.500008  0.999974  0.413725  -0.619772
    C   C112  0.000028  0.500030  0.413725  -0.621636
    C   C113  0.000027  0.500459  0.145938  0.363629
    C   C114  0.499959  0.999686  0.145938  0.364957
    C   C115  0.999971  0.500459  0.854062  0.363030
    C   C116  0.500044  0.999686  0.854062  0.365174
    C   C117  0.500019  0.999951  0.645950  0.360079
    C   C118  0.999962  0.500109  0.645950  0.362920
    C   C119  0.499985  0.999951  0.354050  0.360083
    C   C120  0.000034  0.500109  0.354050  0.362960
    C   C121  0.270947  0.474008  0.981750  0.300770
    C   C122  0.526206  0.270555  0.981764  0.292495
    C   C123  0.728906  0.526421  0.981782  0.303754
    C   C124  0.473781  0.728545  0.981773  0.313750
    C   C125  0.271093  0.526422  0.018217  0.303881
    C   C126  0.526219  0.728544  0.018226  0.313773
    C   C127  0.729052  0.474007  0.018250  0.300761
    C   C128  0.473796  0.270555  0.018236  0.292476
    C   C129  0.771578  0.973767  0.481804  0.304671
    C   C130  0.026222  0.771577  0.481794  0.306644
    C   C131  0.228427  0.026211  0.481784  0.303841
    C   C132  0.973779  0.228426  0.481794  0.306049
    C   C133  0.771576  0.026212  0.518215  0.303739
    C   C134  0.026221  0.228427  0.518207  0.305982
    C   C135  0.228425  0.973770  0.518198  0.304801
    C   C136  0.973777  0.771578  0.518206  0.306590
    C   C137  0.292539  0.500140  0.999993  -0.375720
    C   C138  0.500000  0.292073  0.000000  -0.352911
    C   C139  0.707459  0.500139  0.000007  -0.375648
    C   C140  0.500000  0.707026  0.000000  -0.402986
    C   C141  0.793183  0.999992  0.500008  -0.392164
    C   C142  0.000000  0.793184  0.500000  -0.394646
    C   C143  0.206820  0.999992  0.499992  -0.392382
    C   C144  0.000000  0.206821  0.500000  -0.393883
    C   C145  0.227979  0.526511  0.018236  0.284464
    C   C146  0.473842  0.227445  0.018267  0.295519
    C   C147  0.772162  0.474187  0.018292  0.293713
    C   C148  0.526174  0.771655  0.018257  0.281382
    C   C149  0.227837  0.474188  0.981708  0.293560
    C   C150  0.473827  0.771655  0.981743  0.281378
    C   C151  0.772020  0.526510  0.981764  0.284843
    C   C152  0.526161  0.227446  0.981733  0.295457
    C   C153  0.728409  0.026165  0.518245  0.286893
    C   C154  0.973821  0.728412  0.518235  0.283627
    C   C155  0.271591  0.973810  0.518227  0.285448
    C   C156  0.026177  0.271593  0.518236  0.284159
    C   C157  0.728412  0.973808  0.481775  0.285452
    C   C158  0.973822  0.271592  0.481764  0.284235
    C   C159  0.271593  0.026163  0.481754  0.286973
    C   C160  0.026177  0.728412  0.481764  0.283565
    C   C161  0.206389  0.500408  0.999971  -0.406630
    C   C162  0.500001  0.205929  0.000000  -0.418203
    C   C163  0.793610  0.500407  0.000029  -0.407231
    C   C164  0.500001  0.793172  0.000000  -0.395809
    C   C165  0.706806  0.999985  0.500010  -0.394199
    C   C166  0.999999  0.706806  0.500000  -0.391202
    C   C167  0.293197  0.999985  0.499990  -0.394283
    C   C168  0.999999  0.293198  0.500000  -0.391891
    C   C169  0.337363  0.499906  0.000049  0.354273
    C   C170  0.500000  0.336893  0.000000  0.324640
    C   C171  0.662636  0.499906  0.999951  0.354288
    C   C172  0.500000  0.662203  0.000000  0.395146
    C   C173  0.838128  0.999996  0.500007  0.398317
    C   C174  0.000000  0.838130  0.500000  0.398866
    C   C175  0.161874  0.999996  0.499993  0.398394
    C   C176  0.000001  0.161874  0.500000  0.398597
    C   C177  0.161566  0.500484  0.999989  0.389040
    C   C178  0.500002  0.161110  0.000000  0.397424
    C   C179  0.838433  0.500483  0.000011  0.389396
    C   C180  0.500001  0.837993  0.000000  0.384417
    C   C181  0.661861  0.999982  0.500010  0.381186
    C   C182  0.999998  0.661861  0.500000  0.380278
    C   C183  0.338142  0.999983  0.499990  0.381220
    C   C184  0.999999  0.338144  0.500000  0.380325
    C   C185  0.123914  0.500515  0.000001  -0.520234
    C   C186  0.500002  0.123460  0.000000  -0.526549
    C   C187  0.876085  0.500513  0.999999  -0.520383
    C   C188  0.500001  0.875644  0.000000  -0.518609
    C   C189  0.624136  0.999981  0.500009  -0.516131
    C   C190  0.999998  0.624136  0.500000  -0.515739
    C   C191  0.375867  0.999982  0.499991  -0.516143
    C   C192  0.999999  0.375869  0.500000  -0.515711
    C   C193  0.375016  0.499633  0.000094  -0.455933
    C   C194  0.500000  0.374544  0.000000  -0.415108
    C   C195  0.624983  0.499632  0.999905  -0.455969
    C   C196  0.500000  0.624551  0.000000  -0.515996
    C   C197  0.875854  0.999999  0.500005  -0.524839
    C   C198  0.000001  0.875856  0.500000  -0.525049
    C   C199  0.124149  0.999999  0.499995  -0.524867
    C   C200  0.000001  0.124149  0.500000  -0.525024
    C   C201  0.499999  0.419350  0.000000  0.849604
    C   C202  0.580175  0.499207  0.999854  0.883161
    C   C203  0.499999  0.579744  0.000000  0.939084
    C   C204  0.419824  0.499207  0.000146  0.883147
    C   C205  0.000001  0.920787  0.500000  0.961482
    C   C206  0.079218  0.000001  0.499997  0.961465
    C   C207  0.000001  0.079217  0.500000  0.961595
    C   C208  0.920785  0.000001  0.500003  0.961459
    O   O65   0.981213  0.427552  0.087978  -0.551894
    H   H33   0.007856  0.411744  0.088058  0.377213
    O   O66   0.572922  0.980830  0.088014  -0.551857
    H   H34   0.588722  0.007476  0.088085  0.377045
    O   O67   0.018776  0.573450  0.088014  -0.551312
    H   H35   0.992130  0.589252  0.088108  0.377129
    O   O68   0.427011  0.018362  0.087977  -0.551578
    H   H36   0.411214  0.991713  0.088079  0.377250
    O   O69   0.981234  0.573454  0.911986  -0.551361
    H   H37   0.007883  0.589251  0.911893  0.377175
    O   O70   0.572989  0.018372  0.912022  -0.551607
    H   H38   0.588791  0.991727  0.911920  0.377249
    O   O71   0.018774  0.427549  0.912022  -0.551867
    H   H39   0.992128  0.411746  0.911942  0.377222
    O   O72   0.427084  0.980819  0.911986  -0.551864
    H   H40   0.411279  0.007463  0.911914  0.377031
    O   O73   0.480824  0.927123  0.588002  -0.551334
    H   H41   0.507369  0.911151  0.588105  0.377197
    O   O74   0.072817  0.480851  0.588026  -0.551614
    H   H42   0.088793  0.507392  0.588121  0.377119
    O   O75   0.519162  0.072823  0.588019  -0.551247
    H   H43   0.492615  0.088790  0.588129  0.377072
    O   O76   0.927117  0.519206  0.587995  -0.551340
    H   H44   0.911146  0.492662  0.588114  0.377144
    O   O77   0.480831  0.072821  0.411981  -0.551191
    H   H45   0.507375  0.088792  0.411870  0.377045
    O   O78   0.072882  0.519195  0.412005  -0.551348
    H   H46   0.088848  0.492648  0.411886  0.377163
    O   O79   0.519190  0.927125  0.411998  -0.551279
    H   H47   0.492648  0.911149  0.411895  0.377164
    O   O80   0.927176  0.480862  0.411974  -0.551587
    H   H48   0.911205  0.507406  0.411879  0.377105
    O   O81   0.206374  0.448365  0.963611  -0.517312
    H   H49   0.203556  0.464667  0.945686  0.388745
    O   O82   0.552033  0.206054  0.963630  -0.517245
    H   H50   0.535728  0.203189  0.945711  0.389212
    O   O83   0.793342  0.552436  0.963657  -0.517262
    H   H51   0.796254  0.536134  0.945740  0.390230
    O   O84   0.447940  0.793047  0.963649  -0.516945
    H   H52   0.464231  0.795912  0.945724  0.389617
    O   O85   0.206657  0.552437  0.036342  -0.517179
    H   H53   0.203745  0.536135  0.054259  0.390239
    O   O86   0.552061  0.793047  0.036351  -0.516941
    H   H54   0.535770  0.795911  0.054276  0.389622
    O   O87   0.793625  0.448364  0.036389  -0.517331
    H   H55   0.796442  0.464666  0.054313  0.388764
    O   O88   0.447970  0.206053  0.036370  -0.517263
    H   H56   0.464275  0.203189  0.054290  0.389213
    O   O89   0.707056  0.947889  0.463683  -0.517096
    H   H57   0.704159  0.964177  0.445759  0.389586
    O   O90   0.052095  0.707055  0.463672  -0.516933
    H   H58   0.035806  0.704160  0.445748  0.389532
    O   O91   0.292952  0.052078  0.463660  -0.517437
    H   H59   0.295845  0.035788  0.445737  0.389423
    O   O92   0.947905  0.292948  0.463670  -0.517006
    H   H60   0.964195  0.295844  0.445747  0.389536
    O   O93   0.707051  0.052081  0.536338  -0.517394
    H   H61   0.704157  0.035793  0.554262  0.389429
    O   O94   0.052093  0.292949  0.536330  -0.517023
    H   H62   0.035803  0.295845  0.554253  0.389580
    O   O95   0.292947  0.947893  0.536320  -0.517090
    H   H63   0.295844  0.964183  0.554243  0.389578
    O   O96   0.947902  0.707057  0.536328  -0.516960
    H   H64   0.964192  0.704161  0.554252  0.389529
    O   O97   0.292265  0.447945  0.963734  -0.546561
    H   H65   0.294991  0.421454  0.974564  0.392804
    O   O98   0.552179  0.291947  0.963728  -0.544218
    H   H66   0.578665  0.294791  0.974550  0.394038
    O   O99   0.707443  0.552310  0.963730  -0.547740
    H   H67   0.704481  0.578784  0.974549  0.397644
    O   O100  0.447793  0.707154  0.963747  -0.549376
    H   H68   0.421316  0.704310  0.974579  0.395593
    O   O101  0.292556  0.552310  0.036270  -0.547742
    H   H69   0.295519  0.578785  0.025451  0.397639
    O   O102  0.552207  0.707153  0.036252  -0.549397
    H   H70   0.578684  0.704309  0.025421  0.395599
    O   O103  0.707733  0.447944  0.036266  -0.546592
    H   H71   0.705007  0.421453  0.025436  0.392813
    O   O104  0.447822  0.291946  0.036272  -0.544233
    H   H72   0.421336  0.294789  0.025450  0.394049
    O   O105  0.792936  0.947751  0.463778  -0.545866
    H   H73   0.795821  0.921300  0.474634  0.394766
    O   O106  0.052241  0.792932  0.463769  -0.546060
    H   H74   0.078693  0.795814  0.474625  0.394744
    O   O107  0.207072  0.052229  0.463759  -0.545670
    H   H75   0.204192  0.078682  0.474614  0.394761
    O   O108  0.947761  0.207071  0.463768  -0.546048
    H   H76   0.921309  0.204188  0.474623  0.394795
    O   O109  0.792931  0.052233  0.536238  -0.545693
    H   H77   0.795810  0.078684  0.525382  0.394798
    O   O110  0.052239  0.207072  0.536232  -0.546032
    H   H78   0.078692  0.204189  0.525377  0.394816
    O   O111  0.207067  0.947755  0.536224  -0.545893
    H   H79   0.204182  0.921303  0.525369  0.394771
    O   O112  0.947759  0.792934  0.536231  -0.546029
    H   H80   0.921307  0.795817  0.525375  0.394736
