# Generated by REPEAT Assigner based on pymatgen
data_DB0-m2_o7_o11_f0_nbo.sym.94
_audit_creation_date              2022-05-24
_audit_creation_method            REPEAT_Assigner
_cell_length_a                    40.987115
_cell_length_b                    35.274607
_cell_length_c                    21.755241
_cell_angle_alpha                 90.000000
_cell_angle_beta                  120.780837
_cell_angle_gamma                 90.000000
_cell_volume                      27022.957279
_symmetry_space_group_name_H-M    P1
_symmetry_Int_Tables_number       1
loop_
    _symmetry_equiv_pos_site_id
    _symmetry_equiv_pos_as_xyz
    1  x,y,z
loop_
    _atom_site_type_symbol
    _atom_site_label
    _atom_site_fract_x
    _atom_site_fract_y
    _atom_site_fract_z
    _atom_type_partial_charge
    O   O1    0.446378  0.517614  0.927391  -0.579974
    O   O2    0.553621  0.517614  0.072608  -0.579983
    O   O3    0.946378  0.017614  0.927391  -0.580003
    O   O4    0.053621  0.017614  0.072608  -0.580031
    O   O5    0.445478  0.455323  0.961615  -0.617994
    O   O6    0.554521  0.455323  0.038383  -0.618018
    O   O7    0.945478  0.955323  0.961615  -0.617975
    O   O8    0.054521  0.955323  0.038383  -0.618023
    C   C1    0.428051  0.486567  0.926313  0.699367
    C   C2    0.571948  0.486567  0.073685  0.699391
    C   C3    0.928051  0.986567  0.926313  0.699359
    C   C4    0.071948  0.986567  0.073685  0.699418
    O   O9    0.512952  0.517611  0.925687  -0.630131
    O   O10   0.487047  0.517611  0.074311  -0.630081
    O   O11   0.012952  0.017611  0.925687  -0.630194
    O   O12   0.987047  0.017611  0.074311  -0.630127
    O   O13   0.491178  0.455281  0.903373  -0.626848
    O   O14   0.508821  0.455281  0.096625  -0.626812
    O   O15   0.991178  0.955281  0.903373  -0.626859
    O   O16   0.008821  0.955281  0.096625  -0.626815
    C   C5    0.502870  0.486365  0.886675  0.784183
    C   C6    0.497129  0.486365  0.113324  0.784083
    C   C7    0.002870  0.986365  0.886675  0.784257
    C   C8    0.997129  0.986365  0.113324  0.784158
    Cu  Cu1   0.499999  0.523409  0.999999  0.955883
    Cu  Cu2   0.999999  0.023409  0.999999  0.955854
    Cu  Cu3   0.499999  0.449493  0.999999  1.003209
    Cu  Cu4   0.999999  0.949493  0.999999  1.003274
    C   C9    0.466155  0.673531  0.469185  -0.212577
    C   C10   0.533844  0.673531  0.530813  -0.212611
    C   C11   0.966155  0.173531  0.469185  -0.212595
    C   C12   0.033844  0.173531  0.530813  -0.212626
    H   H1    0.439607  0.688886  0.445015  0.141469
    H   H2    0.560392  0.688886  0.554983  0.141481
    H   H3    0.939607  0.188886  0.445015  0.141473
    H   H4    0.060392  0.188886  0.554983  0.141485
    C   C13   0.999999  0.386785  0.499999  -0.038720
    C   C14   0.499999  0.886785  0.499999  -0.038671
    C   C15   0.499999  0.733675  0.499999  -0.168286
    C   C16   0.999999  0.233675  0.499999  -0.168277
    C   C17   0.499999  0.614698  0.499999  -0.035996
    C   C18   0.999999  0.114698  0.499999  -0.036046
    C   C19   0.525058  0.511396  0.742401  -0.003848
    C   C20   0.474940  0.511396  0.257598  -0.003837
    C   C21   0.025058  0.011396  0.742401  -0.003828
    C   C22   0.974940  0.011396  0.257598  -0.003832
    C   C23   0.495131  0.500833  0.680074  -0.313643
    C   C24   0.504868  0.500833  0.319924  -0.313747
    C   C25   0.995131  0.000833  0.680074  -0.313652
    C   C26   0.004868  0.000833  0.319924  -0.313766
    H   H5    0.550392  0.522040  0.744424  0.109696
    H   H6    0.449607  0.522040  0.255573  0.109725
    H   H7    0.050392  0.022040  0.744424  0.109685
    H   H8    0.949607  0.022040  0.255573  0.109718
    H   H9    0.468340  0.493910  0.676002  0.187465
    H   H10   0.531658  0.493910  0.323995  0.187492
    H   H11   0.968340  0.993910  0.676002  0.187464
    H   H12   0.031658  0.993910  0.323995  0.187515
    C   C27   0.523401  0.512142  0.808202  -0.005088
    C   C28   0.476598  0.512142  0.191796  -0.005079
    C   C29   0.023401  0.012142  0.808202  -0.005087
    C   C30   0.976598  0.012142  0.191796  -0.005073
    C   C31   0.504067  0.485948  0.820758  -0.330977
    C   C32   0.495932  0.485948  0.179241  -0.330932
    C   C33   0.004067  0.985948  0.820758  -0.331005
    C   C34   0.995932  0.985948  0.179241  -0.330973
    H   H13   0.540304  0.533005  0.848743  0.122741
    H   H14   0.459694  0.533005  0.151256  0.122718
    H   H15   0.040304  0.033005  0.848743  0.122744
    H   H16   0.959694  0.033005  0.151256  0.122723
    H   H17   0.490268  0.462731  0.783712  0.184262
    H   H18   0.509731  0.462731  0.216287  0.184261
    H   H19   0.990268  0.962731  0.783712  0.184275
    H   H20   0.009731  0.962731  0.216287  0.184270
    C   C35   0.171644  0.485970  0.725967  0.401181
    C   C36   0.828355  0.485970  0.274031  0.401293
    C   C37   0.671644  0.985970  0.725967  0.401199
    C   C38   0.328355  0.985970  0.274031  0.401201
    C   C39   0.132336  0.488474  0.686982  -0.242854
    C   C40   0.867663  0.488475  0.313016  -0.243162
    C   C41   0.632336  0.988474  0.686982  -0.242842
    C   C42   0.367663  0.988475  0.313016  -0.242996
    H   H21   0.116167  0.483139  0.712649  0.147735
    H   H22   0.883831  0.483140  0.287347  0.147795
    H   H23   0.616167  0.983139  0.712649  0.147730
    H   H24   0.383831  0.983140  0.287347  0.147743
    C   C43   0.113669  0.498844  0.615542  0.040654
    C   C44   0.886330  0.498844  0.384456  0.040894
    C   C45   0.613669  0.998844  0.615542  0.040593
    C   C46   0.386330  0.998844  0.384456  0.040863
    C   C47   0.134563  0.507533  0.583750  -0.197232
    C   C48   0.865436  0.507533  0.416248  -0.197390
    C   C49   0.634563  0.007533  0.583750  -0.197222
    C   C50   0.365436  0.007533  0.416248  -0.197394
    H   H25   0.120741  0.515698  0.528115  0.159803
    H   H26   0.879257  0.515697  0.471883  0.159839
    H   H27   0.620741  0.015698  0.528115  0.159801
    H   H28   0.379257  0.015697  0.471883  0.159844
    C   C51   0.173642  0.505859  0.622967  -0.140161
    C   C52   0.826357  0.505859  0.377031  -0.140064
    C   C53   0.673642  0.005859  0.622967  -0.140152
    C   C54   0.326357  0.005859  0.377031  -0.140086
    H   H29   0.189867  0.512745  0.597940  0.147252
    H   H30   0.810132  0.512744  0.402059  0.147242
    H   H31   0.689867  0.012745  0.597940  0.147249
    H   H32   0.310132  0.012744  0.402059  0.147245
    C   C55   0.192107  0.495177  0.693807  0.011791
    C   C56   0.807892  0.495177  0.306191  0.011742
    C   C57   0.692107  0.995177  0.693807  0.011781
    C   C58   0.307892  0.995177  0.306191  0.011774
    C   C59   0.232826  0.492978  0.734009  -0.008543
    C   C60   0.767172  0.492978  0.265990  -0.008531
    C   C61   0.732826  0.992978  0.734009  -0.008544
    C   C62   0.267172  0.992978  0.265990  -0.008554
    C   C63   0.267019  0.491248  0.767595  -0.266326
    C   C64   0.732979  0.491248  0.232403  -0.266411
    C   C65   0.767019  0.991248  0.767595  -0.266322
    C   C66   0.232979  0.991248  0.232403  -0.266346
    C   C67   0.326279  0.457320  0.844441  -0.228339
    C   C68   0.673720  0.457320  0.155557  -0.228439
    C   C69   0.826279  0.957320  0.844441  -0.228351
    C   C70   0.173720  0.957320  0.155557  -0.228349
    H   H33   0.310061  0.432936  0.843510  0.147294
    H   H34   0.689938  0.432936  0.156489  0.147308
    H   H35   0.810061  0.932936  0.843510  0.147298
    H   H36   0.189938  0.932936  0.156489  0.147293
    C   C71   0.365473  0.456060  0.882965  -0.076340
    C   C72   0.634526  0.456060  0.117034  -0.076314
    C   C73   0.865473  0.956060  0.882965  -0.076328
    C   C74   0.134526  0.956060  0.117034  -0.076350
    H   H37   0.379409  0.430497  0.911878  0.127506
    H   H38   0.620590  0.430497  0.088120  0.127515
    H   H39   0.879409  0.930497  0.911878  0.127502
    H   H40   0.120590  0.930497  0.088120  0.127520
    C   C75   0.386370  0.487265  0.884586  -0.067187
    C   C76   0.613629  0.487266  0.115412  -0.067217
    C   C77   0.886370  0.987265  0.884586  -0.067175
    C   C78   0.113629  0.987266  0.115412  -0.067202
    C   C79   0.367573  0.519580  0.847023  -0.079515
    C   C80   0.632426  0.519580  0.152975  -0.079445
    C   C81   0.867573  0.019580  0.847023  -0.079516
    C   C82   0.132426  0.019580  0.152975  -0.079494
    H   H41   0.383065  0.544401  0.847223  0.118349
    H   H42   0.616933  0.544401  0.152775  0.118351
    H   H43   0.883065  0.044401  0.847223  0.118350
    H   H44   0.116933  0.044401  0.152775  0.118350
    C   C83   0.328456  0.520687  0.808623  -0.216648
    C   C84   0.671543  0.520687  0.191375  -0.216838
    C   C85   0.828456  0.020687  0.808623  -0.216657
    C   C86   0.171543  0.020687  0.191375  -0.216688
    H   H45   0.313965  0.546045  0.779559  0.140878
    H   H46   0.686034  0.546045  0.220439  0.140921
    H   H47   0.813965  0.046045  0.779559  0.140881
    H   H48   0.186034  0.046045  0.220439  0.140885
    C   C87   0.307770  0.489652  0.807372  0.364925
    C   C88   0.692228  0.489652  0.192626  0.365148
    C   C89   0.807770  0.989652  0.807372  0.364930
    C   C90   0.192228  0.989652  0.192626  0.364979
    C   C91   0.499999  0.693043  0.499999  0.311851
    C   C92   0.999999  0.193043  0.499999  0.311860
    C   C93   0.466077  0.634460  0.469112  -0.089539
    C   C94   0.533921  0.634460  0.530886  -0.089486
    C   C95   0.966077  0.134460  0.469112  -0.089506
    C   C96   0.033921  0.134460  0.530886  -0.089462
    C   C97   0.999999  0.267806  0.499999  -0.165833
    C   C98   0.499999  0.767806  0.499999  -0.165816
    C   C99   0.999999  0.308438  0.499999  0.307781
    C   C100  0.499999  0.808438  0.499999  0.307762
    H   H49   0.439181  0.619751  0.444624  0.127729
    H   H50   0.560817  0.619751  0.555374  0.127706
    H   H51   0.939181  0.119751  0.444624  0.127718
    H   H52   0.060817  0.119751  0.555374  0.127699
    O   O17   0.532742  0.445179  0.532190  -0.538642
    O   O18   0.467256  0.445179  0.467808  -0.538621
    O   O19   0.032742  0.945179  0.532190  -0.538673
    O   O20   0.967256  0.945179  0.467808  -0.538664
    C   C101  0.499999  0.427338  0.499999  0.741140
    C   C102  0.999999  0.927338  0.499999  0.741116
    O   O21   0.530340  0.499679  0.620460  -0.603973
    O   O22   0.469659  0.499678  0.379538  -0.604002
    O   O23   0.030340  0.999679  0.620460  -0.603919
    O   O24   0.969659  0.999678  0.379538  -0.603958
    O   O25   0.464965  0.498170  0.553506  -0.624387
    O   O26   0.535034  0.498170  0.446492  -0.624387
    O   O27   0.964965  0.998170  0.553506  -0.624370
    O   O28   0.035034  0.998170  0.446492  -0.624364
    C   C103  0.496944  0.500825  0.614793  0.746313
    C   C104  0.503055  0.500825  0.385205  0.746409
    C   C105  0.996944  0.000825  0.614793  0.746285
    C   C106  0.003055  0.000825  0.385205  0.746378
    Cu  Cu5   0.537802  0.500306  0.538726  0.962358
    Cu  Cu6   0.462197  0.500306  0.461272  0.962244
    Cu  Cu7   0.037802  0.000306  0.538726  0.962341
    Cu  Cu8   0.962197  0.000306  0.461272  0.962257
    O   O29   0.532689  0.555377  0.529816  -0.591938
    O   O30   0.467310  0.555377  0.470182  -0.591949
    O   O31   0.032689  0.055377  0.529816  -0.591960
    O   O32   0.967310  0.055377  0.470182  -0.591972
    C   C107  0.499999  0.573155  0.499999  0.638390
    C   C108  0.999999  0.073155  0.499999  0.638465
    O   O33   0.011696  0.446144  0.461314  -0.576766
    O   O34   0.988303  0.446144  0.538684  -0.576821
    O   O35   0.511696  0.946144  0.461314  -0.576752
    O   O36   0.488303  0.946144  0.538684  -0.576822
    C   C109  0.999999  0.428328  0.499999  0.648095
    C   C110  0.499999  0.928328  0.499999  0.648021
    O   O37   0.055243  0.510738  0.505832  -0.624468
    O   O38   0.944756  0.510738  0.494166  -0.624609
    O   O39   0.555243  0.010738  0.505832  -0.624478
    O   O40   0.444756  0.010738  0.494166  -0.624606
    O   O41   0.052988  0.489614  0.604802  -0.580853
    O   O42   0.947010  0.489614  0.395197  -0.580815
    O   O43   0.552988  0.989614  0.604802  -0.580867
    O   O44   0.447010  0.989614  0.395197  -0.580812
    C   C111  0.071999  0.500048  0.573549  0.687441
    C   C112  0.928000  0.500048  0.426449  0.687501
    C   C113  0.571999  0.000048  0.573549  0.687529
    C   C114  0.428000  0.000048  0.426449  0.687499
    Cu  Cu9   0.001326  0.500192  0.441323  0.949359
    Cu  Cu10  0.998672  0.500192  0.558674  0.949555
    Cu  Cu11  0.501326  0.000192  0.441323  0.949388
    Cu  Cu12  0.498672  0.000192  0.558674  0.949520
    O   O45   0.990525  0.554238  0.439664  -0.579598
    O   O46   0.009474  0.554238  0.560335  -0.579569
    O   O47   0.490525  0.054238  0.439664  -0.579574
    O   O48   0.509474  0.054238  0.560335  -0.579573
    C   C115  0.999999  0.572048  0.499999  0.795976
    C   C116  0.499999  0.072048  0.499999  0.795949
    C   C117  0.971100  0.672327  0.443403  -0.472824
    C   C118  0.028898  0.672327  0.556596  -0.472783
    C   C119  0.471100  0.172327  0.443403  -0.472866
    C   C120  0.528898  0.172327  0.556596  -0.472839
    H   H53   0.948090  0.688379  0.401198  0.208547
    H   H54   0.051908  0.688379  0.598800  0.208527
    H   H55   0.448090  0.188379  0.401198  0.208557
    H   H56   0.551908  0.188379  0.598800  0.208544
    C   C121  0.971288  0.633069  0.442476  0.481102
    C   C122  0.028711  0.633069  0.557522  0.481048
    C   C123  0.471288  0.133069  0.442476  0.481089
    C   C124  0.528711  0.133069  0.557522  0.481054
    C   C125  0.999999  0.613587  0.499999  -0.414353
    C   C126  0.499999  0.113587  0.499999  -0.414349
    C   C127  0.999999  0.691748  0.499999  0.409209
    C   C128  0.499999  0.191748  0.499999  0.409347
    C   C129  0.999999  0.732436  0.499999  -0.146464
    C   C130  0.499999  0.232436  0.499999  -0.146652
    C   C131  0.499999  0.266602  0.499999  -0.132843
    C   C132  0.999999  0.766602  0.499999  -0.133022
    C   C133  0.472594  0.326714  0.441386  -0.482950
    C   C134  0.527404  0.326714  0.558613  -0.482967
    C   C135  0.972594  0.826714  0.441386  -0.482938
    C   C136  0.027404  0.826714  0.558613  -0.482911
    H   H57   0.452367  0.310643  0.395149  0.218330
    H   H58   0.547632  0.310643  0.604849  0.218341
    H   H59   0.952367  0.810643  0.395149  0.218340
    H   H60   0.047632  0.810643  0.604849  0.218341
    C   C137  0.471953  0.365975  0.441475  0.484208
    C   C138  0.528046  0.365975  0.558523  0.484208
    C   C139  0.971953  0.865975  0.441475  0.484164
    C   C140  0.028046  0.865975  0.558523  0.484126
    C   C141  0.499999  0.385640  0.499999  -0.392379
    C   C142  0.999999  0.885640  0.499999  -0.392290
    C   C143  0.499999  0.307290  0.499999  0.401550
    C   C144  0.999999  0.807290  0.499999  0.401586
    C   C145  0.987830  0.327950  0.539415  -0.220694
    C   C146  0.012168  0.327950  0.460583  -0.220646
    C   C147  0.487830  0.827950  0.539415  -0.220684
    C   C148  0.512168  0.827950  0.460583  -0.220638
    H   H61   0.978282  0.312594  0.570330  0.141960
    H   H62   0.021716  0.312594  0.429668  0.141945
    H   H63   0.478282  0.812594  0.570330  0.141960
    H   H64   0.521716  0.812594  0.429668  0.141944
    C   C149  0.987804  0.367021  0.539508  -0.062945
    C   C150  0.012195  0.367021  0.460490  -0.062995
    C   C151  0.487804  0.867021  0.539508  -0.062967
    C   C152  0.512195  0.867021  0.460490  -0.063007
    H   H65   0.978124  0.381721  0.570825  0.118519
    H   H66   0.021874  0.381721  0.429173  0.118524
    H   H67   0.478124  0.881721  0.570825  0.118524
    H   H68   0.521874  0.881721  0.429173  0.118528
    O   O49   0.942562  0.613231  0.389172  -0.393178
    C   C153  0.923209  0.623838  0.319745  0.853312
    O   O50   0.935971  0.647751  0.297230  -0.556777
    C   C154  0.887706  0.603352  0.268856  -0.569316
    H   H69   0.881363  0.581760  0.298366  0.112548
    H   H70   0.891491  0.589168  0.227430  0.180693
    H   H71   0.863865  0.623812  0.242981  0.165168
    O   O51   0.057436  0.613231  0.610826  -0.393183
    C   C155  0.076790  0.623838  0.680253  0.853349
    O   O52   0.064028  0.647751  0.702769  -0.556770
    C   C156  0.112292  0.603352  0.731142  -0.569372
    H   H72   0.118636  0.581760  0.701632  0.112543
    H   H73   0.108507  0.589168  0.772568  0.180704
    H   H74   0.136133  0.623812  0.757018  0.165184
    O   O53   0.442562  0.113231  0.389172  -0.393158
    C   C157  0.423209  0.123838  0.319745  0.853310
    O   O54   0.435971  0.147751  0.297230  -0.556781
    C   C158  0.387706  0.103352  0.268856  -0.569283
    H   H75   0.381363  0.081760  0.298366  0.112522
    H   H76   0.391491  0.089168  0.227430  0.180686
    H   H77   0.363865  0.123812  0.242981  0.165163
    O   O55   0.557436  0.113231  0.610826  -0.393173
    C   C159  0.576790  0.123838  0.680253  0.853355
    O   O56   0.564028  0.147751  0.702769  -0.556778
    C   C160  0.612292  0.103352  0.731142  -0.569363
    H   H78   0.618636  0.081760  0.701632  0.112537
    H   H79   0.608507  0.089168  0.772568  0.180704
    H   H80   0.636133  0.123812  0.757018  0.165182
    O   O57   0.446060  0.385447  0.383381  -0.401321
    C   C161  0.409666  0.374446  0.340058  0.847405
    O   O58   0.395060  0.351178  0.360044  -0.556772
    C   C162  0.386129  0.393587  0.269767  -0.595091
    H   H81   0.403725  0.414718  0.261949  0.144235
    H   H82   0.361863  0.408111  0.268754  0.192021
    H   H83   0.375320  0.372204  0.226330  0.167856
    O   O59   0.553939  0.385447  0.616618  -0.401334
    C   C163  0.590333  0.374446  0.659940  0.847466
    O   O60   0.604939  0.351178  0.639955  -0.556789
    C   C164  0.613869  0.393587  0.730232  -0.595221
    H   H84   0.596274  0.414718  0.738049  0.144317
    H   H85   0.638135  0.408111  0.731244  0.192026
    H   H86   0.624678  0.372204  0.773668  0.167880
    O   O61   0.946060  0.885447  0.383381  -0.401312
    C   C165  0.909666  0.874446  0.340058  0.847403
    O   O62   0.895060  0.851178  0.360044  -0.556764
    C   C166  0.886129  0.893587  0.269767  -0.595105
    H   H87   0.903725  0.914718  0.261949  0.144231
    H   H88   0.861863  0.908111  0.268754  0.192023
    H   H89   0.875320  0.872204  0.226330  0.167863
    O   O63   0.053939  0.885447  0.616618  -0.401302
    C   C167  0.090333  0.874446  0.659940  0.847434
    O   O64   0.104939  0.851178  0.639955  -0.556793
    C   C168  0.113869  0.893587  0.730232  -0.595111
    H   H90   0.096274  0.914718  0.738049  0.144260
    H   H91   0.138135  0.908111  0.731244  0.192004
    H   H92   0.124678  0.872204  0.773668  0.167860
    O   O65   0.190758  0.476235  0.795804  -0.430566
    C   C169  0.178240  0.450836  0.825572  0.845953
    O   O66   0.153567  0.427972  0.788610  -0.555938
    C   C170  0.197238  0.448483  0.904881  -0.564488
    H   H93   0.219680  0.470465  0.929435  0.136252
    H   H94   0.210181  0.420032  0.922963  0.182257
    H   H95   0.176004  0.453220  0.921260  0.168051
    O   O67   0.809240  0.476235  0.204194  -0.430567
    C   C171  0.821758  0.450837  0.174426  0.845939
    O   O68   0.846431  0.427973  0.211387  -0.555928
    C   C172  0.802761  0.448484  0.095116  -0.564431
    H   H96   0.780318  0.470466  0.070562  0.136230
    H   H97   0.789817  0.420034  0.077033  0.182242
    H   H98   0.823995  0.453222  0.078737  0.168037
    O   O69   0.690758  0.976235  0.795804  -0.430582
    C   C173  0.678240  0.950836  0.825572  0.845973
    O   O70   0.653567  0.927972  0.788610  -0.555945
    C   C174  0.697238  0.948483  0.904881  -0.564510
    H   H99   0.719680  0.970465  0.929435  0.136255
    H   H100  0.710181  0.920032  0.922963  0.182263
    H   H101  0.676004  0.953220  0.921260  0.168057
    O   O71   0.309240  0.976235  0.204194  -0.430562
    C   C175  0.321758  0.950837  0.174426  0.845973
    O   O72   0.346431  0.927973  0.211387  -0.555947
    C   C176  0.302761  0.948484  0.095116  -0.564460
    H   H102  0.280318  0.970466  0.070562  0.136232
    H   H103  0.289817  0.920034  0.077033  0.182250
    H   H104  0.323995  0.953222  0.078737  0.168046
