# Generated by REPEAT Assigner based on pymatgen
data_DB0-m3_o11_o14_f0_nbo.sym.56_sqe
_audit_creation_date              2022-05-24
_audit_creation_method            REPEAT_Assigner
_cell_length_a                    19.122362
_cell_length_b                    19.008811
_cell_length_c                    19.135493
_cell_angle_alpha                 70.869835
_cell_angle_beta                  70.115407
_cell_angle_gamma                 109.255909
_cell_volume                      5363.670001
_symmetry_space_group_name_H-M    P1
_symmetry_Int_Tables_number       1
loop_
    _symmetry_equiv_pos_site_id
    _symmetry_equiv_pos_as_xyz
    1  x,y,z
loop_
    _atom_site_type_symbol
    _atom_site_label
    _atom_site_fract_x
    _atom_site_fract_y
    _atom_site_fract_z
    _atom_type_partial_charge
    O   O1   0.890802  0.854819  0.559327  -0.680292
    O   O2   0.910384  0.967232  0.445135  -0.678301
    C   C1   0.869664  0.885775  0.502519  0.670865
    O   O3   0.911324  0.949042  0.644939  -0.623493
    O   O4   0.926560  0.059946  0.533229  -0.655610
    C   C2   0.893382  0.009484  0.615561  0.538618
    Zn  Zn1  0.987789  0.916191  0.575775  1.297813
    Zn  Zn2  0.010280  0.064684  0.429964  1.282649
    O   O5   0.087663  0.013869  0.560510  -0.693787
    O   O6   0.108067  0.125896  0.445419  -0.667588
    O   O7   0.072116  0.921308  0.472716  -0.702123
    O   O8   0.085835  0.031167  0.360859  -0.673489
    C   C3   0.129593  0.095148  0.501742  0.666806
    C   C4   0.103817  0.970956  0.390780  0.747720
    C   C5   0.735237  0.966787  0.621499  -0.240299
    H   H1   0.781038  0.959471  0.577332  0.186240
    C   C6   0.661366  0.950717  0.617926  -0.097593
    H   H2   0.652947  0.933120  0.571877  0.089036
    C   C7   0.599715  0.959647  0.670693  -0.046357
    H   H3   0.542986  0.949998  0.665801  0.087271
    C   C8   0.609489  0.979606  0.730743  -0.263277
    H   H4   0.559936  0.987643  0.769175  0.161204
    C   C9   0.681525  0.990988  0.738734  0.139618
    C   C10  0.748335  0.991095  0.679291  0.131624
    C   C11  0.827014  0.015250  0.677516  -0.016082
    C   C12  0.837277  0.038162  0.737964  -0.170721
    H   H5   0.766512  0.029012  0.857536  0.170923
    C   C13  0.764801  0.023670  0.803837  -0.207109
    C   C14  0.688641  0.002922  0.804355  -0.058925
    C   C15  0.670097  0.690159  0.563997  -0.075763
    C   C16  0.685510  0.681615  0.494605  -0.165138
    H   H6   0.607988  0.646809  0.621679  0.135948
    H   H7   0.750079  0.717421  0.440482  0.123407
    C   C17  0.739407  0.749666  0.567688  -0.103091
    C   C18  0.799365  0.826899  0.500059  -0.131357
    H   H8   0.738666  0.731441  0.627968  0.139725
    H   H9   0.795258  0.848771  0.442450  0.123066
    C   C19  0.239416  0.977122  0.188818  -0.078997
    C   C20  0.317604  0.001276  0.178789  -0.171549
    H   H10  0.224460  0.959443  0.145192  0.136423
    H   H11  0.336012  0.028870  0.215352  0.130842
    C   C21  0.176588  0.985198  0.251046  -0.086153
    C   C22  0.164637  0.960369  0.329851  -0.199763
    H   H12  0.136494  0.007395  0.233481  0.139924
    H   H13  0.198137  0.929655  0.350496  0.134900
    C   C23  0.329158  0.294319  0.434063  -0.073127
    C   C24  0.313055  0.309013  0.499838  -0.185656
    H   H14  0.391607  0.335229  0.376556  0.136972
    H   H15  0.248243  0.274869  0.553243  0.140223
    C   C25  0.260003  0.231434  0.433152  -0.105299
    C   C26  0.200492  0.155211  0.502638  -0.116443
    H   H16  0.260295  0.246620  0.373264  0.138326
    H   H17  0.204614  0.136199  0.560401  0.107490
    O   O9   0.548213  0.136500  0.899353  -0.686547
    O   O10  0.439873  0.025676  0.909614  -0.673244
    C   C27  0.492789  0.107456  0.876046  0.695552
    O   O11  0.645291  0.053126  0.900784  -0.670207
    O   O12  0.539739  0.944185  0.906896  -0.676740
    C   C28  0.620740  0.999563  0.873821  0.687558
    Zn  Zn3  0.570322  0.071400  0.989099  1.289786
    Zn  Zn4  0.432299  0.925542  0.999410  1.277562
    O   O13  0.563436  0.971150  0.078087  -0.682787
    O   O14  0.453622  0.860558  0.090051  -0.692302
    O   O15  0.463217  0.052009  0.082498  -0.695550
    O   O16  0.357073  0.944548  0.086885  -0.667595
    C   C29  0.509703  0.889401  0.112670  0.720060
    C   C30  0.382377  0.999025  0.112766  0.712616
    O   O17  0.450979  0.586720  0.448663  -0.689931
    O   O18  0.559557  0.585013  0.349240  -0.674731
    C   C31  0.506176  0.613461  0.369385  0.704863
    O   O19  0.537953  0.589093  0.544875  -0.694540
    O   O20  0.643639  0.587573  0.441891  -0.675201
    C   C32  0.618831  0.616539  0.493639  0.713112
    Zn  Zn5  0.430519  0.500848  0.560351  1.292985
    Zn  Zn6  0.568156  0.493011  0.430901  1.289289
    O   O21  0.438999  0.408756  0.642038  -0.676683
    O   O22  0.547903  0.407318  0.542529  -0.691430
    O   O23  0.355012  0.406272  0.549387  -0.681213
    O   O24  0.460671  0.404481  0.446717  -0.690851
    C   C33  0.492661  0.380619  0.621755  0.708098
    C   C34  0.379774  0.376783  0.498161  0.716460
    C   C35  0.559059  0.307162  0.679724  -0.096131
    C   C36  0.490526  0.316471  0.691582  -0.153567
    H   H18  0.618312  0.349851  0.618901  0.140599
    H   H19  0.434301  0.280905  0.754719  0.123713
    C   C37  0.559106  0.246058  0.750543  -0.090324
    C   C38  0.490222  0.169001  0.808377  -0.160791
    H   H20  0.618638  0.262033  0.751292  0.143522
    H   H21  0.433560  0.148626  0.802373  0.127839
    C   C39  0.441715  0.689705  0.310755  -0.096336
    C   C40  0.509173  0.678436  0.299287  -0.157047
    H   H22  0.382459  0.648005  0.371663  0.139285
    H   H23  0.565257  0.713173  0.236159  0.124884
    C   C41  0.442400  0.751269  0.239475  -0.076795
    C   C42  0.511986  0.827673  0.180665  -0.176909
    H   H24  0.382745  0.736182  0.239122  0.136529
    H   H25  0.569075  0.847395  0.186027  0.131788
    C   C43  0.920757  0.078069  0.738903  0.762991
    C   C44  0.925948  0.149467  0.761204  -0.401319
    C   C45  0.922195  0.009300  0.806163  -0.370290
    C   C46  0.002148  0.119742  0.654054  -0.465785
    H   H26  0.886239  0.123628  0.830716  0.065966
    H   H27  0.906151  0.189819  0.725116  0.067811
    H   H28  0.991977  0.191234  0.744592  0.079591
    H   H29  0.868373  0.983097  0.870762  0.062221
    H   H30  0.983441  0.037250  0.805525  0.059546
    H   H31  0.916197  0.956103  0.792164  0.061891
    H   H32  0.997259  0.158825  0.600288  0.095435
    H   H33  0.014784  0.069555  0.646800  0.169765
    H   H34  0.058867  0.162004  0.653205  0.073274
