# Generated by REPEAT Assigner based on pymatgen
data_DB0-m2_o2_o17_f0_pcu.sym.77
_audit_creation_date              2022-05-24
_audit_creation_method            REPEAT_Assigner
_cell_length_a                    15.090327
_cell_length_b                    13.676058
_cell_length_c                    14.970293
_cell_angle_alpha                 90.000000
_cell_angle_beta                  90.005887
_cell_angle_gamma                 90.000000
_cell_volume                      3089.511971
_symmetry_space_group_name_H-M    P1
_symmetry_Int_Tables_number       1
loop_
    _symmetry_equiv_pos_site_id
    _symmetry_equiv_pos_as_xyz
    1  x,y,z
loop_
    _atom_site_type_symbol
    _atom_site_label
    _atom_site_fract_x
    _atom_site_fract_y
    _atom_site_fract_z
    _atom_type_partial_charge
    O   O1   0.372531  0.585760  0.506825  -0.609537
    O   O2   0.629144  0.416596  0.490765  -0.570827
    O   O3   0.629132  0.584409  0.486135  -0.632721
    O   O4   0.372678  0.417705  0.515925  -0.544113
    C   C1   0.331131  0.502100  0.514642  0.661771
    C   C2   0.670639  0.500463  0.484797  0.658047
    O   O5   0.487871  0.584928  0.370436  -0.733911
    O   O6   0.510309  0.416913  0.629823  -0.714007
    O   O7   0.508561  0.585035  0.629332  -0.727419
    O   O8   0.485388  0.417003  0.371342  -0.744902
    C   C3   0.483414  0.500670  0.329062  1.081049
    C   C4   0.517168  0.501227  0.670992  1.051374
    Cu  Cu1  0.500366  0.598826  0.499802  0.955344
    Cu  Cu2  0.500888  0.403210  0.500206  0.790288
    C   C5   0.592963  0.501323  0.821131  0.040225
    C   C6   0.406511  0.495531  0.178912  0.069717
    C   C7   0.516448  0.501406  0.768900  -0.244408
    C   C8   0.483134  0.499833  0.231108  -0.256914
    C   C9   0.434801  0.500584  0.810033  -0.192770
    C   C10  0.564548  0.503472  0.189700  -0.207108
    C   C11  0.428004  0.499367  0.901826  0.163521
    C   C12  0.571133  0.503008  0.098015  0.179895
    C   C13  0.503198  0.500932  0.953827  -0.018876
    C   C14  0.495980  0.500472  0.046026  -0.028413
    C   C15  0.585607  0.502379  0.913683  0.138491
    C   C16  0.413701  0.497026  0.086303  0.124098
    C   C17  0.345754  0.496696  0.941604  -0.209639
    C   C18  0.653374  0.504949  0.058424  -0.213348
    C   C19  0.338371  0.495028  0.033210  -0.208207
    C   C20  0.660867  0.504113  0.966856  -0.216105
    H   H1   0.375752  0.500066  0.769194  0.114966
    H   H2   0.623889  0.506356  0.230131  0.111746
    H   H3   0.286357  0.495427  0.901260  0.126426
    H   H4   0.712592  0.506459  0.099031  0.129046
    H   H5   0.272507  0.492432  0.061372  0.119691
    H   H6   0.726761  0.505217  0.938866  0.122245
    C   C21  0.097992  0.587850  0.487953  -0.087220
    C   C22  0.906783  0.417379  0.473471  -0.109215
    C   C23  0.903682  0.587345  0.508185  -0.101929
    C   C24  0.095129  0.420091  0.531022  -0.114127
    H   H7   0.066670  0.654246  0.465015  0.099233
    H   H8   0.941657  0.350042  0.459963  0.106211
    H   H9   0.935225  0.654276  0.529032  0.100620
    H   H10  0.060412  0.353935  0.548723  0.106891
    C   C25  0.188940  0.588044  0.495315  -0.101168
    C   C26  0.815328  0.416571  0.468680  -0.086493
    C   C27  0.812717  0.587193  0.500280  -0.088273
    C   C28  0.186482  0.419597  0.535450  -0.069611
    H   H11  0.224344  0.654406  0.479062  0.096460
    H   H12  0.781605  0.348691  0.453884  0.086852
    H   H13  0.777306  0.654315  0.513277  0.094075
    H   H14  0.219944  0.352709  0.553604  0.081560
    C   C29  0.233976  0.503418  0.516757  -0.063158
    C   C30  0.767773  0.501419  0.482545  -0.038440
    C   C31  0.049744  0.503506  0.504909  0.021461
    C   C32  0.952089  0.502562  0.495087  0.014187
    C   C33  0.571075  0.106544  0.532521  -0.173479
    C   C34  0.453488  0.894615  0.435350  -0.232114
    C   C35  0.427278  0.107386  0.468582  -0.189985
    C   C36  0.543294  0.895365  0.565387  -0.229046
    H   H15  0.630013  0.069619  0.555644  0.120707
    H   H16  0.418271  0.930883  0.382085  0.129844
    H   H17  0.368458  0.071016  0.444515  0.125187
    H   H18  0.576633  0.932365  0.619602  0.128199
    C   C37  0.569809  0.207362  0.533635  -0.065425
    C   C38  0.454166  0.793672  0.437094  0.060477
    C   C39  0.429060  0.208180  0.468788  -0.036119
    C   C40  0.544003  0.794685  0.564040  0.065940
    H   H19  0.626335  0.246343  0.560127  0.135183
    H   H20  0.417548  0.753858  0.386984  0.095722
    H   H21  0.372862  0.247721  0.442606  0.121774
    H   H22  0.579878  0.755870  0.615461  0.086238
    N   N1   0.500074  0.256864  0.500273  0.081297
    N   N2   0.501897  0.745134  0.499040  -0.067631
    C   C41  0.499072  0.054948  0.500088  0.124021
    C   C42  0.498836  0.946995  0.499949  0.144515
    N   N3   0.678879  0.498347  0.783635  -0.102016
    C   C43  0.711521  0.584776  0.740971  -0.021494
    C   C44  0.811479  0.576368  0.736307  -0.042525
    O   O9   0.835876  0.492571  0.688131  -0.194034
    C   C45  0.806652  0.410812  0.736358  -0.015425
    C   C46  0.706472  0.409730  0.740943  0.004089
    H   H23  0.692843  0.649944  0.780829  0.040859
    H   H24  0.684537  0.591190  0.672473  0.078593
    H   H25  0.839830  0.574324  0.804622  0.042599
    H   H26  0.838107  0.641905  0.701950  0.067711
    H   H27  0.834938  0.410990  0.804723  0.032137
    H   H28  0.829408  0.343535  0.701946  0.057286
    H   H29  0.683822  0.345962  0.780590  0.033292
    H   H30  0.679672  0.405336  0.672291  0.050080
    N   N4   0.320530  0.490443  0.216144  -0.109227
    C   C47  0.285647  0.576811  0.256847  -0.032720
    C   C48  0.185873  0.565685  0.261120  -0.022272
    O   O10  0.162923  0.482588  0.311029  -0.203978
    C   C49  0.194968  0.400177  0.265576  -0.029471
    C   C50  0.295191  0.402581  0.261343  0.006972
    H   H31  0.302832  0.641627  0.215869  0.039054
    H   H32  0.312447  0.585394  0.325187  0.089253
    H   H33  0.157931  0.561118  0.192713  0.041115
    H   H34  0.157725  0.631332  0.294014  0.062364
    H   H35  0.166675  0.396232  0.197281  0.036527
    H   H36  0.174482  0.333636  0.302525  0.059964
    H   H37  0.319838  0.338086  0.223965  0.032200
    H   H38  0.321462  0.402149  0.330248  0.061132
