# Generated by REPEAT Assigner based on pymatgen
data_DB0-m3_o25_o540_f0_fsc.sym.34
_audit_creation_date              2022-05-24
_audit_creation_method            REPEAT_Assigner
_cell_length_a                    14.287866
_cell_length_b                    8.552209
_cell_length_c                    23.268049
_cell_angle_alpha                 90.000000
_cell_angle_beta                  93.855051
_cell_angle_gamma                 90.000000
_cell_volume                      2836.755370
_symmetry_space_group_name_H-M    P1
_symmetry_Int_Tables_number       1
loop_
    _symmetry_equiv_pos_site_id
    _symmetry_equiv_pos_as_xyz
    1  x,y,z
loop_
    _atom_site_type_symbol
    _atom_site_label
    _atom_site_fract_x
    _atom_site_fract_y
    _atom_site_fract_z
    _atom_type_partial_charge
    C   C1   0.966312  0.107522  0.791229  0.461360
    C   C2   0.969155  0.856248  0.206003  0.485410
    C   C3   0.033688  0.107522  0.208771  0.461240
    C   C4   0.030846  0.856248  0.793997  0.485697
    O   O1   0.922438  0.225073  0.762210  -0.482917
    O   O2   0.924808  0.738524  0.231021  -0.502269
    O   O3   0.077562  0.225073  0.237790  -0.482912
    O   O4   0.075192  0.738524  0.768979  -0.502322
    N   N1   0.999629  0.982580  0.762901  -0.240922
    N   N2   0.000372  0.982580  0.237099  -0.240696
    C   C5   0.998825  0.847477  0.669184  -0.292985
    C   C6   0.980672  0.124913  0.328133  -0.330000
    C   C7   0.001175  0.847477  0.330816  -0.292990
    C   C8   0.019328  0.124913  0.671866  -0.330002
    C   C9   0.023046  0.845738  0.612767  -0.020406
    C   C10  0.972902  0.123522  0.386864  -0.030634
    C   C11  0.976955  0.845738  0.387233  -0.020390
    C   C12  0.027098  0.123522  0.613136  -0.030611
    C   C13  0.005649  0.985308  0.701173  0.370463
    C   C14  0.994352  0.985308  0.298826  0.370422
    C   C15  0.998080  0.981475  0.881574  0.103947
    C   C16  0.001920  0.981475  0.118426  0.103889
    C   C17  0.974534  0.113711  0.850789  -0.115853
    C   C18  0.978713  0.849277  0.147354  -0.125682
    C   C19  0.025466  0.113711  0.149211  -0.115728
    C   C20  0.021288  0.849277  0.852646  -0.125756
    C   C21  0.956964  0.250213  0.879852  -0.047565
    C   C22  0.960748  0.712665  0.117021  -0.044579
    C   C23  0.043037  0.250213  0.120147  -0.047616
    C   C24  0.039252  0.712665  0.882979  -0.044797
    C   C25  0.037948  0.984210  0.585152  -0.130473
    C   C26  0.962052  0.984210  0.414848  -0.130445
    H   H1   0.027010  0.236289  0.693227  0.182952
    H   H2   0.024659  0.739406  0.312664  0.182936
    H   H3   0.972990  0.236289  0.306773  0.182952
    H   H4   0.975341  0.739406  0.687336  0.182922
    H   H5   0.937006  0.355872  0.856682  0.117866
    H   H6   0.940926  0.607088  0.138644  0.121863
    H   H7   0.062994  0.355872  0.143317  0.117879
    H   H8   0.059074  0.607088  0.861356  0.121903
    C   C27  0.007510  0.120776  0.029835  0.033958
    C   C28  0.006364  0.842325  0.970673  0.034921
    C   C29  0.992490  0.120776  0.970165  0.033819
    C   C30  0.993636  0.842325  0.029327  0.035133
    C   C31  0.001155  0.981516  0.059141  0.048114
    C   C32  0.998845  0.981516  0.940859  0.048232
    C   C33  0.029683  0.255603  0.060869  -0.174706
    C   C34  0.027497  0.707368  0.941277  -0.174831
    C   C35  0.970317  0.255603  0.939130  -0.174654
    C   C36  0.972503  0.707368  0.058723  -0.175102
    H   H9   0.043634  0.364230  0.039666  0.123416
    H   H10  0.042386  0.598863  0.963512  0.122688
    H   H11  0.956367  0.364230  0.960334  0.123377
    H   H12  0.957614  0.598863  0.036488  0.122741
    H   H13  0.049563  0.983835  0.539857  0.125558
    H   H14  0.950438  0.983835  0.460143  0.125543
    O   O5   0.092411  0.654081  0.554073  -0.745827
    O   O6   0.907186  0.315672  0.445650  -0.760427
    O   O7   0.907589  0.654081  0.445927  -0.745822
    O   O8   0.092814  0.315672  0.554350  -0.760422
    O   O9   0.933140  0.646716  0.565319  -0.701091
    O   O10  0.066496  0.320904  0.434949  -0.707644
    O   O11  0.066860  0.646716  0.434681  -0.701066
    O   O12  0.933505  0.320904  0.565050  -0.707657
    C   C37  0.017024  0.703232  0.578181  0.854186
    C   C38  0.981740  0.266018  0.421501  0.890964
    C   C39  0.982976  0.703232  0.421819  0.854137
    C   C40  0.018260  0.266018  0.578499  0.890954
    Zn  Zn1  0.896618  0.484350  0.505281  1.095948
    Zn  Zn2  0.103382  0.484350  0.494719  1.095845
    C   C41  0.468202  0.360083  0.525051  -0.225508
    C   C42  0.532084  0.613234  0.474913  -0.196406
    C   C43  0.531798  0.360083  0.474948  -0.225382
    C   C44  0.467916  0.613234  0.525086  -0.196503
    H   H15  0.559421  0.255300  0.453683  0.095257
    H   H16  0.438642  0.717747  0.545618  0.083333
    H   H17  0.440579  0.255300  0.546316  0.095274
    H   H18  0.561358  0.717747  0.454382  0.083325
    N   N3   0.774490  0.484306  0.510405  0.076725
    N   N4   0.225511  0.484306  0.489595  0.076970
    C   C45  0.528305  0.486912  0.554416  0.115223
    C   C46  0.471695  0.486912  0.445583  0.115171
    C   C47  0.590737  0.486242  0.505008  0.665398
    C   C48  0.409263  0.486242  0.494992  0.665867
    C   C49  0.693369  0.485023  0.508709  -0.322429
    C   C50  0.306632  0.485023  0.491290  -0.322865
    C   C51  0.441904  0.479424  0.381611  -0.349769
    C   C52  0.365084  0.596604  0.363645  0.597438
    C   C53  0.393328  0.761507  0.381503  -0.378072
    C   C54  0.346646  0.590783  0.298699  -0.372055
    H   H19  0.415568  0.359949  0.371408  0.068744
    H   H20  0.504189  0.501293  0.356780  0.079469
    H   H21  0.299376  0.564986  0.383443  -0.089664
    H   H22  0.464902  0.787130  0.368369  0.083993
    H   H23  0.390392  0.775083  0.428695  0.047557
    H   H24  0.343446  0.846040  0.360164  0.078521
    H   H25  0.409698  0.630751  0.277559  0.064473
    H   H26  0.286519  0.667649  0.285416  0.075485
    H   H27  0.329517  0.469287  0.285062  0.074420
    C   C55  0.558097  0.479424  0.618389  -0.349615
    C   C56  0.634916  0.596604  0.636355  0.597317
    C   C57  0.606672  0.761507  0.618497  -0.378092
    C   C58  0.653354  0.590783  0.701300  -0.372083
    H   H28  0.584433  0.359949  0.628592  0.068712
    H   H29  0.495811  0.501293  0.643219  0.079423
    H   H30  0.700625  0.564986  0.616557  -0.089600
    H   H31  0.535098  0.787130  0.631631  0.084008
    H   H32  0.609608  0.775083  0.571305  0.047556
    H   H33  0.656554  0.846040  0.639836  0.078537
    H   H34  0.590302  0.630751  0.722441  0.064489
    H   H35  0.713482  0.667649  0.714584  0.075493
    H   H36  0.670484  0.469287  0.714937  0.074427
