# Generated by REPEAT Assigner based on pymatgen
data_DB0-m3_o1_o450_f0_fsc.sym.31
_audit_creation_date              2022-05-24
_audit_creation_method            REPEAT_Assigner
_cell_length_a                    12.678384
_cell_length_b                    9.182278
_cell_length_c                    8.560041
_cell_angle_alpha                 90.000000
_cell_angle_beta                  94.990261
_cell_angle_gamma                 90.000000
_cell_volume                      992.752247
_symmetry_space_group_name_H-M    P1
_symmetry_Int_Tables_number       1
loop_
    _symmetry_equiv_pos_site_id
    _symmetry_equiv_pos_as_xyz
    1  x,y,z
loop_
    _atom_site_type_symbol
    _atom_site_label
    _atom_site_fract_x
    _atom_site_fract_y
    _atom_site_fract_z
    _atom_type_partial_charge
    C   C1   0.706290  0.002579  0.163826  -0.026708
    C   C2   0.285686  0.994577  0.827363  -0.030274
    C   C3   0.813388  0.972170  0.173399  -0.261797
    C   C4   0.178586  0.024976  0.817788  -0.258626
    H   H1   0.857004  0.958921  0.286676  0.121188
    H   H2   0.134970  0.038218  0.704509  0.120340
    C   C5   0.865778  0.966557  0.037573  0.488748
    C   C6   0.126196  0.030588  0.953614  0.488324
    C   C7   0.808146  0.969831  0.892007  -0.384365
    C   C8   0.183828  0.027322  0.099180  -0.390790
    C   C9   0.701974  0.004802  0.884542  0.050645
    C   C10  0.290001  0.992356  0.106647  0.055792
    C   C11  0.653853  0.029531  0.019753  -0.150102
    C   C12  0.338124  0.967630  0.971436  -0.152512
    N   N1   0.977578  0.963518  0.049417  -0.280367
    N   N2   0.014396  0.033624  0.941769  -0.279033
    C   C13  0.405525  0.576991  0.481470  -0.019930
    C   C14  0.586451  0.420167  0.509718  -0.022496
    C   C15  0.589819  0.570284  0.510974  -0.263884
    C   C16  0.402157  0.426874  0.480215  -0.262278
    H   H3   0.571193  0.057655  0.012411  0.096906
    H   H4   0.420785  0.939511  0.978778  0.097764
    H   H5   0.332569  0.638486  0.469936  0.144804
    H   H6   0.659407  0.358672  0.521252  0.146908
    H   H7   0.665154  0.626105  0.523167  0.262927
    H   H8   0.326822  0.371053  0.468021  0.262916
    O   O1   0.598264  0.125169  0.680215  -0.785905
    O   O2   0.393712  0.871989  0.310973  -0.790989
    O   O3   0.385711  0.123467  0.311914  -0.768992
    O   O4   0.606264  0.873691  0.679275  -0.767666
    Zn  Zn1  0.499045  0.837986  0.496433  1.067812
    Zn  Zn2  0.492931  0.159171  0.494756  1.055864
    C   C17  0.635003  0.001206  0.737817  0.978690
    C   C18  0.356973  0.995952  0.253372  0.982993
    O   O5   0.388077  0.873089  0.646665  -0.775935
    O   O6   0.603899  0.124068  0.344523  -0.774385
    O   O7   0.611780  0.873399  0.349071  -0.763266
    O   O8   0.380196  0.123759  0.642118  -0.764074
    C   C19  0.348607  0.996825  0.691518  0.963153
    C   C20  0.643369  0.000333  0.299670  0.958080
    N   N3   0.492760  0.350212  0.494321  0.232265
    N   N4   0.499216  0.646946  0.496867  0.227606
    C   C21  0.856067  0.926144  0.748534  0.560393
    O   O9   0.819936  0.970843  0.620807  -0.451448
    O   O10  0.935876  0.828710  0.757013  -0.180283
    C   C22  0.975308  0.777988  0.623166  -0.015828
    H   H9   0.040469  0.700044  0.655001  0.065945
    H   H10  0.006102  0.870192  0.556970  0.082691
    H   H11  0.911619  0.721802  0.549191  0.022676
    C   C23  0.135905  0.071012  0.242650  0.567159
    O   O11  0.172039  0.026327  0.370380  -0.453804
    O   O12  0.056089  0.168437  0.234164  -0.182467
    C   C24  0.016649  0.219154  0.368008  -0.016500
    H   H12  0.951481  0.297086  0.336165  0.066340
    H   H13  0.080333  0.275352  0.441983  0.023079
    H   H14  0.985862  0.126945  0.434205  0.082696
