# Generated by REPEAT Assigner based on pymatgen
data_DB0-m29_o89_o47_f0_pts.sym.70
_audit_creation_date              2022-05-24
_audit_creation_method            REPEAT_Assigner
_cell_length_a                    14.695422
_cell_length_b                    9.353662
_cell_length_c                    15.166850
_cell_angle_alpha                 94.265560
_cell_angle_beta                  91.835294
_cell_angle_gamma                 113.228372
_cell_volume                      1906.188823
_symmetry_space_group_name_H-M    P1
_symmetry_Int_Tables_number       1
loop_
    _symmetry_equiv_pos_site_id
    _symmetry_equiv_pos_as_xyz
    1  x,y,z
loop_
    _atom_site_type_symbol
    _atom_site_label
    _atom_site_fract_x
    _atom_site_fract_y
    _atom_site_fract_z
    _atom_type_partial_charge
    C   C1   0.862920  0.074013  0.092933  -0.241015
    C   C2   0.770833  0.043701  0.052727  0.030614
    C   C3   0.748193  0.977504  0.965738  0.097187
    C   C4   0.817619  0.940998  0.920612  -0.258215
    C   C5   0.909935  0.970673  0.961569  0.153007
    C   C6   0.932453  0.035984  0.048448  0.214139
    C   C7   0.979150  0.932615  0.916687  -0.304250
    C   C8   0.069986  0.959036  0.958019  0.179278
    C   C9   0.092948  0.024284  0.044492  0.251173
    C   C10  0.024291  0.063325  0.090119  -0.293505
    C   C11  0.138132  0.920870  0.911829  -0.190126
    C   C12  0.229828  0.946111  0.951537  -0.036868
    C   C13  0.251980  0.008538  0.039281  0.115084
    C   C14  0.184208  0.047740  0.084764  -0.365364
    H   H1   0.878651  0.127680  0.160062  0.154683
    H   H2   0.963464  0.880575  0.849045  0.166965
    H   H3   0.119911  0.873222  0.843366  0.148307
    H   H4   0.205535  0.097073  0.152523  0.177640
    N   N1   0.122079  0.271142  0.208080  -0.213997
    C   C15  0.122702  0.293576  0.296772  -0.114379
    C   C16  0.048930  0.166814  0.327939  -0.202855
    C   C17  0.001692  0.063371  0.254973  -0.191543
    C   C18  0.048594  0.131592  0.182344  0.293339
    H   H5   0.169593  0.347722  0.167028  0.305866
    H   H6   0.173968  0.396245  0.336598  0.144723
    H   H7   0.031662  0.151454  0.396246  0.161095
    H   H8   0.940375  0.951041  0.254833  0.151936
    O   O1   0.615294  0.070968  0.071046  -0.523364
    C   C19  0.695965  0.066108  0.107314  0.586442
    O   O2   0.544214  0.780629  0.152273  -0.587920
    O   O3   0.705521  0.067473  0.193741  -0.543673
    O   O4   0.508410  0.923895  0.262454  -0.613778
    C   C20  0.525536  0.800850  0.235234  0.686416
    Fe  Fe1  0.519521  0.053177  0.162594  1.502997
    O   O5   0.383367  0.946540  0.101619  -0.638501
    O   O6   0.400459  0.199035  0.114163  -0.521128
    C   C21  0.350076  0.052872  0.083428  0.677173
    O   O7   0.566673  0.275904  0.214722  -0.657943
    O   O8   0.446891  0.155256  0.306490  -0.542637
    C   C22  0.516181  0.283799  0.283597  0.655191
    O   O9   0.432844  0.715527  0.787972  -0.695239
    O   O10  0.553207  0.834834  0.696443  -0.493687
    C   C23  0.483350  0.706787  0.719215  0.707253
    O   O11  0.618715  0.042481  0.900591  -0.625601
    O   O12  0.593002  0.786990  0.900140  -0.449050
    C   C24  0.649573  0.934720  0.921951  0.593942
    O   O13  0.293322  0.918650  0.809985  -0.554625
    O   O14  0.493812  0.068366  0.740495  -0.655728
    C   C25  0.474879  0.189880  0.767476  0.722804
    O   O15  0.386923  0.922798  0.932317  -0.527975
    C   C26  0.304726  0.923877  0.896499  0.623560
    O   O16  0.454705  0.208558  0.850129  -0.590279
    Fe  Fe2  0.481980  0.938565  0.840219  1.495387
    C   C27  0.522415  0.436071  0.322476  0.011075
    C   C28  0.530795  0.549055  0.265939  -0.152786
    C   C29  0.522391  0.685701  0.296507  0.028789
    C   C30  0.508139  0.711365  0.384621  -0.262942
    C   C31  0.503658  0.602141  0.442433  0.320733
    C   C32  0.510913  0.464304  0.412002  0.001744
    C   C33  0.491136  0.631962  0.530788  -0.305965
    C   C34  0.488264  0.526065  0.590815  0.061186
    C   C35  0.495696  0.388366  0.560378  0.258464
    C   C36  0.508141  0.358509  0.472034  -0.277141
    C   C37  0.476685  0.554191  0.680354  -0.035404
    C   C38  0.468594  0.441252  0.736890  -0.086079
    C   C39  0.477463  0.304910  0.706295  0.002178
    C   C40  0.491616  0.279350  0.618174  -0.244567
    H   H9   0.538470  0.525975  0.196314  0.200588
    H   H10  0.501429  0.818112  0.408906  0.189863
    H   H11  0.461038  0.464325  0.806545  0.174335
    H   H12  0.498563  0.172800  0.593870  0.183744
    H   H13  0.518505  0.253291  0.452024  0.167416
    H   H14  0.480886  0.737273  0.550835  0.143397
    C   C41  0.792575  0.872129  0.828786  0.410690
    C   C42  0.729267  0.720162  0.803611  -0.161957
    C   C43  0.729773  0.703575  0.713987  -0.242832
    C   C44  0.793733  0.846236  0.690872  0.000662
    O   O17  0.832840  0.949475  0.760682  -0.172110
    H   H15  0.689848  0.630762  0.845938  0.129673
    H   H16  0.689410  0.599291  0.670074  0.154910
    H   H17  0.811387  0.872129  0.623682  0.139373
