# Generated by REPEAT Assigner based on pymatgen
data_DB0-m3_o4_o20_f0_pcu.sym.86
_audit_creation_date              2022-05-24
_audit_creation_method            REPEAT_Assigner
_cell_length_a                    14.532862
_cell_length_b                    10.974840
_cell_length_c                    9.851682
_cell_angle_alpha                 90.004523
_cell_angle_beta                  89.996623
_cell_angle_gamma                 89.997449
_cell_volume                      1571.302241
_symmetry_space_group_name_H-M    P1
_symmetry_Int_Tables_number       1
loop_
    _symmetry_equiv_pos_site_id
    _symmetry_equiv_pos_as_xyz
    1  x,y,z
loop_
    _atom_site_type_symbol
    _atom_site_label
    _atom_site_fract_x
    _atom_site_fract_y
    _atom_site_fract_z
    _atom_type_partial_charge
    O   O1   0.509282  0.310747  0.625007  -0.687178
    O   O2   0.510320  0.310458  0.389973  -0.645403
    C   C1   0.509423  0.253832  0.507226  0.752531
    O   O3   0.375073  0.494871  0.626005  -0.615582
    O   O4   0.374525  0.494181  0.390692  -0.649730
    C   C2   0.332189  0.495463  0.508549  0.833861
    Zn  Zn1  0.512567  0.492816  0.659966  1.000202
    Zn  Zn2  0.511248  0.491501  0.350548  1.019577
    O   O5   0.513750  0.673982  0.620132  -0.711279
    O   O6   0.513713  0.673312  0.385858  -0.659332
    O   O7   0.649084  0.488424  0.618677  -0.552387
    O   O8   0.648666  0.489500  0.385001  -0.629607
    C   C3   0.513957  0.730544  0.502751  0.815718
    C   C4   0.691700  0.488340  0.501677  0.785215
    C   C5   0.233448  0.495137  0.508665  -0.281048
    C   C6   0.150538  0.494116  0.507782  0.109629
    C   C7   0.053394  0.492399  0.506040  -0.053972
    C   C8   0.970494  0.490824  0.504369  -0.013094
    C   C9   0.873351  0.489195  0.502605  0.066691
    C   C10  0.790440  0.488341  0.501670  -0.237372
    C   C11  0.490541  0.051529  0.616652  0.061478
    C   C12  0.511173  0.120440  0.504795  -0.183121
    C   C13  0.533557  0.056957  0.387089  -0.088558
    H   H1   0.550895  0.105303  0.295006  0.100597
    C   C14  0.534897  0.929830  0.385685  -0.093242
    H   H2   0.553110  0.883367  0.292757  0.101333
    C   C15  0.513796  0.863963  0.501974  -0.272889
    C   C16  0.491445  0.930537  0.615131  0.271604
    C   C17  0.457446  0.918275  0.756266  -0.280422
    C   C18  0.456624  0.060379  0.758149  -0.055541
    H   H3   0.387499  0.878077  0.760881  0.096631
    H   H4   0.509569  0.878825  0.824860  0.072970
    H   H5   0.386032  0.098255  0.763459  0.075770
    H   H6   0.508470  0.100080  0.827917  0.049891
    C   C19  0.443130  0.442401  0.068795  0.178580
    N   N1   0.509145  0.489045  0.147519  -0.051363
    C   C20  0.580811  0.539514  0.081126  -0.125108
    H   H7   0.636879  0.577960  0.138835  0.159021
    C   C21  0.582845  0.545816  0.939161  0.047470
    N   N2   0.514519  0.494621  0.863370  -0.017716
    C   C22  0.445935  0.444381  0.935253  0.099138
    C   C23  0.355064  0.385063  0.917655  -0.076141
    C   C24  0.352166  0.382201  0.077165  -0.188890
    H   H8   0.302849  0.447309  0.873811  0.087200
    H   H9   0.360526  0.293357  0.871581  0.060427
    H   H10  0.298545  0.442715  0.120405  0.110648
    H   H11  0.356674  0.288827  0.119673  0.096824
    S   S1   0.678657  0.621564  0.861478  -0.050753
    C   C25  0.663234  0.763415  0.954024  -0.006620
    H   H12  0.678538  0.840954  0.885474  0.086112
    H   H13  0.710836  0.766056  0.041959  0.021108
    H   H14  0.591314  0.771959  0.990017  0.066123
