# Generated by REPEAT Assigner based on pymatgen
data_DB0-m3_o7_o19_f0_pcu.sym.22_sqe
_audit_creation_date              2022-05-24
_audit_creation_method            REPEAT_Assigner
_cell_length_a                    17.827178
_cell_length_b                    16.701332
_cell_length_c                    11.918773
_cell_angle_alpha                 90.000000
_cell_angle_beta                  89.997089
_cell_angle_gamma                 90.000000
_cell_volume                      3548.667060
_symmetry_space_group_name_H-M    P1
_symmetry_Int_Tables_number       1
loop_
    _symmetry_equiv_pos_site_id
    _symmetry_equiv_pos_as_xyz
    1  x,y,z
loop_
    _atom_site_type_symbol
    _atom_site_label
    _atom_site_fract_x
    _atom_site_fract_y
    _atom_site_fract_z
    _atom_type_partial_charge
    O   O1   0.388260  0.568487  0.500830  -0.552299
    O   O2   0.611817  0.430409  0.500268  -0.615962
    O   O3   0.611732  0.568489  0.499280  -0.552474
    O   O4   0.388177  0.430407  0.499840  -0.615828
    C   C1   0.352636  0.499466  0.502137  0.592466
    C   C2   0.647357  0.499469  0.497972  0.593007
    O   O5   0.499793  0.568840  0.332928  -0.626401
    O   O6   0.499428  0.430896  0.667038  -0.670731
    O   O7   0.500199  0.568840  0.667181  -0.626586
    O   O8   0.500565  0.430897  0.333071  -0.670659
    C   C3   0.500233  0.499847  0.280790  0.930623
    C   C4   0.499760  0.499846  0.719319  0.930781
    Zn  Zn1  0.499996  0.590869  0.500055  0.961983
    Zn  Zn2  0.499997  0.408227  0.500054  1.009147
    C   C5   0.447300  0.834738  0.438801  -0.011092
    C   C6   0.519979  0.162651  0.594628  -0.166334
    C   C7   0.552689  0.834739  0.561309  -0.011685
    C   C8   0.480017  0.162651  0.405479  -0.166061
    C   C9   0.448657  0.751695  0.438282  -0.047879
    C   C10  0.520111  0.245722  0.593626  -0.009181
    C   C11  0.551332  0.751696  0.561829  -0.047317
    C   C12  0.479885  0.245722  0.406481  -0.009150
    N   N1   0.499995  0.710920  0.500055  0.057825
    N   N2   0.499998  0.287806  0.500054  0.115177
    C   C13  0.499995  0.962555  0.500054  -0.009227
    C   C14  0.499996  0.034788  0.500054  -0.171642
    C   C15  0.500177  0.499794  0.160389  -0.240178
    C   C16  0.499817  0.499793  0.839720  -0.240246
    C   C17  0.500071  0.499772  0.059289  0.082504
    C   C18  0.499922  0.499772  0.940821  0.082508
    C   C19  0.499995  0.876413  0.500055  0.190123
    C   C20  0.499997  0.120928  0.500054  0.431052
    C   C21  0.843933  0.571427  0.441560  -0.289040
    C   C22  0.148907  0.452162  0.450701  -0.265720
    C   C23  0.156060  0.571422  0.558550  -0.288602
    C   C24  0.851086  0.452162  0.549398  -0.266392
    H   H1   0.872622  0.619078  0.397723  0.199521
    H   H2   0.115078  0.407339  0.409222  0.205670
    H   H3   0.127370  0.619072  0.602390  0.199495
    H   H4   0.884916  0.407337  0.590872  0.205820
    C   C25  0.766741  0.563828  0.434800  0.204529
    C   C26  0.225673  0.443220  0.456051  0.003129
    C   C27  0.233251  0.563823  0.565311  0.203792
    C   C28  0.774320  0.443220  0.544051  0.004442
    C   C29  0.730437  0.500760  0.489942  -0.146541
    C   C30  0.269555  0.500757  0.510165  -0.145422
    C   C31  0.885806  0.516033  0.499204  0.364666
    C   C32  0.114187  0.516032  0.500900  0.364390
    C   C33  0.966199  0.520373  0.499795  -0.154564
    C   C34  0.033794  0.520373  0.500307  -0.154619
    N   N3   0.392144  0.877234  0.375154  0.597006
    O   O9   0.380069  0.858911  0.270657  -0.271380
    O   O10  0.352099  0.933059  0.422111  -0.313643
    N   N4   0.542090  0.120120  0.693379  0.635669
    O   O11  0.604611  0.137857  0.743841  -0.275432
    O   O12  0.499134  0.064580  0.734938  -0.322610
    N   N5   0.607845  0.877234  0.624955  0.597221
    O   O13  0.619916  0.858916  0.729454  -0.271404
    O   O14  0.647893  0.933056  0.577995  -0.313657
    N   N6   0.457907  0.120120  0.306728  0.635463
    O   O15  0.395387  0.137856  0.256264  -0.275328
    O   O16  0.500863  0.064581  0.265169  -0.322578
    N   N7   0.392700  0.709693  0.376499  0.544224
    O   O17  0.323036  0.716409  0.407494  -0.287870
    O   O18  0.407156  0.688295  0.273872  -0.244284
    N   N8   0.538341  0.285482  0.695466  0.529850
    O   O19  0.496754  0.273577  0.783601  -0.256042
    O   O20  0.604827  0.316008  0.708067  -0.223219
    N   N9   0.607288  0.709695  0.623616  0.544591
    O   O21  0.676952  0.716409  0.592623  -0.288157
    O   O22  0.592830  0.688299  0.726244  -0.244405
    N   N10  0.461657  0.285482  0.304641  0.529558
    O   O23  0.503247  0.273579  0.216508  -0.255975
    O   O24  0.395170  0.316004  0.292035  -0.223207
    N   N11  0.726740  0.618083  0.363898  0.542824
    O   O25  0.753189  0.689747  0.347974  -0.364126
    O   O26  0.676757  0.590504  0.294408  -0.342739
    N   N12  0.257455  0.373935  0.405350  0.711422
    O   O27  0.283769  0.318027  0.470356  -0.368095
    O   O28  0.234985  0.354282  0.305270  -0.371706
    N   N13  0.273252  0.618075  0.636218  0.542798
    O   O29  0.246803  0.689739  0.652147  -0.364182
    O   O30  0.323234  0.590493  0.705707  -0.342563
    N   N14  0.742540  0.373933  0.594747  0.710970
    O   O31  0.716224  0.318028  0.529738  -0.368040
    O   O32  0.765011  0.354276  0.694824  -0.371767
