# Generated by REPEAT Assigner based on pymatgen
data_DB0-m3_o47_o23_f0_fsc.sym.8
_audit_creation_date              2022-05-24
_audit_creation_method            REPEAT_Assigner
_cell_length_a                    8.558842
_cell_length_b                    11.071808
_cell_length_c                    14.166004
_cell_angle_alpha                 90.573018
_cell_angle_beta                  92.685721
_cell_angle_gamma                 80.596982
_cell_volume                      1322.901266
_symmetry_space_group_name_H-M    P1
_symmetry_Int_Tables_number       1
loop_
    _symmetry_equiv_pos_site_id
    _symmetry_equiv_pos_as_xyz
    1  x,y,z
loop_
    _atom_site_type_symbol
    _atom_site_label
    _atom_site_fract_x
    _atom_site_fract_y
    _atom_site_fract_z
    _atom_type_partial_charge
    C   C1   0.090815  0.745991  0.974582  -0.102796
    C   C2   0.971396  0.677166  0.963660  -0.163098
    C   C3   0.816059  0.729145  0.974689  -0.037878
    C   C4   0.774287  0.852048  0.987922  -0.360421
    C   C5   0.888705  0.924845  0.990468  0.366191
    C   C6   0.047668  0.872419  0.986625  0.073281
    C   C7   0.841619  0.049748  0.999592  -0.433387
    C   C8   0.953091  0.125513  0.005630  0.076644
    C   C9   0.112055  0.073087  0.001785  0.372958
    C   C10  0.159141  0.948184  0.992662  -0.437664
    C   C11  0.909945  0.251942  0.017674  -0.127999
    C   C12  0.029365  0.320765  0.028597  -0.164995
    C   C13  0.184702  0.268787  0.017567  -0.041377
    C   C14  0.226473  0.145884  0.004331  -0.357420
    H   H1   0.001421  0.579983  0.952775  0.134990
    H   H2   0.651282  0.890834  0.996013  0.153407
    H   H3   0.999338  0.417948  0.039485  0.144524
    H   H4   0.349477  0.107097  0.996238  0.153485
    H   H5   0.283373  0.910336  0.988982  0.170579
    H   H6   0.717388  0.087597  0.003273  0.168474
    O   O1   0.350880  0.397348  0.087285  -0.744031
    O   O2   0.350995  0.364445  0.925966  -0.711477
    C   C15  0.303514  0.345798  0.010292  0.893886
    O   O3   0.309089  0.616998  0.904744  -0.739174
    O   O4   0.320687  0.649058  0.065586  -0.686574
    C   C16  0.254928  0.676304  0.980774  0.838971
    O   O5   0.649879  0.600585  0.904971  -0.739238
    O   O6   0.649765  0.633488  0.066292  -0.718170
    C   C17  0.697247  0.652134  0.981965  0.895760
    O   O7   0.691670  0.380935  0.087514  -0.761745
    O   O8   0.680073  0.348876  0.926670  -0.713758
    C   C18  0.745832  0.321630  0.011482  0.887144
    Zn  Zn1  0.495846  0.481611  0.891655  1.098459
    Zn  Zn2  0.504913  0.516323  0.100602  1.107190
    C   C19  0.605083  0.378740  0.543532  -0.211853
    C   C20  0.556372  0.603561  0.562683  -0.041423
    C   C21  0.586711  0.606852  0.458392  -0.146993
    H   H7   0.707831  0.367299  0.407060  0.047819
    H   H8   0.729264  0.383598  0.567193  0.048987
    H   H9   0.466130  0.683019  0.580957  0.011626
    H   H10  0.668076  0.607877  0.604591  0.029363
    H   H11  0.715990  0.584926  0.448338  0.047333
    H   H12  0.541048  0.699432  0.429803  0.064564
    N   N1   0.511251  0.531704  0.224079  -0.038478
    C   C22  0.495799  0.485977  0.584296  0.615727
    C   C23  0.588593  0.385389  0.436732  -0.001822
    C   C24  0.504540  0.511840  0.407932  0.279561
    C   C25  0.333530  0.526527  0.436089  0.476444
    C   C26  0.330883  0.491537  0.539160  -0.375544
    C   C27  0.509138  0.525172  0.305469  -0.110288
    C   C28  0.491462  0.472720  0.686779  -0.180358
    N   N2   0.489503  0.466229  0.768178  -0.021623
    H   H13  0.293681  0.400557  0.544319  0.071673
    H   H14  0.246561  0.560692  0.576232  0.114793
    H   H15  0.271452  0.464589  0.391505  -0.036028
    H   H16  0.573017  0.291372  0.567664  0.074521
    H   H17  0.518168  0.315717  0.409674  0.003436
    O   O9   0.261581  0.648430  0.423369  -0.363366
    C   C29  0.102044  0.645757  0.398808  -0.030254
    H   H18  0.053109  0.583783  0.446445  0.031238
    H   H19  0.088847  0.616827  0.324005  0.060047
    H   H20  0.033771  0.739185  0.406607  0.086157
