# Generated by REPEAT Assigner based on pymatgen
data_DB0-m2_o17_o25_f0_pcu.sym.126_sqe
_audit_creation_date              2022-05-24
_audit_creation_method            REPEAT_Assigner
_cell_length_a                    15.904881
_cell_length_b                    14.989893
_cell_length_c                    13.567478
_cell_angle_alpha                 89.987609
_cell_angle_beta                  90.009368
_cell_angle_gamma                 89.994549
_cell_volume                      3234.655724
_symmetry_space_group_name_H-M    P1
_symmetry_Int_Tables_number       1
loop_
    _symmetry_equiv_pos_site_id
    _symmetry_equiv_pos_as_xyz
    1  x,y,z
loop_
    _atom_site_type_symbol
    _atom_site_label
    _atom_site_fract_x
    _atom_site_fract_y
    _atom_site_fract_z
    _atom_type_partial_charge
    O   O1   0.500657  0.371437  0.586559  -0.620348
    O   O2   0.500341  0.629003  0.412925  -0.600170
    O   O3   0.502551  0.369739  0.417022  -0.582709
    O   O4   0.499293  0.630644  0.582394  -0.494864
    C   C1   0.501116  0.328702  0.502265  0.750108
    C   C2   0.499790  0.671721  0.497283  0.667882
    O   O5   0.375175  0.496808  0.576157  -0.586449
    O   O6   0.626260  0.504107  0.423410  -0.592345
    O   O7   0.382363  0.501040  0.406814  -0.643915
    O   O8   0.619100  0.498986  0.592570  -0.636915
    C   C3   0.339625  0.498493  0.489327  0.830242
    C   C4   0.661844  0.502021  0.510160  0.827139
    Cu  Cu1  0.496364  0.501250  0.598275  0.796490
    Cu  Cu2  0.505112  0.499187  0.401182  0.819019
    C   C5   0.976002  0.428005  0.543376  -0.201932
    C   C6   0.025469  0.572633  0.456321  -0.239631
    C   C7   0.025017  0.429777  0.447703  -0.206261
    C   C8   0.976452  0.570863  0.551994  -0.149955
    H   H1   0.046135  0.370463  0.405616  0.060868
    H   H2   0.955309  0.630162  0.594091  0.052820
    H   H3   0.938840  0.508886  0.335890  0.034406
    H   H4   0.062657  0.491747  0.663800  0.074840
    C   C9   0.249457  0.498443  0.485795  -0.139784
    C   C10  0.752011  0.502141  0.513737  -0.133492
    C   C11  0.033914  0.496457  0.589506  -0.187359
    C   C12  0.967561  0.504181  0.410193  -0.096066
    C   C13  0.081821  0.499501  0.493139  0.835909
    C   C14  0.919650  0.501138  0.506552  0.785055
    C   C15  0.173705  0.498785  0.487337  -0.452133
    C   C16  0.827764  0.501841  0.512277  -0.451452
    C   C17  0.484149  0.816692  0.411741  -0.227089
    C   C18  0.515402  0.183780  0.588307  -0.184496
    C   C19  0.500042  0.769575  0.497313  -0.052201
    C   C20  0.499185  0.230857  0.502774  -0.115583
    C   C21  0.515860  0.815422  0.583838  -0.134301
    C   C22  0.480764  0.184960  0.417092  -0.127165
    C   C23  0.515654  0.907419  0.584888  0.184314
    C   C24  0.481214  0.092987  0.415946  0.170190
    C   C25  0.499058  0.954170  0.499670  -0.029389
    C   C26  0.498514  0.046247  0.500964  -0.000375
    C   C27  0.483107  0.908833  0.413174  0.180711
    C   C28  0.515060  0.091618  0.587280  0.149642
    C   C29  0.531997  0.952728  0.671341  -0.240773
    C   C30  0.464534  0.047710  0.329572  -0.224327
    C   C31  0.531838  0.044665  0.672510  -0.188423
    C   C32  0.465800  0.955792  0.328090  -0.211608
    H   H5   0.471238  0.781908  0.343646  0.135514
    H   H6   0.529531  0.218578  0.656062  0.123710
    H   H7   0.529395  0.779822  0.651227  0.067769
    H   H8   0.465024  0.220608  0.350508  0.088073
    H   H9   0.545114  0.916499  0.738500  0.145133
    H   H10  0.450926  0.083956  0.262554  0.139542
    H   H11  0.544899  0.079573  0.740516  0.124049
    H   H12  0.453048  0.920898  0.259995  0.131205
    C   C33  0.547228  0.452037  0.792198  -0.112159
    C   C34  0.455088  0.549353  0.207207  -0.148587
    N   N1   0.489462  0.502648  0.745731  0.007504
    N   N2   0.512188  0.497849  0.253711  0.065663
    C   C35  0.435459  0.553737  0.799159  -0.168553
    C   C36  0.565264  0.445656  0.200159  -0.260520
    C   C37  0.439351  0.553602  0.901862  0.134097
    C   C38  0.562081  0.446820  0.097421  0.173784
    C   C39  0.498181  0.501122  0.948814  0.062440
    C   C40  0.503360  0.499479  0.050529  0.034758
    C   C41  0.552141  0.450388  0.893467  0.063740
    C   C42  0.449937  0.550855  0.105875  0.094856
    C   C43  0.385939  0.605982  0.958608  -0.213673
    C   C44  0.617306  0.396707  0.040485  -0.233626
    C   C45  0.391367  0.604210  0.059924  -0.151807
    C   C46  0.611883  0.398516  0.939249  -0.139521
    H   H13  0.590267  0.411667  0.749821  0.172682
    H   H14  0.412594  0.590346  0.249626  0.171787
    H   H15  0.339458  0.649693  0.926594  0.096389
    H   H16  0.665992  0.355572  0.072075  0.103122
    H   H17  0.349325  0.645243  0.103076  0.130564
    H   H18  0.655159  0.359032  0.896013  0.127064
    C   C47  0.948289  0.344783  0.593610  0.238648
    C   C48  0.002419  0.279925  0.626297  -0.210449
    C   C49  0.952711  0.216246  0.667036  -0.206755
    C   C50  0.871752  0.246778  0.656303  -0.114082
    O   O9   0.868569  0.325248  0.611521  -0.075747
    H   H19  0.070221  0.279633  0.620754  0.136442
    H   H20  0.972622  0.154448  0.700849  0.152474
    H   H21  0.816502  0.211377  0.681255  0.137146
    C   C51  0.053157  0.655847  0.406059  0.233603
    C   C52  0.998993  0.720660  0.373355  -0.196881
    C   C53  0.048661  0.784343  0.332560  -0.217211
    C   C54  0.129637  0.753856  0.343283  -0.107499
    O   O10  0.132865  0.675407  0.388110  -0.073882
    H   H22  0.931193  0.720911  0.378924  0.134017
    H   H23  0.028709  0.846112  0.298719  0.155062
    H   H24  0.184865  0.789276  0.318295  0.132650
    C   C55  0.370761  0.607315  0.750224  0.393443
    C   C56  0.287906  0.582165  0.742506  -0.120155
    C   C57  0.248205  0.652603  0.700263  -0.227805
    C   C58  0.309283  0.716227  0.686521  -0.130931
    O   O11  0.384009  0.689451  0.717963  -0.093299
    H   H25  0.260141  0.519847  0.765906  0.087661
    H   H26  0.182202  0.657841  0.682085  0.152892
    H   H27  0.298194  0.781322  0.654775  0.134268
    C   C59  0.627713  0.388863  0.248805  0.495189
    C   C60  0.620845  0.297802  0.256781  -0.078291
    C   C61  0.695131  0.269962  0.295161  -0.337460
    C   C62  0.742833  0.345706  0.306056  -0.045834
    O   O12  0.702630  0.418311  0.276351  -0.176454
    H   H28  0.568828  0.256741  0.233212  0.084594
    H   H29  0.713709  0.202134  0.311242  0.167234
    H   H30  0.806564  0.346572  0.333777  0.144290
