# Generated by REPEAT Assigner based on pymatgen
data_DB0-m3_o25_o510_f0_fsc.sym.38
_audit_creation_date              2022-05-24
_audit_creation_method            REPEAT_Assigner
_cell_length_a                    8.534589
_cell_length_b                    13.082203
_cell_length_c                    14.281248
_cell_angle_alpha                 90.595571
_cell_angle_beta                  90.003151
_cell_angle_gamma                 95.302004
_cell_volume                      1587.610091
_symmetry_space_group_name_H-M    P1
_symmetry_Int_Tables_number       1
loop_
    _symmetry_equiv_pos_site_id
    _symmetry_equiv_pos_as_xyz
    1  x,y,z
loop_
    _atom_site_type_symbol
    _atom_site_label
    _atom_site_fract_x
    _atom_site_fract_y
    _atom_site_fract_z
    _atom_type_partial_charge
    C   C1   0.170027  0.704012  0.017786  0.060836
    C   C2   0.828335  0.295980  0.982208  0.061150
    C   C3   0.180249  0.808391  0.001022  -0.370699
    C   C4   0.818110  0.191602  0.998960  -0.372438
    C   C5   0.044395  0.859327  0.998934  0.373689
    C   C6   0.953966  0.140674  0.001079  0.373650
    C   C7   0.898926  0.803117  0.003123  -0.311085
    C   C8   0.099432  0.196887  0.996917  -0.308485
    H   H1   0.791102  0.837936  0.991008  0.131196
    H   H2   0.207252  0.162069  0.009049  0.130213
    C   C9   0.890254  0.699446  0.019600  -0.000716
    C   C10  0.108105  0.300552  0.980412  -0.003285
    C   C11  0.025192  0.651696  0.031819  -0.195977
    C   C12  0.973169  0.348303  0.968193  -0.195348
    C   C13  0.056938  0.971364  0.986954  -0.260886
    C   C14  0.941423  0.028638  0.013051  -0.259639
    H   H3   0.164523  0.006595  0.956686  0.149328
    H   H4   0.833836  0.993411  0.043320  0.148895
    H   H5   0.294126  0.850305  0.991067  0.139558
    H   H6   0.704231  0.149683  0.008890  0.140101
    H   H7   0.017224  0.570395  0.044610  0.136130
    H   H8   0.981136  0.429605  0.955403  0.136112
    O   O1   0.350730  0.615376  0.928229  -0.712878
    O   O2   0.647642  0.384611  0.071758  -0.713499
    O   O3   0.352467  0.601805  0.089166  -0.708913
    O   O4   0.645887  0.398170  0.910828  -0.708068
    C   C15  0.305365  0.643162  0.011903  0.805453
    C   C16  0.692992  0.356817  0.988088  0.805909
    O   O5   0.310659  0.389518  0.070747  -0.721902
    O   O6   0.687715  0.610461  0.929251  -0.719840
    O   O7   0.318801  0.402881  0.909686  -0.713891
    O   O8   0.679557  0.597108  0.090302  -0.712563
    C   C17  0.257041  0.363833  0.986877  0.857635
    C   C18  0.741322  0.636158  0.013120  0.854430
    Zn  Zn1  0.496714  0.489403  0.103987  1.097757
    Zn  Zn2  0.501659  0.510580  0.896005  1.095541
    C   C19  0.634200  0.550368  0.527370  -0.251677
    C   C20  0.364749  0.449632  0.472626  -0.253595
    C   C21  0.619184  0.449536  0.471615  -0.260715
    C   C22  0.379766  0.550479  0.528361  -0.257149
    H   H9   0.718045  0.407316  0.446308  0.110864
    H   H10  0.280893  0.592713  0.553627  0.110017
    H   H11  0.745649  0.592484  0.551846  0.109301
    H   H12  0.253290  0.407492  0.448192  0.109583
    N   N1   0.493775  0.478861  0.226532  0.012505
    N   N2   0.504627  0.521124  0.773459  0.012388
    C   C23  0.512116  0.591353  0.464289  -0.059342
    C   C24  0.486851  0.408659  0.535698  -0.057549
    C   C25  0.497293  0.491936  0.409728  0.651780
    C   C26  0.501648  0.508074  0.590258  0.650095
    C   C27  0.494955  0.483121  0.307495  -0.256560
    C   C28  0.503720  0.516878  0.692494  -0.256723
    C   C29  0.472142  0.300913  0.575748  0.774669
    C   C30  0.325491  0.285085  0.636024  -0.495273
    C   C31  0.459539  0.223492  0.495567  -0.406686
    C   C32  0.616481  0.284902  0.634065  -0.486217
    H   H13  0.220644  0.299847  0.594194  0.078650
    H   H14  0.335056  0.338058  0.697168  0.111869
    H   H15  0.311284  0.204966  0.661480  0.106794
    H   H16  0.354091  0.234154  0.452705  0.061635
    H   H17  0.449423  0.144362  0.523468  0.093053
    H   H18  0.565746  0.234574  0.450808  0.062735
    H   H19  0.625391  0.338774  0.694569  0.104760
    H   H20  0.723792  0.298327  0.590510  0.076478
    H   H21  0.607859  0.205141  0.660420  0.107418
    C   C33  0.527248  0.699122  0.424277  0.773803
    C   C34  0.384058  0.715010  0.364899  -0.495074
    C   C35  0.537987  0.776506  0.504495  -0.409626
    C   C36  0.675099  0.715144  0.365064  -0.483381
    H   H22  0.275735  0.699999  0.407312  0.078547
    H   H23  0.377766  0.662248  0.303596  0.108676
    H   H24  0.391942  0.795215  0.339687  0.109400
    H   H25  0.430145  0.765968  0.547911  0.064094
    H   H26  0.550110  0.855648  0.476621  0.093508
    H   H27  0.641659  0.765261  0.548700  0.062181
    H   H28  0.667849  0.661105  0.304678  0.106427
    H   H29  0.779404  0.701952  0.408021  0.076148
    H   H30  0.688401  0.794839  0.338523  0.104714
