# Generated by REPEAT Assigner based on pymatgen
data_DB0-m2_o11_o26_f0_pcu.sym.22_sqe
_audit_creation_date              2022-05-24
_audit_creation_method            REPEAT_Assigner
_cell_length_a                    9.545213
_cell_length_b                    11.056262
_cell_length_c                    17.424536
_cell_angle_alpha                 90.006728
_cell_angle_beta                  86.258046
_cell_angle_gamma                 90.019836
_cell_volume                      1834.967087
_symmetry_space_group_name_H-M    P1
_symmetry_Int_Tables_number       1
loop_
    _symmetry_equiv_pos_site_id
    _symmetry_equiv_pos_as_xyz
    1  x,y,z
loop_
    _atom_site_type_symbol
    _atom_site_label
    _atom_site_fract_x
    _atom_site_fract_y
    _atom_site_fract_z
    _atom_type_partial_charge
    O   O1   0.380736  0.675635  0.506244  -0.635345
    O   O2   0.623276  0.677969  0.496326  -0.526980
    C   C1   0.502016  0.733550  0.502483  0.775877
    O   O3   0.375650  0.500072  0.613363  -0.543669
    O   O4   0.615416  0.500186  0.609127  -0.564679
    C   C2   0.493045  0.501076  0.647983  0.608062
    Cu  Cu1  0.361826  0.501099  0.501410  0.864807
    Cu  Cu2  0.642728  0.500361  0.497385  0.845141
    O   O5   0.382859  0.324168  0.502339  -0.596086
    O   O6   0.622790  0.326622  0.493336  -0.579627
    O   O7   0.388562  0.506007  0.389758  -0.617616
    O   O8   0.629515  0.505481  0.385470  -0.572217
    C   C3   0.503251  0.269018  0.499211  0.756690
    C   C4   0.511714  0.506913  0.350955  0.825574
    C   C5   0.484359  0.496259  0.732375  -0.074634
    C   C6   0.604864  0.492434  0.771662  -0.034568
    C   C7   0.598835  0.489105  0.850924  -0.238257
    C   C8   0.469454  0.485992  0.892169  0.250926
    C   C9   0.348539  0.483577  0.852536  -0.226527
    C   C10  0.356158  0.487198  0.773080  -0.043712
    C   C11  0.406557  0.516097  0.145622  -0.401885
    C   C12  0.398026  0.513082  0.225490  0.429330
    C   C13  0.649203  0.508920  0.224871  0.289471
    C   C14  0.657803  0.511463  0.145839  0.109951
    C   C15  0.537672  0.515522  0.105865  0.095515
    C   C16  0.452910  0.483014  0.976767  -0.269280
    C   C17  0.551876  0.522207  0.021839  -0.054931
    C   C18  0.519388  0.509874  0.265927  -0.413875
    H   H1   0.707878  0.494871  0.742075  0.093062
    H   H2   0.647748  0.558727  0.995681  0.110313
    H   H3   0.245770  0.481995  0.882879  0.128524
    H   H4   0.309043  0.522484  0.116187  0.200743
    H   H5   0.261799  0.487256  0.742099  0.102448
    H   H6   0.353913  0.448231  0.001090  0.161740
    H   H7   0.696843  0.485767  0.879083  0.143148
    C   C19  0.616835  0.069080  0.498752  -0.180715
    C   C20  0.501130  0.136484  0.498024  -0.264522
    H   H8   0.716621  0.115726  0.499576  0.155775
    H   H9   0.400407  0.092392  0.497760  0.152133
    C   C21  0.614770  0.934044  0.497611  0.479800
    C   C22  0.497823  0.865748  0.502642  -0.558320
    H   H10  0.391997  0.899356  0.505225  0.232358
    C   C23  0.072176  0.583604  0.533364  -0.157579
    N   N1   0.151954  0.496739  0.505536  0.123441
    H   H11  0.116680  0.667488  0.556973  0.178056
    C   C24  0.915746  0.564113  0.543224  0.249043
    N   N2   0.851951  0.500340  0.494248  -0.383464
    H   H12  0.849333  0.614577  0.586693  0.080208
    H   H13  0.902141  0.475478  0.442450  0.316034
    F   F1   0.785516  0.510680  0.107213  -0.164324
    F   F2   0.739710  0.876056  0.493564  -0.205279
    F   F3   0.093729  0.385605  0.507286  -0.117613
    F   F4   0.269583  0.516533  0.262851  -0.185887
    F   F5   0.770786  0.503489  0.260276  -0.146576
