# Generated by REPEAT Assigner based on pymatgen
data_DB0-m9_o8_o8_f0_sra.sym.28
_audit_creation_date              2022-05-24
_audit_creation_method            REPEAT_Assigner
_cell_length_a                    6.375404
_cell_length_b                    21.734351
_cell_length_c                    25.489600
_cell_angle_alpha                 90.000000
_cell_angle_beta                  90.000000
_cell_angle_gamma                 90.000000
_cell_volume                      3531.973472
_symmetry_space_group_name_H-M    P1
_symmetry_Int_Tables_number       1
loop_
    _symmetry_equiv_pos_site_id
    _symmetry_equiv_pos_as_xyz
    1  x,y,z
loop_
    _atom_site_type_symbol
    _atom_site_label
    _atom_site_fract_x
    _atom_site_fract_y
    _atom_site_fract_z
    _atom_type_partial_charge
    O  O1   0.632583  0.799548  0.196143  -0.484799
    O  O2   0.367591  0.207649  0.809807  -0.350678
    O  O3   0.367417  0.200452  0.696143  -0.484799
    O  O4   0.632409  0.792351  0.309807  -0.350701
    O  O5   0.132583  0.700452  0.303857  -0.484768
    O  O6   0.867591  0.292351  0.690193  -0.350683
    O  O7   0.867417  0.299548  0.803857  -0.484809
    O  O8   0.132409  0.707649  0.190193  -0.350675
    O  O9   0.271029  0.819657  0.306020  -0.225480
    O  O10  0.729014  0.173351  0.699172  -0.538426
    O  O11  0.728971  0.180343  0.806020  -0.225452
    O  O12  0.270986  0.826649  0.199172  -0.538413
    O  O13  0.771028  0.680343  0.193980  -0.225444
    O  O14  0.229014  0.326649  0.800828  -0.538444
    O  O15  0.228971  0.319657  0.693980  -0.225448
    O  O16  0.770986  0.673351  0.300828  -0.538443
    C  C1   0.460509  0.820472  0.327247  0.265708
    C  C2   0.536177  0.169808  0.680161  0.509624
    C  C3   0.539491  0.179528  0.827247  0.265630
    C  C4   0.463823  0.830192  0.180161  0.509598
    C  C5   0.960509  0.679528  0.172752  0.265593
    C  C6   0.036177  0.330192  0.819839  0.509638
    C  C7   0.039491  0.320472  0.672752  0.265621
    C  C8   0.963823  0.669808  0.319839  0.509653
    O  O17  0.422356  0.712155  0.249123  -0.468850
    O  O18  0.577644  0.287845  0.749124  -0.468858
    O  O19  0.922356  0.787845  0.250876  -0.468852
    O  O20  0.077644  0.212155  0.750876  -0.468847
    V  V1   0.171679  0.764372  0.249806  1.225055
    V  V2   0.828320  0.235628  0.749806  1.224984
    V  V3   0.671679  0.735628  0.250194  1.224866
    V  V4   0.328320  0.264372  0.750194  1.225183
    C  C9   0.998441  0.623833  0.360733  -0.087775
    C  C10  0.014147  0.360603  0.627024  0.017608
    C  C11  0.001559  0.376167  0.860733  -0.087596
    C  C12  0.985853  0.639397  0.127024  0.017629
    C  C13  0.498441  0.876167  0.139267  -0.087589
    C  C14  0.514147  0.139397  0.872976  0.017603
    C  C15  0.501559  0.123833  0.639267  -0.087606
    C  C16  0.485853  0.860603  0.372976  0.017533
    C  C17  0.847590  0.579975  0.371450  -0.001728
    C  C18  0.180062  0.395271  0.609106  0.012711
    C  C19  0.152410  0.420025  0.871450  -0.001867
    C  C20  0.819938  0.604729  0.109107  0.012710
    C  C21  0.347590  0.920025  0.128550  -0.001865
    C  C22  0.680062  0.104729  0.890893  0.012712
    C  C23  0.652410  0.079975  0.628550  -0.001853
    C  C24  0.319938  0.895271  0.390893  0.012726
    C  C25  0.885833  0.534814  0.408538  0.104197
    C  C26  0.152146  0.435762  0.567438  -0.435753
    C  C27  0.114167  0.465186  0.908538  0.104290
    C  C28  0.847854  0.564238  0.067438  -0.435772
    C  C29  0.385833  0.965186  0.091462  0.104291
    C  C30  0.652146  0.064238  0.932562  -0.435782
    C  C31  0.614167  0.034814  0.591462  0.104277
    C  C32  0.347854  0.935762  0.432562  -0.435802
    C  C33  0.066687  0.537871  0.438870  0.007155
    C  C34  0.960980  0.437355  0.541891  0.520780
    C  C35  0.933313  0.462129  0.938871  0.007057
    C  C36  0.039020  0.562645  0.041891  0.520782
    C  C37  0.566687  0.962129  0.061129  0.007086
    C  C38  0.460980  0.062645  0.958108  0.520791
    C  C39  0.433313  0.037871  0.561129  0.007092
    C  C40  0.539020  0.937355  0.458108  0.520845
    C  C41  0.216244  0.581881  0.427892  -0.200726
    C  C42  0.800776  0.399143  0.557713  -0.354745
    C  C43  0.783755  0.418119  0.927892  -0.200580
    C  C44  0.199224  0.600857  0.057713  -0.354738
    C  C45  0.716244  0.918119  0.072108  -0.200595
    C  C46  0.300776  0.100857  0.942287  -0.354721
    C  C47  0.283755  0.081881  0.572108  -0.200598
    C  C48  0.699224  0.899143  0.442287  -0.354786
    C  C49  0.184080  0.623964  0.388306  -0.125990
    C  C50  0.828590  0.360841  0.600116  -0.068322
    C  C51  0.815920  0.376036  0.888306  -0.126256
    C  C52  0.171410  0.639159  0.100116  -0.068333
    C  C53  0.684080  0.876036  0.111694  -0.126259
    C  C54  0.328590  0.139159  0.899884  -0.068340
    C  C55  0.315920  0.123964  0.611694  -0.126247
    C  C56  0.671410  0.860841  0.399884  -0.068261
    N  N1   0.097666  0.498846  0.482494  0.243383
    N  N2   0.930230  0.476123  0.498254  -0.402134
    N  N3   0.902334  0.501154  0.982494  0.243365
    N  N4   0.069770  0.523877  0.998254  -0.402189
    N  N5   0.597666  0.001154  0.017506  0.243411
    N  N6   0.430230  0.023877  0.001746  -0.402155
    N  N7   0.402334  0.998846  0.517506  0.243373
    N  N8   0.569770  0.976123  0.501746  -0.402203
    H  H1   0.358113  0.583974  0.451050  0.120130
    H  H2   0.654511  0.398619  0.536269  0.158320
    H  H3   0.641887  0.416026  0.951050  0.120085
    H  H4   0.345489  0.601382  0.036269  0.158315
    H  H5   0.858113  0.916026  0.048950  0.120089
    H  H6   0.154511  0.101381  0.963731  0.158310
    H  H7   0.141887  0.083974  0.548950  0.120088
    H  H8   0.845488  0.898619  0.463731  0.158327
    H  H9   0.301189  0.658621  0.380199  0.127723
    H  H10  0.711003  0.328321  0.611129  0.052146
    H  H11  0.698811  0.341379  0.880199  0.127870
    H  H12  0.288997  0.671679  0.111129  0.052149
    H  H13  0.801189  0.841379  0.119800  0.127872
    H  H14  0.211003  0.171679  0.888870  0.052149
    H  H15  0.198811  0.158621  0.619801  0.127870
    H  H16  0.788997  0.828321  0.388870  0.052122
    C  C57  0.389134  0.379889  0.630788  0.194019
    O  O21  0.410157  0.316041  0.628567  -0.394542
    H  H17  0.398427  0.395361  0.672184  -0.000776
    H  H18  0.517239  0.400995  0.607964  0.072435
    H  H19  0.369045  0.305138  0.592285  0.275165
    C  C58  0.644704  0.581325  0.342444  0.200815
    O  O22  0.509433  0.536652  0.362236  -0.559516
    H  H20  0.672756  0.573063  0.300087  0.035119
    H  H21  0.570672  0.626956  0.348081  0.060694
    H  H22  0.367639  0.554419  0.357638  0.313342
    C  C59  0.610865  0.620111  0.130788  0.194026
    O  O23  0.589843  0.683959  0.128567  -0.394522
    H  H23  0.601573  0.604639  0.172184  -0.000776
    H  H24  0.482761  0.599005  0.107964  0.072433
    H  H25  0.630955  0.694863  0.092285  0.275155
    C  C60  0.355296  0.418675  0.842444  0.200936
    O  O24  0.490567  0.463348  0.862236  -0.559574
    H  H26  0.327243  0.426937  0.800087  0.035100
    H  H27  0.429328  0.373044  0.848081  0.060627
    H  H28  0.632361  0.445581  0.857638  0.313361
    C  C61  0.889134  0.120111  0.869212  0.194037
    O  O25  0.910157  0.183959  0.871433  -0.394538
    H  H29  0.898427  0.104639  0.827816  -0.000777
    H  H30  0.017239  0.099005  0.892036  0.072430
    H  H31  0.869046  0.194863  0.907715  0.275161
    C  C62  0.144704  0.918675  0.157556  0.200942
    O  O26  0.009433  0.963348  0.137764  -0.559551
    H  H32  0.172757  0.926937  0.199913  0.035093
    H  H33  0.070672  0.873044  0.151919  0.060619
    H  H34  0.867639  0.945581  0.142362  0.313355
    C  C63  0.110865  0.879889  0.369212  0.194022
    O  O27  0.089843  0.816041  0.371433  -0.394523
    H  H35  0.101572  0.895361  0.327816  -0.000771
    H  H36  0.982761  0.900995  0.392036  0.072423
    H  H37  0.130955  0.805138  0.407715  0.275171
    C  C64  0.855296  0.081325  0.657556  0.200935
    O  O28  0.990567  0.036652  0.637764  -0.559555
    H  H38  0.827243  0.073063  0.699913  0.035097
    H  H39  0.929328  0.126956  0.651919  0.060621
    H  H40  0.132361  0.054419  0.642362  0.313355
    C  C65  0.320051  0.479062  0.550066  0.519481
    O  O29  0.391014  0.461994  0.500429  -0.567400
    H  H41  0.452871  0.480658  0.577834  -0.111230
    H  H42  0.253528  0.526171  0.548285  -0.066409
    H  H43  0.374579  0.416713  0.499559  0.300644
    C  C66  0.739554  0.481236  0.411532  -0.100376
    O  O30  0.553281  0.498950  0.435861  -0.142701
    H  H44  0.809364  0.441371  0.432007  0.034606
    H  H45  0.706486  0.464875  0.371154  0.084888
    H  H46  0.598890  0.522881  0.466878  0.232736
    C  C67  0.679949  0.520938  0.050066  0.519481
    O  O31  0.608986  0.538006  0.000429  -0.567476
    H  H47  0.547129  0.519342  0.077834  -0.111223
    H  H48  0.746472  0.473829  0.048285  -0.066407
    H  H49  0.625421  0.583287  0.999559  0.300660
    C  C68  0.260446  0.518764  0.911532  -0.100439
    O  O32  0.446719  0.501050  0.935861  -0.142678
    H  H50  0.190635  0.558629  0.932007  0.034610
    H  H51  0.293513  0.535125  0.871154  0.084900
    H  H52  0.401110  0.477119  0.966878  0.232737
    C  C69  0.820051  0.020938  0.949934  0.519518
    O  O33  0.891014  0.038006  0.999571  -0.567439
    H  H53  0.952871  0.019342  0.922166  -0.111239
    H  H54  0.753528  0.973829  0.951715  -0.066416
    H  H55  0.874579  0.083287  0.000441  0.300656
    C  C70  0.239554  0.018764  0.088468  -0.100446
    O  O34  0.053281  0.001050  0.064139  -0.142659
    H  H56  0.309365  0.058629  0.067993  0.034621
    H  H57  0.206486  0.035125  0.128846  0.084901
    H  H58  0.098889  0.977119  0.033122  0.232741
    C  C71  0.179949  0.979062  0.449934  0.519538
    O  O35  0.108986  0.961994  0.499571  -0.567475
    H  H59  0.047129  0.980658  0.422166  -0.111237
    H  H60  0.246472  0.026171  0.451714  -0.066420
    H  H61  0.125421  0.916713  0.500441  0.300656
    C  C72  0.760446  0.981236  0.588468  -0.100443
    O  O36  0.946719  0.998950  0.564139  -0.142681
    H  H62  0.690635  0.941371  0.567993  0.034619
    H  H63  0.793513  0.964875  0.628846  0.084900
    H  H64  0.901110  0.022881  0.533122  0.232748
