# Generated by REPEAT Assigner based on pymatgen
data_DB0-m2_o18_o22_f0_pcu.sym.33
_audit_creation_date              2022-05-24
_audit_creation_method            REPEAT_Assigner
_cell_length_a                    10.685251
_cell_length_b                    14.493602
_cell_length_c                    15.137757
_cell_angle_alpha                 65.050961
_cell_angle_beta                  103.122329
_cell_angle_gamma                 103.708725
_cell_volume                      2043.433305
_symmetry_space_group_name_H-M    P1
_symmetry_Int_Tables_number       1
loop_
    _symmetry_equiv_pos_site_id
    _symmetry_equiv_pos_as_xyz
    1  x,y,z
loop_
    _atom_site_type_symbol
    _atom_site_label
    _atom_site_fract_x
    _atom_site_fract_y
    _atom_site_fract_z
    _atom_type_partial_charge
    O   O1   0.462504  0.021084  0.342992  -0.626832
    O   O2   0.519869  0.162477  0.384119  -0.575485
    C   C1   0.482765  0.121050  0.318565  0.704419
    O   O3   0.292927  0.927880  0.485330  -0.572152
    O   O4   0.350084  0.073208  0.520221  -0.640644
    C   C2   0.262603  0.999743  0.503860  0.547251
    Cu  Cu1  0.469792  0.918847  0.478630  0.863678
    Cu  Cu2  0.537631  0.083732  0.526284  0.963531
    O   O5   0.494395  0.840394  0.620427  -0.549442
    O   O6   0.553079  0.981778  0.661545  -0.614707
    O   O7   0.656875  0.928992  0.484899  -0.611720
    O   O8   0.714064  0.075417  0.518766  -0.649429
    C   C3   0.525822  0.881800  0.685994  0.707087
    C   C4   0.744149  0.002487  0.501596  0.582396
    C   C5   0.042631  0.997987  0.407594  -0.037572
    H   H1   0.051284  0.929861  0.395316  -0.005788
    H   H2   0.079140  0.067641  0.345729  0.005101
    C   C6   0.900859  0.998452  0.406999  -0.025342
    H   H3   0.868669  0.066935  0.343795  0.007351
    H   H4   0.841840  0.927826  0.398553  -0.019966
    H   H5   0.869247  0.836575  0.579161  0.018949
    C   C7   0.070795  0.909283  0.593470  -0.001793
    C   C8   0.109333  0.098397  0.511438  -0.037602
    C   C9   0.122319  0.999627  0.504167  0.138345
    H   H6   0.167675  0.104673  0.579933  0.017255
    H   H7   0.143080  0.166401  0.447107  0.028819
    C   C10  0.884085  0.001864  0.502446  0.341077
    C   C11  0.926784  0.907257  0.588208  -0.195525
    C   C12  0.968018  0.098184  0.513263  -0.144700
    H   H8   0.936279  0.168050  0.451771  0.019657
    H   H9   0.959996  0.100053  0.584277  0.037096
    H   H10  0.122275  0.922851  0.660341  0.045008
    H   H11  0.909543  0.907145  0.657798  0.034281
    C   C13  0.472804  0.189404  0.213583  -0.119449
    C   C14  0.539940  0.813475  0.790981  -0.147815
    C   C15  0.430211  0.211937  0.045290  -0.290331
    C   C16  0.439076  0.147883  0.143103  -0.026499
    C   C17  0.497514  0.295591  0.185035  -0.103580
    C   C18  0.490412  0.362005  0.085574  -0.006968
    C   C19  0.455483  0.317604  0.016771  0.281201
    C   C20  0.516530  0.470660  0.052847  0.058817
    C   C21  0.503908  0.532205  0.951715  0.065770
    C   C22  0.468906  0.483373  0.885724  -0.149599
    C   C23  0.445574  0.378114  0.918219  -0.274142
    C   C24  0.556353  0.519482  0.118828  -0.171941
    C   C25  0.581044  0.624731  0.086345  -0.276141
    C   C26  0.566706  0.685257  0.987795  0.305300
    C   C27  0.527819  0.640866  0.918996  -0.037398
    C   C28  0.592192  0.790927  0.959270  -0.300403
    C   C29  0.579300  0.854994  0.861454  -0.019111
    C   C30  0.513773  0.707296  0.819539  -0.058318
    H   H12  0.418919  0.343019  0.864765  0.131746
    H   H13  0.481184  0.679510  0.761563  0.098744
    H   H14  0.600112  0.937434  0.841373  0.095365
    H   H15  0.612053  0.659799  0.139805  0.129625
    H   H16  0.403330  0.178498  0.990556  0.140121
    H   H17  0.418991  0.065450  0.163171  0.092214
    H   H18  0.521001  0.323388  0.243034  0.082686
    H   H19  0.459589  0.523252  0.807205  0.115878
    H   H20  0.571692  0.479566  0.197344  0.145388
    H   H21  0.622847  0.824326  0.014023  0.137408
    N   N1   0.587479  0.207079  0.561932  -0.115814
    N   N2   0.419005  0.795953  0.442268  -0.081653
    C   C31  0.715034  0.289808  0.664210  -0.292709
    C   C32  0.682439  0.206760  0.637550  0.025426
    C   C33  0.519231  0.285664  0.514559  -0.001852
    C   C34  0.549285  0.372448  0.538552  -0.073725
    C   C35  0.649447  0.372698  0.614418  0.321570
    C   C36  0.483506  0.458404  0.489343  0.084707
    C   C37  0.520947  0.543071  0.517089  0.000549
    C   C38  0.622670  0.539251  0.594025  -0.035306
    C   C39  0.685099  0.455215  0.641623  -0.301747
    C   C40  0.381229  0.461952  0.412814  -0.172761
    C   C41  0.319175  0.546187  0.364955  -0.226381
    C   C42  0.355710  0.629145  0.391511  0.269427
    C   C43  0.455740  0.629319  0.467471  -0.021667
    C   C44  0.291101  0.712528  0.341009  -0.292918
    C   C45  0.324611  0.796062  0.366964  0.087907
    C   C46  0.486483  0.716458  0.490945  -0.030286
    H   H22  0.763670  0.454879  0.701012  0.149985
    H   H23  0.562975  0.724024  0.548257  0.110281
    H   H24  0.273403  0.861175  0.327418  0.095624
    H   H25  0.240391  0.546435  0.305730  0.134207
    H   H26  0.792644  0.289727  0.724138  0.134217
    H   H27  0.734347  0.142003  0.676624  0.128662
    H   H28  0.442843  0.278098  0.457179  0.109106
    H   H29  0.658322  0.599862  0.620708  0.106731
    H   H30  0.344843  0.400989  0.386664  0.147718
    H   H31  0.213557  0.712650  0.281036  0.130549
    C   C47  0.094829  0.806444  0.605952  0.601445
    O   O9   0.167115  0.759824  0.678068  -0.550302
    O   O10  0.034355  0.763441  0.540727  -0.303120
    C   C48  0.053350  0.667860  0.553928  0.308434
    C   C49  0.974009  0.639642  0.469812  -0.295427
    H   H32  0.021527  0.609694  0.624250  -0.008621
    H   H33  0.157860  0.668864  0.555163  -0.009820
    H   H34  0.869319  0.637953  0.468485  0.070356
    H   H35  0.989660  0.562563  0.480126  0.060737
    H   H36  0.004869  0.697730  0.399186  0.085304
