# Generated by REPEAT Assigner based on pymatgen
data_DB0-m3_o8_o11_f0_pcu.sym.151
_audit_creation_date              2022-05-24
_audit_creation_method            REPEAT_Assigner
_cell_length_a                    11.140336
_cell_length_b                    15.928805
_cell_length_c                    17.092640
_cell_angle_alpha                 89.118372
_cell_angle_beta                  89.996539
_cell_angle_gamma                 92.800081
_cell_volume                      3029.146293
_symmetry_space_group_name_H-M    P1
_symmetry_Int_Tables_number       1
loop_
    _symmetry_equiv_pos_site_id
    _symmetry_equiv_pos_as_xyz
    1  x,y,z
loop_
    _atom_site_type_symbol
    _atom_site_label
    _atom_site_fract_x
    _atom_site_fract_y
    _atom_site_fract_z
    _atom_type_partial_charge
    O   O1   0.486230  0.410901  0.609481  -0.693183
    O   O2   0.493851  0.555663  0.615822  -0.677317
    C   C1   0.492348  0.480827  0.649241  0.841841
    O   O3   0.654757  0.419474  0.486514  -0.709675
    O   O4   0.664620  0.564255  0.493401  -0.759560
    C   C2   0.715605  0.491948  0.487785  0.893678
    Zn  Zn1  0.474566  0.396434  0.492122  1.077075
    Zn  Zn2  0.487645  0.587396  0.500689  1.097410
    O   O5   0.466804  0.428105  0.377068  -0.674972
    O   O6   0.477102  0.572868  0.383272  -0.688506
    O   O7   0.297928  0.419491  0.500350  -0.679191
    O   O8   0.307148  0.564384  0.505352  -0.638306
    C   C3   0.469423  0.502846  0.343590  0.810390
    C   C4   0.246468  0.491492  0.505036  0.632436
    C   C5   0.052185  0.555562  0.494549  -0.233213
    C   C6   0.115251  0.488627  0.514373  0.139648
    H   H1   0.100276  0.613205  0.475957  0.126555
    C   C7   0.919475  0.556986  0.498228  0.113123
    C   C8   0.846742  0.490206  0.481936  -0.420375
    H   H2   0.881001  0.616389  0.510697  0.094648
    H   H3   0.882896  0.431895  0.463571  0.154749
    C   C9   0.493911  0.475172  0.735032  -0.203585
    C   C10  0.479593  0.546109  0.778840  -0.097170
    C   C11  0.478170  0.541349  0.859396  -0.107612
    C   C12  0.491744  0.464787  0.897427  0.229843
    C   C13  0.507843  0.393834  0.853552  0.229400
    C   C14  0.506741  0.398830  0.772816  -0.103728
    C   C15  0.470505  0.439806  0.133660  -0.210895
    C   C16  0.468144  0.435527  0.214305  0.006598
    C   C17  0.471405  0.517337  0.095482  0.436063
    N   N1   0.486846  0.456806  0.980036  -0.039772
    N   N2   0.475895  0.525145  0.012924  -0.276090
    C   C18  0.467164  0.507995  0.257811  -0.252460
    H   H4   0.468400  0.374408  0.242588  0.097177
    H   H5   0.471636  0.381171  0.102726  0.071857
    H   H6   0.517669  0.342450  0.739713  0.093678
    C   C19  0.466893  0.585075  0.219640  0.057306
    C   C20  0.468576  0.589409  0.139022  -0.306371
    H   H7   0.465981  0.642745  0.252060  0.080147
    H   H8   0.464705  0.598829  0.890311  0.064239
    H   H9   0.469033  0.650003  0.109632  0.124539
    H   H10  0.466343  0.606049  0.750777  0.159662
    N   N3   0.497073  0.712894  0.506865  -0.188335
    C   C21  0.419985  0.756226  0.463004  -0.023408
    C   C22  0.423102  0.843030  0.463622  -0.196878
    C   C23  0.507818  0.886014  0.509108  0.534525
    C   C24  0.586154  0.840706  0.552876  -0.492607
    C   C25  0.578514  0.753946  0.552747  0.462120
    C   C26  0.536558  0.139179  0.524769  -0.181732
    C   C27  0.541593  0.225747  0.528090  -0.011717
    C   C28  0.451622  0.098526  0.477436  0.505117
    N   N4   0.516933  0.974735  0.512923  -0.174460
    N   N5   0.441319  0.009864  0.472009  -0.266306
    N   N6   0.465052  0.270991  0.485885  -0.150982
    H   H11  0.607634  0.257376  0.565066  0.163768
    H   H12  0.600063  0.106061  0.560020  0.080731
    H   H13  0.653591  0.873854  0.587738  0.156567
    C   C29  0.382183  0.232657  0.439553  0.135081
    C   C30  0.374362  0.146241  0.434775  -0.345505
    H   H14  0.321247  0.269699  0.405921  0.119213
    H   H15  0.359031  0.874736  0.427639  0.093972
    H   H16  0.307420  0.115888  0.397573  0.148287
    H   H17  0.354787  0.722809  0.426715  0.172875
    N   N7   0.660359  0.708654  0.597696  -0.410426
    C   C31  0.658494  0.725147  0.674950  0.760531
    O   O9   0.569260  0.752904  0.704422  -0.550311
    C   C32  0.764170  0.707836  0.725340  -0.660754
    H   H18  0.745098  0.706168  0.574327  0.259181
    H   H19  0.836150  0.680104  0.690799  0.163102
    H   H20  0.735558  0.663144  0.772917  0.213876
    H   H21  0.799552  0.767389  0.751384  0.175179
    N   N8   0.058423  0.414517  0.546678  -0.357324
    C   C33  0.037646  0.417850  0.624409  0.736118
    O   O10  0.040141  0.485395  0.657124  -0.565860
    C   C34  0.012141  0.339052  0.671107  -0.591941
    H   H22  0.088370  0.358065  0.528145  0.227733
    H   H23  0.009920  0.283345  0.632937  0.113568
    H   H24  0.923733  0.342373  0.700430  0.173682
    H   H25  0.082964  0.332688  0.716105  0.167930
    N   N9   0.519110  0.314955  0.890938  -0.766007
    C   C35  0.629611  0.302594  0.920243  0.835060
    O   O11  0.700921  0.362071  0.929809  -0.573175
    C   C36  0.666152  0.215956  0.940224  -0.544172
    H   H26  0.480636  0.263807  0.862688  0.370481
    H   H27  0.590996  0.169166  0.930113  0.114071
    H   H28  0.692459  0.213101  0.002747  0.162727
    H   H29  0.743970  0.200747  0.903479  0.146326
