# Generated by REPEAT Assigner based on pymatgen
data_DB0-m2_o6_o25_f0_nbo.sym.190_sqe
_audit_creation_date              2022-05-24
_audit_creation_method            REPEAT_Assigner
_cell_length_a                    27.699673
_cell_length_b                    27.680636
_cell_length_c                    27.788530
_cell_angle_alpha                 109.283625
_cell_angle_beta                  109.728530
_cell_angle_gamma                 109.226026
_cell_volume                      16437.049796
_symmetry_space_group_name_H-M    P1
_symmetry_Int_Tables_number       1
loop_
    _symmetry_equiv_pos_site_id
    _symmetry_equiv_pos_as_xyz
    1  x,y,z
loop_
    _atom_site_type_symbol
    _atom_site_label
    _atom_site_fract_x
    _atom_site_fract_y
    _atom_site_fract_z
    _atom_type_partial_charge
    O   O1   0.948002  0.982803  0.538492  -0.580842
    O   O2   0.951424  0.910586  0.470451  -0.620593
    C   C1   0.930179  0.927388  0.504405  0.836406
    O   O3   0.951638  0.045820  0.480011  -0.574484
    O   O4   0.948234  0.970216  0.408543  -0.626745
    C   C2   0.930576  0.008102  0.424874  0.740413
    Cu  Cu1  0.010531  0.049068  0.546079  0.996881
    Cu  Cu2  0.010549  0.965670  0.463421  1.028556
    O   O5   0.069661  0.104152  0.539049  -0.573147
    O   O6   0.073051  0.031928  0.470978  -0.624957
    O   O7   0.072837  0.044516  0.600960  -0.600226
    O   O8   0.069462  0.968942  0.529503  -0.589420
    C   C3   0.090827  0.087331  0.505006  0.807225
    C   C4   0.090549  0.006681  0.584654  0.759850
    C   C5   0.712101  0.993243  0.264571  -0.305226
    C   C6   0.739667  0.954449  0.255394  0.300924
    H   H1   0.673928  0.983821  0.271984  0.120438
    C   C7   0.885608  0.007995  0.380112  -0.089937
    C   C8   0.630739  0.999229  0.129471  -0.066562
    C   C9   0.774704  0.046405  0.306564  -0.193560
    C   C10  0.800923  0.006194  0.296332  0.507401
    C   C11  0.776145  0.051810  0.254581  0.693990
    C   C12  0.714538  0.999913  0.213136  0.268649
    C   C13  0.804110  0.013057  0.245196  -0.586647
    C   C14  0.741630  0.960808  0.204411  0.542742
    C   C15  0.847555  0.007526  0.342391  -0.307845
    C   C16  0.668203  0.999227  0.167332  -0.305611
    H   H2   0.842252  0.021152  0.237812  0.196029
    H   H3   0.790444  0.083919  0.349623  0.083964
    H   H4   0.858962  0.771495  0.541151  0.149093
    C   C17  0.771679  0.722258  0.523933  -0.149008
    H   H5   0.781763  0.693966  0.539603  0.153107
    C   C18  0.715422  0.714480  0.502689  -0.027283
    C   C19  0.702437  0.750839  0.482946  0.285740
    C   C20  0.746045  0.794843  0.484202  0.137239
    C   C21  0.802218  0.801830  0.504863  0.099705
    C   C22  0.814997  0.765845  0.524999  -0.161522
    C   C23  0.670896  0.669070  0.502270  0.061937
    C   C24  0.847312  0.845729  0.504380  0.032271
    C   C25  0.885159  0.882900  0.504299  -0.254915
    C   C26  0.633373  0.631128  0.501919  -0.265607
    H   H6   0.265938  0.999525  0.666733  0.148364
    C   C27  0.306817  0.002715  0.748890  -0.189815
    H   H7   0.342785  0.999362  0.743815  0.149422
    C   C28  0.303875  0.006770  0.798499  0.278334
    C   C29  0.258025  0.010962  0.805069  -0.177510
    H   H8   0.255784  0.014069  0.843987  0.152647
    C   C30  0.214979  0.011020  0.761892  -0.200224
    H   H9   0.178926  0.014219  0.766895  0.157950
    C   C31  0.217873  0.006872  0.712240  0.287501
    C   C32  0.263775  0.002779  0.705718  -0.187895
    C   C33  0.348323  0.006146  0.843109  -0.126933
    C   C34  0.173024  0.006734  0.667269  -0.126079
    C   C35  0.135346  0.006650  0.629506  -0.163006
    C   C36  0.385537  0.005335  0.880439  -0.154576
    C   C37  0.261054  0.245967  0.451062  -0.338903
    H   H10  0.262517  0.238202  0.410945  0.210066
    C   C38  0.302389  0.298933  0.502166  0.291712
    C   C39  0.301259  0.308889  0.553622  -0.252637
    H   H11  0.333690  0.350457  0.593680  0.156499
    C   C40  0.258849  0.265782  0.554014  -0.105263
    H   H12  0.257929  0.273641  0.594384  0.144813
    C   C41  0.217497  0.212664  0.503020  -0.006905
    C   C42  0.218194  0.202724  0.451127  0.397085
    C   C43  0.346860  0.343615  0.501890  -0.064638
    C   C44  0.173038  0.168793  0.504176  0.029800
    C   C45  0.135565  0.131743  0.504753  -0.271244
    C   C46  0.384321  0.381180  0.501802  -0.208042
    O   O9   0.472963  0.026263  0.066276  -0.557268
    O   O10  0.542851  0.098606  0.064427  -0.604200
    C   C47  0.507841  0.081748  0.084734  0.826619
    O   O11  0.531051  0.965852  0.066144  -0.591392
    O   O12  0.604134  0.037966  0.067550  -0.564553
    C   C48  0.586660  0.999608  0.084293  0.708261
    Cu  Cu3  0.465885  0.960388  0.003899  0.999355
    Cu  Cu4  0.550424  0.043837  0.005669  0.999010
    O   O13  0.473612  0.905714  0.945203  -0.606549
    O   O14  0.543189  0.977902  0.943237  -0.611613
    O   O15  0.412160  0.969296  0.945072  -0.600473
    O   O16  0.485240  0.041559  0.946625  -0.578134
    C   C49  0.508461  0.922480  0.924772  0.818904
    C   C50  0.429642  0.004004  0.924671  0.742379
    O   O17  0.474635  0.447165  0.405067  -0.552727
    O   O18  0.543240  0.443711  0.477393  -0.621096
    C   C51  0.509009  0.425969  0.421966  0.795422
    O   O19  0.533184  0.564975  0.463616  -0.589827
    O   O20  0.605187  0.568309  0.539300  -0.580579
    C   C52  0.588602  0.586111  0.501555  0.756255
    Cu  Cu5  0.467172  0.506023  0.459912  0.970385
    Cu  Cu6  0.550481  0.505977  0.543458  1.005106
    O   O21  0.474381  0.568261  0.525976  -0.564880
    O   O22  0.543035  0.564848  0.598306  -0.591056
    O   O23  0.412467  0.443683  0.464065  -0.586494
    O   O24  0.484476  0.447055  0.539783  -0.590720
    C   C53  0.508587  0.585970  0.581398  0.787911
    C   C54  0.429061  0.425937  0.501868  0.777950
    C   C55  0.508938  0.301547  0.248612  -0.264835
    H   H13  0.509709  0.339455  0.244977  0.191145
    C   C56  0.509071  0.297271  0.296684  0.025206
    C   C57  0.507999  0.248837  0.301576  0.321177
    C   C58  0.508101  0.205678  0.258745  -0.263525
    H   H14  0.508261  0.168217  0.262827  0.194043
    C   C59  0.508450  0.210201  0.210917  0.023055
    C   C60  0.508270  0.258019  0.205412  0.325791
    C   C61  0.508997  0.342826  0.340564  0.076314
    C   C62  0.507900  0.164400  0.166669  0.089185
    C   C63  0.507688  0.126415  0.129345  -0.328206
    C   C64  0.508986  0.380872  0.377605  -0.291790
    H   H15  0.598568  0.850987  0.824220  0.220308
    C   C65  0.559221  0.766859  0.748669  0.442760
    C   C66  0.507943  0.713452  0.707379  -0.223811
    C   C67  0.456845  0.702230  0.710394  0.432935
    C   C68  0.457391  0.743775  0.755200  -0.392344
    H   H16  0.417686  0.734865  0.758003  0.172405
    C   C69  0.508245  0.797159  0.795929  0.280784
    C   C70  0.558934  0.808797  0.792485  -0.379599
    C   C71  0.508127  0.668417  0.663000  0.166433
    C   C72  0.508257  0.840989  0.841519  -0.011277
    C   C73  0.508313  0.878029  0.879624  -0.254828
    C   C74  0.508321  0.630746  0.625769  -0.299668
    N   N1   0.720220  0.899419  0.255670  -0.786240
    C   C75  0.716031  0.899370  0.302744  0.804212
    O   O25  0.733141  0.945445  0.345572  -0.527789
    C   C76  0.691013  0.842937  0.303155  -0.456644
    H   H17  0.701212  0.860053  0.218000  0.347064
    H   H18  0.678161  0.805214  0.261669  0.102872
    H   H19  0.651607  0.836367  0.308073  0.116983
    H   H20  0.724641  0.845182  0.340884  0.127142
    N   N2   0.732251  0.829678  0.460625  -0.590987
    C   C77  0.748327  0.883886  0.501039  0.823041
    O   O26  0.784604  0.905238  0.552542  -0.525486
    C   C78  0.721010  0.917540  0.482758  -0.497817
    H   H21  0.691820  0.809304  0.423413  0.311732
    H   H22  0.672599  0.892624  0.464325  0.113381
    H   H23  0.730189  0.924215  0.448892  0.118844
    H   H24  0.739977  0.960970  0.521582  0.142296
    N   N3   0.176806  0.148053  0.398843  -0.679449
    C   C79  0.133286  0.149118  0.359106  0.830764
    O   O27  0.138673  0.195743  0.362204  -0.570749
    C   C80  0.077765  0.093070  0.311800  -0.534267
    H   H25  0.163666  0.110345  0.401909  0.328303
    H   H26  0.056098  0.071715  0.331866  0.132119
    H   H27  0.088197  0.063120  0.284712  0.137535
    H   H28  0.047538  0.102669  0.283514  0.157789
    N   N4   0.509518  0.263700  0.157099  -0.678706
    C   C81  0.457353  0.250964  0.115397  0.861697
    O   O28  0.418227  0.250195  0.126537  -0.560116
    C   C82  0.447016  0.236578  0.054993  -0.591336
    H   H29  0.533796  0.249792  0.141063  0.321113
    H   H30  0.450904  0.196984  0.035552  0.159059
    H   H31  0.480212  0.274380  0.057209  0.144463
    H   H32  0.402066  0.227592  0.027128  0.158510
    N   N5   0.509024  0.244265  0.351026  -0.676277
    C   C83  0.456786  0.205068  0.340377  0.869786
    O   O29  0.417396  0.168150  0.289937  -0.564242
    C   C84  0.446345  0.207189  0.390126  -0.617096
    H   H33  0.533699  0.282206  0.391333  0.324264
    H   H34  0.486464  0.242219  0.433038  0.144390
    H   H35  0.434601  0.164069  0.388435  0.164693
    H   H36  0.409362  0.216148  0.385871  0.163672
    N   N6   0.611286  0.779517  0.745188  -0.609923
    C   C85  0.652981  0.776939  0.785311  0.718230
    O   O30  0.651280  0.778616  0.829080  -0.553713
    C   C86  0.700793  0.770836  0.775523  -0.439788
    H   H37  0.607514  0.763856  0.704221  0.316784
    H   H38  0.681142  0.729374  0.734130  0.108548
    H   H39  0.730753  0.769650  0.812958  0.139628
    H   H40  0.726165  0.808910  0.772298  0.127428
    N   N7   0.404715  0.647411  0.669442  -0.644348
    C   C87  0.373341  0.643320  0.617679  0.793585
    O   O31  0.396604  0.677120  0.603054  -0.571019
    C   C88  0.309715  0.597725  0.578437  -0.468270
    H   H41  0.379042  0.630404  0.685494  0.320349
    H   H42  0.284966  0.605006  0.601644  0.106004
    H   H43  0.304996  0.553349  0.566188  0.127817
    H   H44  0.291740  0.600851  0.538061  0.145769
    N   N8   0.722249  0.910383  0.150078  -0.813549
    C   C89  0.727787  0.920896  0.107598  0.805566
    O   O32  0.730778  0.965497  0.106892  -0.508750
    C   C90  0.728884  0.876798  0.060180  -0.472378
    H   H45  0.731606  0.878268  0.153506  0.314005
    H   H46  0.767418  0.871263  0.079805  0.110533
    H   H47  0.732487  0.892406  0.028906  0.148160
    H   H48  0.687580  0.833981  0.036380  0.126635
    N   N9   0.794198  0.108304  0.257347  -0.869115
    C   C91  0.801909  0.112172  0.213053  0.875112
    O   O33  0.816978  0.080938  0.186745  -0.583372
    C   C92  0.794399  0.156958  0.197823  -0.437474
    H   H49  0.773890  0.130569  0.271029  0.316752
    H   H50  0.825330  0.201570  0.237011  0.105454
    H   H51  0.748297  0.147915  0.183227  0.098120
    H   H52  0.803922  0.154641  0.161691  0.125764
    N   N10  0.644892  0.743107  0.461675  -0.647514
    C   C93  0.636082  0.772920  0.504160  0.801101
    O   O34  0.678019  0.814709  0.551157  -0.539258
    C   C94  0.575022  0.754058  0.494162  -0.546362
    H   H53  0.610270  0.701013  0.431163  0.304701
    H   H54  0.554303  0.708296  0.486075  0.153359
    H   H55  0.548596  0.756076  0.455490  0.133136
    H   H56  0.576752  0.783878  0.533695  0.157160
