# Generated by REPEAT Assigner based on pymatgen
data_DB0-m29_o90_o550_f0_pts.sym.53
_audit_creation_date              2022-05-24
_audit_creation_method            REPEAT_Assigner
_cell_length_a                    16.379056
_cell_length_b                    16.757689
_cell_length_c                    13.190574
_cell_angle_alpha                 106.496819
_cell_angle_beta                  91.689112
_cell_angle_gamma                 115.855322
_cell_volume                      3074.243002
_symmetry_space_group_name_H-M    P1
_symmetry_Int_Tables_number       1
loop_
    _symmetry_equiv_pos_site_id
    _symmetry_equiv_pos_as_xyz
    1  x,y,z
loop_
    _atom_site_type_symbol
    _atom_site_label
    _atom_site_fract_x
    _atom_site_fract_y
    _atom_site_fract_z
    _atom_type_partial_charge
    H   H1   0.130382  0.831429  0.093770  0.166342
    C   C1   0.409356  0.310165  0.203483  -0.184907
    C   C2   0.417113  0.398798  0.226535  -0.084587
    C   C3   0.340146  0.411743  0.234840  -0.061674
    C   C4   0.255023  0.336137  0.220249  -0.112926
    C   C5   0.245911  0.245968  0.196790  0.039706
    C   C6   0.323726  0.232847  0.188126  0.196032
    C   C7   0.159885  0.169426  0.182305  -0.197099
    C   C8   0.151785  0.079629  0.158726  0.138903
    C   C9   0.229555  0.066523  0.150007  0.083492
    C   C10  0.315557  0.143029  0.164455  -0.223421
    C   C11  0.066210  0.002302  0.143308  -0.289519
    C   C12  0.057987  0.913432  0.120087  0.418387
    C   C13  0.135386  0.900643  0.111567  -0.205225
    C   C14  0.220452  0.976385  0.126462  -0.162645
    H   H2   0.472134  0.304133  0.197735  0.138731
    H   H3   0.483959  0.458344  0.238122  0.124065
    H   H4   0.346443  0.481505  0.253152  0.111619
    H   H5   0.197058  0.350615  0.228480  0.078620
    H   H6   0.003498  0.008450  0.148931  0.113498
    H   H7   0.278453  0.961944  0.118351  0.110296
    C   C15  0.434656  0.117072  0.068333  -0.397651
    H   H8   0.402790  0.119253  0.996917  0.147744
    C   C16  0.513545  0.105750  0.068544  0.135852
    C   C17  0.552564  0.103001  0.161114  -0.221088
    H   H9   0.615921  0.097798  0.164493  0.162317
    C   C18  0.519079  0.119865  0.255031  0.094830
    C   C19  0.442417  0.134058  0.255708  -0.418636
    H   H10  0.417271  0.149787  0.329906  0.150389
    C   C20  0.398208  0.129453  0.161821  0.576909
    C   C21  0.032778  0.177920  0.090756  -0.405450
    H   H11  0.057538  0.161551  0.016415  0.138947
    C   C22  0.956338  0.192511  0.091464  0.067292
    C   C23  0.923200  0.210186  0.185546  -0.213363
    H   H12  0.859827  0.215398  0.182129  0.156119
    C   C24  0.962333  0.207746  0.278260  0.140324
    C   C25  0.040896  0.195824  0.278326  -0.404001
    H   H13  0.072875  0.194001  0.349914  0.143823
    C   C26  0.077173  0.182941  0.184774  0.630817
    O   O1   0.837952  0.217154  0.361261  -0.600711
    C   C27  0.911810  0.205219  0.368642  0.558163
    O   O2   0.748362  0.997261  0.367869  -0.516960
    O   O3   0.930432  0.176431  0.444810  -0.498796
    O   O4   0.747257  0.088232  0.531057  -0.564383
    C   C28  0.748861  0.011834  0.471087  0.617222
    Fe  Fe1  0.746644  0.173385  0.453606  1.498883
    O   O5   0.623179  0.094666  0.356676  -0.647980
    O   O6   0.604608  0.224898  0.427623  -0.533410
    C   C29  0.577225  0.142171  0.355221  0.679580
    O   O7   0.773390  0.295577  0.565477  -0.672061
    O   O8   0.654753  0.197597  0.625635  -0.468391
    C   C30  0.720508  0.282331  0.638419  0.770692
    O   O9   0.699678  0.022070  0.782020  -0.664046
    O   O10  0.821488  0.115909  0.721862  -0.471195
    C   C31  0.752311  0.032925  0.708584  0.761235
    O   O11  0.856842  0.221454  0.987797  -0.664676
    O   O12  0.864974  0.084748  0.922527  -0.539988
    C   C32  0.898015  0.169960  0.991311  0.711705
    O   O13  0.541661  0.130999  0.898126  -0.502224
    O   O14  0.731765  0.231618  0.817958  -0.570543
    C   C33  0.720243  0.302822  0.875073  0.606283
    O   O15  0.642403  0.104833  0.990300  -0.603735
    C   C34  0.564676  0.109260  0.978726  0.571629
    O   O16  0.714307  0.314401  0.976738  -0.513857
    Fe  Fe2  0.731481  0.145611  0.894561  1.502867
    C   C35  0.722182  0.364083  0.719244  -0.130604
    C   C36  0.726125  0.435203  0.682956  0.153302
    H   H14  0.729649  0.427746  0.599382  0.078862
    C   C37  0.721852  0.512637  0.750070  -0.529983
    C   C38  0.714545  0.519144  0.855773  0.181656
    H   H15  0.710330  0.578403  0.910446  0.024002
    C   C39  0.713193  0.450010  0.893896  -0.198954
    H   H16  0.709217  0.458660  0.977619  0.134332
    C   C40  0.717360  0.371823  0.827193  0.068093
    N   N1   0.721753  0.662782  0.774143  -0.287039
    N   N2   0.724846  0.729249  0.736820  -0.273135
    C   C41  0.730475  0.721098  0.633036  0.826529
    N   N3   0.732740  0.644524  0.567412  -0.271969
    N   N4   0.729711  0.578084  0.604758  -0.287358
    C   C42  0.724318  0.586349  0.708613  0.846756
    C   C43  0.739517  0.788083  0.485770  0.163115
    H   H17  0.737853  0.726086  0.429457  0.021636
    C   C44  0.745091  0.859314  0.448971  -0.193641
    H   H18  0.746852  0.849799  0.364710  0.141550
    C   C45  0.747974  0.940721  0.517680  0.056602
    C   C46  0.745561  0.949309  0.626192  -0.121979
    C   C47  0.737624  0.876374  0.661275  0.149649
    H   H19  0.736438  0.884769  0.745389  0.076089
    C   C48  0.735352  0.795975  0.592311  -0.507312
    N   N5   0.969616  0.836507  0.103139  -0.232451
    C   C49  0.941705  0.772006  0.994775  -0.275372
    C   C50  0.959824  0.790084  0.182089  -0.045668
    H   H20  0.949094  0.811236  0.937707  0.116757
    H   H21  0.868411  0.719535  0.982632  0.152420
    H   H22  0.984515  0.735165  0.978608  0.069361
    H   H23  0.023716  0.826853  0.243120  0.032832
    H   H24  0.944814  0.716020  0.142976  0.058491
    H   H25  0.902095  0.791425  0.223150  0.075269
