# Generated by REPEAT Assigner based on pymatgen
data_DB0-m3_o1530_o13_f0_fsc.sym.3
_audit_creation_date              2022-05-24
_audit_creation_method            REPEAT_Assigner
_cell_length_a                    8.582282
_cell_length_b                    11.250257
_cell_length_c                    13.002232
_cell_angle_alpha                 95.054254
_cell_angle_beta                  84.639274
_cell_angle_gamma                 90.071009
_cell_volume                      1245.021163
_symmetry_space_group_name_H-M    P1
_symmetry_Int_Tables_number       1
loop_
    _symmetry_equiv_pos_site_id
    _symmetry_equiv_pos_as_xyz
    1  x,y,z
loop_
    _atom_site_type_symbol
    _atom_site_label
    _atom_site_fract_x
    _atom_site_fract_y
    _atom_site_fract_z
    _atom_type_partial_charge
    C   C1   0.012827  0.996905  0.865136  0.075794
    C   C2   0.881073  0.001967  0.810161  0.208433
    C   C3   0.736060  0.017895  0.863091  -0.453692
    C   C4   0.719004  0.024240  0.969439  0.257022
    C   C5   0.846955  0.012486  0.025735  -0.026732
    C   C6   0.995225  0.998779  0.973929  0.043749
    C   C7   0.827289  0.014003  0.133469  -0.245658
    C   C8   0.955008  0.009288  0.190258  0.133040
    C   C9   0.102091  0.993181  0.139556  0.237860
    C   C10  0.121179  0.982909  0.032256  -0.294740
    C   C11  0.938610  0.022305  0.297701  -0.170646
    C   C12  0.069094  0.033538  0.351823  -0.133952
    C   C13  0.215720  0.010790  0.302565  -0.059751
    C   C14  0.230330  0.985487  0.196541  -0.301214
    C   C15  0.159405  0.993658  0.809578  -0.212731
    C   C16  0.171702  0.978674  0.703222  -0.093048
    C   C17  0.040119  0.967820  0.650826  -0.087615
    C   C18  0.894384  0.987801  0.702273  -0.207980
    H   H1   0.633621  0.021904  0.821253  0.176238
    H   H2   0.054688  0.052494  0.434594  0.148851
    H   H3   0.343537  0.964290  0.159073  0.118754
    H   H4   0.236601  0.961390  0.996901  0.133963
    H   H5   0.713073  0.023996  0.175209  0.114228
    H   H6   0.266892  0.004663  0.845430  0.103600
    H   H7   0.052378  0.951705  0.567809  0.123975
    O   O1   0.731028  0.112747  0.410305  -0.721069
    O   O2   0.734547  0.908698  0.375433  -0.630688
    C   C19  0.788317  0.015131  0.358824  0.826350
    O   O3   0.717814  0.893636  0.588288  -0.755710
    O   O4   0.702889  0.098177  0.623503  -0.714198
    C   C20  0.760243  0.993084  0.638749  0.924207
    O   O5   0.380529  0.886972  0.592398  -0.707992
    O   O6   0.376940  0.092159  0.627458  -0.679653
    C   C21  0.322488  0.985429  0.642994  0.825646
    O   O7   0.393294  0.106260  0.414807  -0.754387
    O   O8   0.408000  0.902084  0.379932  -0.697747
    C   C22  0.350244  0.006689  0.365048  0.880480
    Zn  Zn1  0.561739  0.867408  0.481884  1.029388
    Zn  Zn2  0.549937  0.132558  0.520816  0.986493
    N   N1   0.542732  0.288656  0.540398  0.186562
    N   N2   0.569513  0.711072  0.461473  -0.047951
    C   C23  0.589647  0.521586  0.365377  -0.393601
    C   C24  0.595222  0.644555  0.368971  0.313690
    C   C25  0.545509  0.656165  0.550134  -0.106638
    C   C26  0.543498  0.533285  0.548281  0.113114
    C   C27  0.563749  0.466148  0.455278  0.255058
    C   C28  0.561802  0.343778  0.452276  -0.189023
    C   C29  0.523163  0.352857  0.633232  -0.178251
    C   C30  0.522254  0.476354  0.638479  -0.173916
    H   H8   0.576619  0.291557  0.378216  0.173976
    H   H9   0.508233  0.307976  0.703630  0.184721
    H   H10  0.610411  0.468004  0.292189  0.190159
    H   H11  0.506370  0.527642  0.713054  0.152372
    H   H12  0.529979  0.708643  0.624027  0.163871
    C   C31  0.639644  0.698738  0.269531  -0.416869
    H   H13  0.628294  0.631255  0.203276  0.106945
    H   H14  0.562938  0.774334  0.259115  0.147537
    H   H15  0.764070  0.725766  0.265733  0.141305
    C   C32  0.558250  0.030591  0.020756  -0.390883
    H   H16  0.545659  0.105112  0.082762  0.106507
    H   H17  0.473935  0.046096  0.964014  0.130650
    H   H18  0.536941  0.942392  0.050377  0.131799
