# Generated by REPEAT Assigner based on pymatgen
data_DB0-m3_o105_o158_f0_fsc.sym.8
_audit_creation_date              2022-05-24
_audit_creation_method            REPEAT_Assigner
_cell_length_a                    15.751497
_cell_length_b                    10.828767
_cell_length_c                    13.361661
_cell_angle_alpha                 90.000000
_cell_angle_beta                  95.849109
_cell_angle_gamma                 90.000000
_cell_volume                      2267.223397
_symmetry_space_group_name_H-M    P1
_symmetry_Int_Tables_number       1
loop_
    _symmetry_equiv_pos_site_id
    _symmetry_equiv_pos_as_xyz
    1  x,y,z
loop_
    _atom_site_type_symbol
    _atom_site_label
    _atom_site_fract_x
    _atom_site_fract_y
    _atom_site_fract_z
    _atom_type_partial_charge
    C   C1   0.074153  0.943573  0.002174  -0.006364
    C   C2   0.917406  0.066932  0.986036  -0.011681
    C   C3   0.919892  0.943146  0.009565  0.006339
    C   C4   0.071130  0.067258  0.978379  -0.009892
    C   C5   0.997575  0.881550  0.010422  -0.161744
    C   C6   0.991803  0.123700  0.962095  -0.123377
    H   H1   0.997292  0.782874  0.008945  0.113657
    H   H2   0.986877  0.209205  0.921858  0.093421
    C   C7   0.225214  0.941508  0.982951  0.066417
    C   C8   0.764619  0.069263  0.992770  0.043565
    C   C9   0.765961  0.940744  0.002321  0.081461
    C   C10  0.224256  0.070149  0.972925  0.047660
    C   C11  0.297926  0.871156  0.970478  -0.230004
    C   C12  0.689607  0.137076  0.998165  -0.202742
    C   C13  0.691152  0.870390  0.993239  -0.216372
    C   C14  0.299913  0.138471  0.974297  -0.188201
    H   H3   0.353084  0.908847  0.939884  0.132810
    H   H4   0.629614  0.095075  0.010578  0.116739
    H   H5   0.630084  0.907950  0.964763  0.113281
    H   H6   0.362184  0.096563  0.984429  0.099066
    C   C15  0.301410  0.748427  0.997874  -0.045265
    C   C16  0.690499  0.263964  0.992504  -0.055773
    C   C17  0.693332  0.747146  0.018757  -0.079927
    C   C18  0.297933  0.265682  0.970715  -0.074191
    C   C19  0.234861  0.697274  0.041667  -0.088377
    C   C20  0.764872  0.324637  0.981398  -0.093389
    C   C21  0.768749  0.695245  0.058028  -0.050824
    C   C22  0.221479  0.325979  0.964282  -0.077793
    H   H7   0.239594  0.604087  0.070505  0.119206
    H   H8   0.765333  0.424129  0.976855  0.116339
    H   H9   0.770070  0.601016  0.084586  0.092618
    H   H10  0.220003  0.425606  0.962626  0.098974
    C   C23  0.160376  0.761279  0.045071  -0.216880
    C   C24  0.839576  0.260743  0.980877  -0.209569
    C   C25  0.843686  0.759741  0.057806  -0.229574
    C   C26  0.147032  0.261477  0.966358  -0.212367
    H   H11  0.111021  0.714644  0.080579  0.121782
    H   H12  0.896016  0.316875  0.981707  0.124324
    H   H13  0.900664  0.712587  0.088605  0.126927
    H   H14  0.091076  0.317400  0.970689  0.126827
    C   C27  0.152445  0.881625  0.009123  0.106139
    C   C28  0.840786  0.132238  0.985179  0.094089
    C   C29  0.843877  0.880796  0.022736  0.085859
    C   C30  0.146833  0.132843  0.970719  0.090398
    O   O1   0.407133  0.374889  0.070776  -0.721343
    O   O2   0.584515  0.636630  0.917831  -0.712881
    O   O3   0.582687  0.389419  0.910854  -0.734384
    O   O4   0.409168  0.621912  0.077727  -0.707497
    O   O5   0.401698  0.385954  0.897862  -0.743596
    O   O6   0.590225  0.624967  0.090720  -0.710024
    O   O7   0.588301  0.366882  0.083349  -0.706918
    O   O8   0.403266  0.644308  0.905282  -0.697023
    C   C31  0.375530  0.340496  0.980296  0.882499
    C   C32  0.616597  0.670218  0.008382  0.848473
    C   C33  0.613728  0.338177  0.995529  0.836479
    C   C34  0.377658  0.672827  0.993183  0.795987
    Zn  Zn1  0.490299  0.515129  0.882444  1.063102
    Zn  Zn2  0.501445  0.496139  0.106171  1.051457
    C   C35  0.510325  0.601803  0.285126  -0.275354
    C   C36  0.482335  0.409234  0.703914  -0.129120
    C   C37  0.481988  0.625382  0.696886  -0.271281
    C   C38  0.509813  0.385549  0.291268  -0.262531
    N   N1   0.507001  0.491404  0.237905  0.174728
    N   N2   0.484771  0.519889  0.750712  0.136917
    C   C39  0.510410  0.389361  0.394967  0.217723
    C   C40  0.482469  0.620709  0.593346  0.129150
    C   C41  0.484422  0.401666  0.601249  -0.059721
    C   C42  0.511024  0.608623  0.388216  0.162873
    C   C43  0.503555  0.501759  0.441596  -0.079042
    C   C44  0.491188  0.508190  0.547451  0.113094
    C   C45  0.522360  0.274112  0.456792  -0.075618
    C   C46  0.468891  0.734600  0.530349  -0.251256
    C   C47  0.471357  0.280595  0.548100  -0.097455
    C   C48  0.523437  0.729502  0.442324  -0.138621
    H   H15  0.511886  0.297861  0.252969  0.154757
    H   H16  0.478782  0.713302  0.734602  0.183293
    H   H17  0.479532  0.325284  0.747057  0.152764
    H   H18  0.512444  0.685972  0.242122  0.160120
    H   H19  0.492524  0.205664  0.601355  0.063867
    H   H20  0.504317  0.806127  0.389829  0.090111
    H   H21  0.500241  0.193596  0.410079  0.061379
    H   H22  0.487097  0.817045  0.576812  0.094088
    C   C49  0.616800  0.255674  0.492961  0.136440
    C   C50  0.668938  0.225987  0.406456  -0.222310
    H   H23  0.638347  0.150380  0.359807  0.050825
    H   H24  0.675862  0.309053  0.359530  0.051698
    H   H25  0.733519  0.195658  0.437637  0.057310
    H   H26  0.643364  0.339594  0.532044  -0.007683
    H   H27  0.623664  0.177010  0.546287  -0.006508
    C   C51  0.374858  0.747060  0.490021  0.336243
    C   C52  0.319080  0.772313  0.574012  -0.280138
    H   H28  0.313077  0.688130  0.619944  0.069121
    H   H29  0.346228  0.848780  0.622337  0.056076
    H   H30  0.254473  0.799287  0.540363  0.056932
    H   H31  0.367416  0.825642  0.436662  -0.058079
    H   H32  0.351757  0.661989  0.449905  -0.068048
    C   C53  0.376291  0.263123  0.516572  0.207278
    C   C54  0.352049  0.127624  0.519920  -0.275198
    H   H33  0.390233  0.072551  0.470839  0.076020
    H   H34  0.362882  0.092997  0.598302  0.069823
    H   H35  0.283428  0.117367  0.493139  0.072455
    H   H36  0.339274  0.314019  0.569578  -0.006690
    H   H37  0.358608  0.299552  0.439771  -0.045144
    C   C55  0.617341  0.747301  0.481298  0.221008
    C   C56  0.672107  0.768626  0.395687  -0.227110
    H   H38  0.677351  0.682699  0.351693  0.060010
    H   H39  0.644626  0.843571  0.345902  0.052009
    H   H40  0.737073  0.796250  0.427641  0.046589
    H   H41  0.623793  0.829525  0.530939  -0.022988
    H   H42  0.642031  0.665612  0.525023  -0.032727
