data_DB0-m3_o11_o23_f0_pcu.sym.50_repeat
_audit_creation_date              2024-02-23
_audit_creation_method            'Materials Studio'
_symmetry_space_group_name_H-M    'P1'
_symmetry_Int_Tables_number       1
_symmetry_cell_setting            triclinic
loop_
_symmetry_equiv_pos_as_xyz
  x,y,z
_cell_length_a                    15.9559
_cell_length_b                    11.1374
_cell_length_c                    9.9100
_cell_angle_alpha                 89.9974
_cell_angle_beta                  89.9750
_cell_angle_gamma                 89.9982
loop_
_atom_site_label
_atom_site_type_symbol
_atom_site_fract_x
_atom_site_fract_y
_atom_site_fract_z
_atom_site_U_iso_or_equiv
_atom_site_adp_type
_atom_site_occupancy
O1     O     0.50199   0.31531   0.60756   0.00000  Uiso   1.00
O2     O     0.49861   0.31590   0.37497   0.00000  Uiso   1.00
C1     C     0.50024   0.25959   0.49146   0.00000  Uiso   1.00
O3     O     0.37625   0.49295   0.61784   0.00000  Uiso   1.00
O4     O     0.37293   0.49431   0.38508   0.00000  Uiso   1.00
C2     C     0.33565   0.49331   0.50284   0.00000  Uiso   1.00
Zn1    Zn    0.50180   0.49334   0.64846   0.00000  Uiso   1.00
Zn2    Zn    0.49692   0.49547   0.34122   0.00000  Uiso   1.00
O5     O     0.50088   0.67278   0.61502   0.00000  Uiso   1.00
O6     O     0.49768   0.67386   0.38153   0.00000  Uiso   1.00
O7     O     0.62586   0.49469   0.60500   0.00000  Uiso   1.00
O8     O     0.62253   0.49581   0.37146   0.00000  Uiso   1.00
C3     C     0.49890   0.72921   0.49863   0.00000  Uiso   1.00
C4     C     0.66304   0.49542   0.48687   0.00000  Uiso   1.00
C5     C     0.04240   0.40994   0.61248   0.00000  Uiso   1.00
C6     C     0.04896   0.45011   0.36221   0.00000  Uiso   1.00
C7     C     0.95490   0.46614   0.35188   0.00000  Uiso   1.00
H1     H     0.93509   0.30699   0.54217   0.00000  Uiso   1.00
H2     H     0.07969   0.50593   0.28382   0.00000  Uiso   1.00
H3     H     0.06562   0.35519   0.34298   0.00000  Uiso   1.00
H4     H     0.92625   0.38297   0.31116   0.00000  Uiso   1.00
H5     H     0.94056   0.54189   0.28300   0.00000  Uiso   1.00
C8     C     0.75296   0.49504   0.48472   0.00000  Uiso   1.00
C9     C     0.07847   0.49009   0.50120   0.00000  Uiso   1.00
C10    C     0.94901   0.39569   0.58766   0.00000  Uiso   1.00
C11    C     0.92011   0.49273   0.49089   0.00000  Uiso   1.00
C12    C     0.95217   0.61394   0.53792   0.00000  Uiso   1.00
C13    C     0.04680   0.61680   0.52475   0.00000  Uiso   1.00
C14    C     0.82848   0.49425   0.48618   0.00000  Uiso   1.00
C15    C     0.17020   0.49126   0.50450   0.00000  Uiso   1.00
C16    C     0.24573   0.49233   0.50516   0.00000  Uiso   1.00
H6     H     0.07463   0.65432   0.61822   0.00000  Uiso   1.00
H7     H     0.06472   0.67471   0.43838   0.00000  Uiso   1.00
H8     H     0.93414   0.62835   0.64481   0.00000  Uiso   1.00
H9     H     0.05100   0.45753   0.70969   0.00000  Uiso   1.00
H10    H     0.91480   0.40405   0.68467   0.00000  Uiso   1.00
H11    H     0.92455   0.68636   0.47530   0.00000  Uiso   1.00
C17    C     0.49809   0.92664   0.38853   0.00000  Uiso   1.00
C18    C     0.49869   0.86079   0.50190   0.00000  Uiso   1.00
H12    H     0.49743   0.88144   0.29174   0.00000  Uiso   1.00
H13    H     0.49883   0.90107   0.60087   0.00000  Uiso   1.00
C19    C     0.49783   0.05975   0.38574   0.00000  Uiso   1.00
C20    C     0.50096   0.12816   0.49656   0.00000  Uiso   1.00
H14    H     0.49510   0.10259   0.28767   0.00000  Uiso   1.00
H15    H     0.50416   0.08974   0.59629   0.00000  Uiso   1.00
C21    C     0.53605   0.57669   0.92203   0.00000  Uiso   1.00
N1     N     0.50664   0.49048   0.85013   0.00000  Uiso   1.00
H16    H     0.55980   0.65668   0.87289   0.00000  Uiso   1.00
H17    H     0.49494   0.41086   0.89886   0.00000  Uiso   1.00
C22    C     0.54281   0.56680   0.07059   0.00000  Uiso   1.00
N2     N     0.49328   0.49950   0.13953   0.00000  Uiso   1.00
H18    H     0.58865   0.62162   0.12268   0.00000  Uiso   1.00
H19    H     0.44367   0.46154   0.08918   0.00000  Uiso   1.00
C23    C     0.08511   0.28704   0.62338   0.00000  Uiso   1.00
C24    C     0.04539   0.21353   0.73222   0.00000  Uiso   1.00
C25    C     0.00197   0.10995   0.70022   0.00000  Uiso   1.00
C26    C     0.96634   0.04143   0.80097   0.00000  Uiso   1.00
C27    C     0.97444   0.07548   0.93401   0.00000  Uiso   1.00
C28    C     0.01850   0.17789   0.96644   0.00000  Uiso   1.00
C29    C     0.05411   0.24662   0.86589   0.00000  Uiso   1.00
H20    H     0.15224   0.29734   0.64962   0.00000  Uiso   1.00
H21    H     0.08072   0.23799   0.52656   0.00000  Uiso   1.00
H22    H     0.99519   0.08196   0.59635   0.00000  Uiso   1.00
H23    H     0.93211   0.96079   0.77555   0.00000  Uiso   1.00
H24    H     0.94658   0.02160   0.01290   0.00000  Uiso   1.00
H25    H     0.02538   0.20416   0.07086   0.00000  Uiso   1.00
H26    H     0.08941   0.32594   0.89262   0.00000  Uiso   1.00
