# Generated by REPEAT Assigner based on pymatgen
data_DB0-m3_o10_o26_f0_pcu.sym.17
_audit_creation_date              2022-05-24
_audit_creation_method            REPEAT_Assigner
_cell_length_a                    7.720351
_cell_length_b                    8.901341
_cell_length_c                    17.416204
_cell_angle_alpha                 90.497124
_cell_angle_beta                  80.332352
_cell_angle_gamma                 91.440144
_cell_volume                      1179.485171
_symmetry_space_group_name_H-M    P1
_symmetry_Int_Tables_number       1
loop_
    _symmetry_equiv_pos_site_id
    _symmetry_equiv_pos_as_xyz
    1  x,y,z
loop_
    _atom_site_type_symbol
    _atom_site_label
    _atom_site_fract_x
    _atom_site_fract_y
    _atom_site_fract_z
    _atom_type_partial_charge
    O   O1   0.381939  0.736257  0.505323  -0.751305
    O   O2   0.618061  0.263744  0.494677  -0.751430
    O   O3   0.682712  0.709324  0.490738  -0.659791
    O   O4   0.317289  0.290677  0.509262  -0.659994
    C   C1   0.542905  0.792174  0.497446  0.882667
    C   C2   0.457095  0.207826  0.502554  0.882932
    O   O5   0.331489  0.516033  0.622697  -0.726307
    O   O6   0.668512  0.483968  0.377302  -0.726185
    O   O7   0.632259  0.489319  0.608252  -0.589932
    O   O8   0.367741  0.510681  0.391748  -0.589828
    C   C3   0.477136  0.503513  0.651423  0.728079
    C   C4   0.522864  0.496487  0.348577  0.727838
    Zn  Zn1  0.301812  0.517504  0.509285  1.061930
    Zn  Zn2  0.698188  0.482496  0.490715  1.061755
    C   C5   0.467290  0.506599  0.735808  -0.119552
    C   C6   0.532710  0.493401  0.264192  -0.119383
    C   C7   0.618722  0.496259  0.767339  0.049960
    C   C8   0.381278  0.503742  0.232661  0.049743
    C   C9   0.611642  0.500391  0.846964  -0.338570
    C   C10  0.388358  0.499609  0.153036  -0.338337
    C   C11  0.451534  0.514129  0.895829  0.343002
    C   C12  0.548466  0.485871  0.104171  0.342920
    C   C13  0.300536  0.526235  0.863756  -0.296257
    C   C14  0.699464  0.473765  0.136243  -0.296327
    C   C15  0.308050  0.521963  0.784085  -0.014078
    C   C16  0.691951  0.478037  0.215915  -0.014074
    C   C17  0.435615  0.520418  0.981190  -0.235637
    C   C18  0.564385  0.479583  0.018810  -0.235678
    H   H1   0.744154  0.486191  0.729542  0.048523
    H   H2   0.255846  0.513810  0.270458  0.048640
    H   H3   0.810937  0.468944  0.240418  0.089962
    H   H4   0.189064  0.531057  0.759582  0.089941
    H   H5   0.687004  0.440084  0.986957  0.129445
    H   H6   0.312996  0.559916  0.013043  0.129513
    H   H7   0.175185  0.538443  0.901365  0.134850
    H   H8   0.824816  0.461557  0.098635  0.134912
    H   H9   0.266300  0.503442  0.130997  0.174580
    H   H10  0.733700  0.496558  0.869003  0.174715
    C   C19  0.568704  0.955453  0.496340  -0.207171
    C   C20  0.431296  0.044547  0.503660  -0.207242
    H   H11  0.700648  0.003722  0.489659  0.093552
    H   H12  0.299352  0.996278  0.510341  0.093561
    N   N1   0.958398  0.460395  0.479373  -0.030909
    N   N2   0.041603  0.539606  0.520626  -0.031132
    Br  Br1  0.093919  0.326180  0.412273  0.232994
    Br  Br2  0.906081  0.673821  0.587727  0.233104
