# Generated by REPEAT Assigner based on pymatgen
data_DB0-m2_o41_o41_f0_fof.sym.28
_audit_creation_date              2022-05-24
_audit_creation_method            REPEAT_Assigner
_cell_length_a                    17.024985
_cell_length_b                    16.761678
_cell_length_c                    16.702967
_cell_angle_alpha                 67.334337
_cell_angle_beta                  67.168694
_cell_angle_gamma                 67.253160
_cell_volume                      3892.987417
_symmetry_space_group_name_H-M    P1
_symmetry_Int_Tables_number       1
loop_
    _symmetry_equiv_pos_site_id
    _symmetry_equiv_pos_as_xyz
    1  x,y,z
loop_
    _atom_site_type_symbol
    _atom_site_label
    _atom_site_fract_x
    _atom_site_fract_y
    _atom_site_fract_z
    _atom_type_partial_charge
    O   O1    0.127000  0.988252  0.384713  -0.426866
    O   O2    0.872999  0.011748  0.615287  -0.426729
    O   O3    0.982323  0.385204  0.128595  -0.414636
    O   O4    0.017676  0.614796  0.871405  -0.414594
    O   O5    0.384945  0.126620  0.984460  -0.417231
    O   O6    0.615054  0.873380  0.015540  -0.417157
    O   O7    0.614928  0.016917  0.872702  -0.413385
    O   O8    0.385072  0.983083  0.127298  -0.413299
    O   O9    0.873550  0.615275  0.011686  -0.425366
    O   O10   0.126449  0.384725  0.988314  -0.425424
    O   O11   0.016398  0.871514  0.614919  -0.417871
    O   O12   0.983602  0.128486  0.385081  -0.417932
    C   C1    0.319603  0.969304  0.453707  0.193252
    C   C2    0.680396  0.030696  0.546293  0.193222
    C   C3    0.955923  0.454377  0.325721  0.204375
    C   C4    0.044076  0.545624  0.674279  0.204299
    C   C5    0.449351  0.324637  0.962638  0.210510
    C   C6    0.550648  0.675364  0.037362  0.210492
    C   C7    0.550328  0.039825  0.674246  0.210449
    C   C8    0.449672  0.960175  0.325753  0.210438
    C   C9    0.680331  0.547456  0.029758  0.194571
    C   C10   0.319669  0.452545  0.970242  0.194589
    C   C11   0.042568  0.675481  0.544750  0.199032
    C   C12   0.957432  0.324520  0.455250  0.198987
    Cu  Cu1   0.000579  0.998967  0.421083  0.919052
    Cu  Cu2   0.999420  0.001033  0.578917  0.918898
    Cu  Cu3   0.000138  0.421760  0.998392  0.914606
    Cu  Cu4   0.999861  0.578240  0.001608  0.914788
    Cu  Cu5   0.424357  0.997559  0.997439  0.905745
    Cu  Cu6   0.575642  0.002441  0.002560  0.905722
    C   C13   0.031021  0.826320  0.559058  0.503098
    C   C14   0.968979  0.173681  0.440942  0.503027
    C   C15   0.829585  0.560683  0.022211  0.523518
    C   C16   0.170415  0.439318  0.977789  0.523533
    C   C17   0.562714  0.028359  0.825922  0.505082
    C   C18   0.437286  0.971642  0.174078  0.504963
    C   C19   0.437026  0.173235  0.973575  0.513961
    C   C20   0.562974  0.826766  0.026424  0.513937
    C   C21   0.967849  0.440386  0.174414  0.499767
    C   C22   0.032151  0.559614  0.825586  0.499713
    C   C23   0.170524  0.977021  0.440110  0.522463
    C   C24   0.829476  0.022980  0.559890  0.522247
    O   O13   0.024510  0.869322  0.476621  -0.495416
    O   O14   0.975490  0.130679  0.523379  -0.495277
    O   O15   0.872913  0.478290  0.016316  -0.519069
    O   O16   0.127086  0.521711  0.983684  -0.519032
    O   O17   0.482158  0.019844  0.867815  -0.498698
    O   O18   0.517842  0.980157  0.132184  -0.498662
    O   O19   0.517674  0.131400  0.981684  -0.504534
    O   O20   0.482326  0.868600  0.018315  -0.504570
    O   O21   0.975012  0.522385  0.131715  -0.492216
    O   O22   0.024988  0.477616  0.868284  -0.492199
    O   O23   0.126841  0.982644  0.522858  -0.517724
    O   O24   0.873159  0.017357  0.477141  -0.517652
    C   C25   0.407249  0.971833  0.411601  -0.107992
    C   C26   0.592750  0.028167  0.588399  -0.108017
    C   C27   0.964801  0.411439  0.412324  -0.104582
    C   C28   0.035198  0.588561  0.587676  -0.104566
    C   C29   0.407105  0.410589  0.973371  -0.111182
    C   C30   0.592894  0.589412  0.026628  -0.111174
    C   C31   0.270232  0.962834  0.406077  -0.110176
    C   C32   0.729768  0.037166  0.593923  -0.110086
    C   C33   0.951265  0.406334  0.275654  -0.092332
    C   C34   0.048735  0.593667  0.724345  -0.092238
    C   C35   0.401471  0.274146  0.959771  -0.113872
    C   C36   0.598529  0.725854  0.040228  -0.113829
    C   C37   0.598189  0.042709  0.724709  -0.106172
    C   C38   0.401811  0.957292  0.275290  -0.106110
    C   C39   0.729869  0.595122  0.035764  -0.112918
    C   C40   0.270131  0.404878  0.964236  -0.112951
    C   C41   0.047694  0.725396  0.592777  -0.090869
    C   C42   0.952305  0.274604  0.407223  -0.090841
    C   C43   0.459135  0.053409  0.705423  -0.297220
    C   C44   0.540864  0.946591  0.294577  -0.297197
    C   C45   0.049087  0.708046  0.453033  -0.289576
    C   C46   0.950912  0.291955  0.546967  -0.289566
    C   C47   0.713256  0.456747  0.032320  -0.283065
    C   C48   0.286744  0.543253  0.967680  -0.283092
    C   C49   0.286297  0.967936  0.544478  -0.279821
    C   C50   0.713703  0.032065  0.455522  -0.279783
    C   C51   0.540473  0.293533  0.949658  -0.291592
    C   C52   0.459527  0.706468  0.050342  -0.291550
    C   C53   0.947586  0.546088  0.293482  -0.288545
    C   C54   0.052414  0.453912  0.706518  -0.288480
    C   C55   0.315341  0.949742  0.319681  0.011014
    C   C56   0.684658  0.050258  0.680319  0.011034
    C   C57   0.941690  0.319382  0.320337  -0.027975
    C   C58   0.058309  0.680619  0.679663  -0.028016
    C   C59   0.315058  0.318451  0.951925  0.019193
    C   C60   0.684941  0.681550  0.048074  0.019155
    C   C61   0.670880  0.011320  0.414264  0.141363
    C   C62   0.329119  0.988680  0.585736  0.141383
    C   C63   0.027377  0.412409  0.667441  0.179383
    C   C64   0.972623  0.587592  0.332559  0.179305
    C   C65   0.416019  0.666728  0.029049  0.194770
    C   C66   0.583981  0.333272  0.970951  0.194828
    C   C67   0.584377  0.968663  0.333654  0.205698
    C   C68   0.415622  0.031337  0.666346  0.205752
    C   C69   0.329433  0.584869  0.988074  0.151129
    C   C70   0.670566  0.415132  0.011926  0.151066
    C   C71   0.975624  0.331814  0.588050  0.176389
    C   C72   0.024375  0.668187  0.411950  0.176349
    C   C73   0.712160  0.999187  0.328443  -0.061541
    C   C74   0.287840  0.000814  0.671556  -0.061542
    C   C75   0.017306  0.326580  0.711134  -0.111903
    C   C76   0.982694  0.673421  0.288866  -0.111839
    C   C77   0.329760  0.709521  0.023886  -0.119606
    C   C78   0.670239  0.290480  0.976114  -0.119656
    C   C79   0.670628  0.973859  0.290252  -0.130204
    C   C80   0.329371  0.026141  0.709748  -0.130257
    C   C81   0.288165  0.670618  0.999490  -0.068246
    C   C82   0.711834  0.329382  0.000510  -0.068167
    C   C83   0.986533  0.288677  0.673902  -0.106486
    C   C84   0.013467  0.711323  0.326098  -0.106482
    H   H1    0.419468  0.087412  0.756770  0.162451
    H   H2    0.580532  0.912588  0.243229  0.162452
    H   H3    0.078854  0.761353  0.410653  0.162019
    H   H4    0.921146  0.238647  0.589347  0.161999
    H   H5    0.768975  0.414380  0.056925  0.175646
    H   H6    0.231024  0.585621  0.943074  0.175645
    H   H7    0.229981  0.944374  0.587163  0.174755
    H   H8    0.770018  0.055627  0.412837  0.174721
    H   H9    0.580321  0.241925  0.916249  0.163251
    H   H10   0.419678  0.758075  0.083751  0.163241
    H   H11   0.916305  0.587876  0.241005  0.158740
    H   H12   0.083694  0.412124  0.758995  0.158664
    C   C85   0.541167  0.986599  0.415821  -0.051876
    C   C86   0.458833  0.013402  0.584179  -0.051944
    C   C87   0.990244  0.414823  0.542800  -0.022465
    C   C88   0.009755  0.585177  0.457199  -0.022455
    C   C89   0.413893  0.541248  0.996237  -0.012440
    C   C90   0.586107  0.458752  0.003763  -0.012388
    C   C91   0.586264  0.003468  0.458334  -0.002163
    C   C92   0.413735  0.996533  0.541666  -0.002118
    C   C93   0.459054  0.584344  0.012245  -0.047459
    C   C94   0.540946  0.415657  0.987755  -0.047508
    C   C95   0.011264  0.457384  0.584833  -0.027914
    C   C96   0.988735  0.542616  0.415167  -0.027857
    C   C97   0.454261  0.983639  0.456791  0.050746
    C   C98   0.545738  0.016362  0.543209  0.050818
    C   C99   0.979587  0.456787  0.457301  0.044420
    C   C100  0.020413  0.543213  0.542698  0.044414
    C   C101  0.454178  0.456203  0.984491  0.057518
    C   C102  0.545822  0.543798  0.015508  0.057491
    C   C103  0.277245  0.915337  0.280839  0.253247
    N   N1    0.246943  0.887164  0.249869  -0.357865
    C   C104  0.722754  0.084664  0.719161  0.253227
    N   N2    0.753057  0.112837  0.750130  -0.357860
    C   C105  0.908619  0.280199  0.281172  0.292461
    N   N3    0.881589  0.248974  0.249952  -0.388517
    C   C106  0.091381  0.719802  0.718827  0.292452
    N   N4    0.118410  0.751027  0.750048  -0.388509
    C   C107  0.276808  0.279407  0.917934  0.245910
    N   N5    0.246373  0.248287  0.890068  -0.351358
    C   C108  0.723192  0.720594  0.082066  0.245912
    N   N6    0.753626  0.751714  0.109931  -0.351384
    C   C109  0.283384  0.039932  0.798040  0.334080
    N   N7    0.246346  0.051072  0.869066  -0.314136
    C   C110  0.716615  0.960068  0.201960  0.334055
    N   N8    0.753654  0.948929  0.130934  -0.314141
    C   C111  0.029710  0.797556  0.275413  0.335449
    N   N9    0.043424  0.866659  0.234446  -0.316790
    C   C112  0.970290  0.202444  0.724587  0.335430
    N   N10   0.956575  0.133341  0.765554  -0.316769
    C   C113  0.799401  0.279751  0.010347  0.303497
    N   N11   0.869651  0.239595  0.018784  -0.306073
    C   C114  0.200598  0.720250  0.989653  0.303555
    N   N12   0.130349  0.760405  0.981216  -0.306099
    C   C115  0.200586  0.990211  0.722205  0.303121
    N   N13   0.130630  0.981062  0.763213  -0.306244
    C   C116  0.799414  0.009790  0.277795  0.303118
    N   N14   0.869370  0.018938  0.236787  -0.306255
    C   C117  0.716325  0.202291  0.962981  0.329316
    N   N15   0.753445  0.131360  0.952349  -0.312678
    C   C118  0.283675  0.797709  0.037019  0.329298
    N   N16   0.246554  0.868641  0.047651  -0.312680
    C   C119  0.966304  0.723067  0.202309  0.338517
    N   N17   0.952578  0.763163  0.132896  -0.316764
    C   C120  0.033696  0.276934  0.797691  0.338575
    N   N18   0.047421  0.236837  0.867103  -0.316796
