# Generated by REPEAT Assigner based on pymatgen
data_DB0-m3_o440_o20_f0_fsc.sym.1_sqe
_audit_creation_date              2022-05-24
_audit_creation_method            REPEAT_Assigner
_cell_length_a                    12.783649
_cell_length_b                    8.551461
_cell_length_c                    13.428232
_cell_angle_alpha                 90.000000
_cell_angle_beta                  90.909335
_cell_angle_gamma                 90.000000
_cell_volume                      1467.774382
_symmetry_space_group_name_H-M    P1
_symmetry_Int_Tables_number       1
loop_
    _symmetry_equiv_pos_site_id
    _symmetry_equiv_pos_as_xyz
    1  x,y,z
loop_
    _atom_site_type_symbol
    _atom_site_label
    _atom_site_fract_x
    _atom_site_fract_y
    _atom_site_fract_z
    _atom_type_partial_charge
    C   C1   0.021782  0.139640  0.695570  -0.002442
    C   C2   0.978219  0.860360  0.304430  -0.002478
    C   C3   0.978219  0.139640  0.304430  -0.002471
    C   C4   0.021782  0.860360  0.695570  -0.002455
    C   C5   0.007948  0.140274  0.797189  -0.324819
    C   C6   0.992053  0.859726  0.202811  -0.324817
    C   C7   0.992053  0.140274  0.202811  -0.324824
    C   C8   0.007948  0.859726  0.797189  -0.324796
    H   H1   0.000284  0.249709  0.836702  0.157741
    H   H2   0.999717  0.750291  0.163298  0.157745
    H   H3   0.999717  0.249709  0.163298  0.157746
    H   H4   0.000284  0.750292  0.836702  0.157730
    C   C9   0.006004  0.000000  0.848484  0.404625
    C   C10  0.993996  0.000000  0.151516  0.404718
    Zn  Zn1  0.884172  0.500000  0.511029  1.111530
    Zn  Zn2  0.115828  0.500000  0.488971  1.111248
    C   C11  0.034605  0.000000  0.646758  -0.146842
    C   C12  0.965395  0.000000  0.353242  -0.146876
    C   C13  0.001355  0.000000  0.955174  -0.188664
    C   C14  0.998645  0.000000  0.044826  -0.188777
    N   N1   0.747431  0.500000  0.521510  -0.092489
    N   N2   0.252570  0.500000  0.478490  -0.092616
    H   H5   0.047579  0.000000  0.567848  0.130156
    H   H6   0.952421  0.000000  0.432153  0.130215
    C   C15  0.657033  0.500000  0.515547  0.239078
    C   C16  0.342968  0.500000  0.484453  0.239237
    O   O1   0.099795  0.669182  0.592066  -0.719834
    O   O2   0.900205  0.330818  0.407934  -0.719920
    O   O3   0.900205  0.669182  0.407934  -0.719917
    O   O4   0.099795  0.330818  0.592066  -0.719839
    O   O5   0.921167  0.663259  0.614061  -0.687170
    O   O6   0.078833  0.336741  0.385939  -0.687005
    O   O7   0.078833  0.663259  0.385939  -0.687004
    O   O8   0.921167  0.336741  0.614061  -0.687173
    C   C17  0.014741  0.718326  0.635519  0.829716
    C   C18  0.985259  0.281674  0.364481  0.829649
    C   C19  0.985259  0.718326  0.364481  0.829648
    C   C20  0.014741  0.281674  0.635519  0.829721
    C   C21  0.546926  0.500000  0.505052  0.036426
    C   C22  0.453075  0.500000  0.494948  0.036300
