# Generated by REPEAT Assigner based on pymatgen
data_DB0-m3_o32_o1_tfo_sqe
_audit_creation_date              2022-05-24
_audit_creation_method            REPEAT_Assigner
_cell_length_a                    22.664915
_cell_length_b                    21.018296
_cell_length_c                    16.776409
_cell_angle_alpha                 68.669896
_cell_angle_beta                  54.808640
_cell_angle_gamma                 86.393939
_cell_volume                      5969.770145
_symmetry_space_group_name_H-M    P1
_symmetry_Int_Tables_number       1
loop_
    _symmetry_equiv_pos_site_id
    _symmetry_equiv_pos_as_xyz
    1  x,y,z
loop_
    _atom_site_type_symbol
    _atom_site_label
    _atom_site_fract_x
    _atom_site_fract_y
    _atom_site_fract_z
    _atom_type_partial_charge
    O   O1   0.658450  0.550839  0.449802  -0.724248
    O   O2   0.540993  0.392615  0.529590  -0.649104
    O   O3   0.603731  0.487239  0.372107  -0.660561
    O   O4   0.597892  0.453824  0.603669  -0.728495
    C   C1   0.657975  0.502122  0.526805  0.729940
    C   C2   0.584137  0.419567  0.425487  0.628239
    O   O5   0.470737  0.518808  0.681301  -0.674680
    O   O6   0.477677  0.551688  0.448288  -0.734539
    O   O7   0.417202  0.454179  0.601357  -0.726884
    O   O8   0.535116  0.612863  0.523292  -0.641085
    Zn  Zn1  0.578205  0.564397  0.424350  1.299789
    Zn  Zn2  0.497216  0.441423  0.628362  1.305395
    C   C3   0.492096  0.586437  0.627368  0.634892
    C   C4   0.417857  0.502865  0.523956  0.767877
    C   C5   0.243363  0.805655  0.941773  0.134427
    C   C6   0.271036  0.858861  0.768248  0.107908
    C   C7   0.337952  0.773842  0.802331  -0.055255
    C   C8   0.229494  0.851752  0.873192  -0.260433
    H   H1   0.185780  0.880622  0.901925  0.117651
    C   C9   0.325272  0.820243  0.733868  -0.121595
    H   H2   0.357337  0.825281  0.652475  0.118075
    C   C10  0.297496  0.767182  0.905721  -0.135878
    H   H3   0.305477  0.728612  0.960576  0.104223
    C   C11  0.225178  0.779540  0.109567  -0.106611
    C   C12  0.189831  0.731999  0.213332  -0.178192
    C   C13  0.124109  0.689782  0.263522  0.065628
    C   C14  0.089883  0.700559  0.214689  -0.189747
    C   C15  0.124471  0.749004  0.111783  -0.075758
    C   C16  0.194414  0.785226  0.056671  0.026538
    H   H4   0.217631  0.722460  0.250372  0.130072
    H   H5   0.039153  0.666238  0.253250  0.129501
    H   H6   0.280879  0.806139  0.066092  0.089748
    H   H7   0.101309  0.750634  0.070118  0.100544
    C   C17  0.362813  0.655196  0.829123  -0.126900
    C   C18  0.400397  0.608874  0.786111  -0.181953
    C   C19  0.461787  0.633378  0.681422  0.081982
    C   C20  0.489488  0.703911  0.623338  -0.149827
    C   C21  0.452320  0.750071  0.666560  -0.149054
    C   C22  0.386990  0.725934  0.767659  0.141828
    H   H8   0.377812  0.553797  0.832373  0.138916
    H   H9   0.538147  0.724003  0.541697  0.125526
    H   H10  0.310976  0.635282  0.907664  0.119336
    H   H11  0.472634  0.805297  0.618276  0.107047
    C   C23  0.269058  0.888924  0.614589  -0.138180
    C   C24  0.300354  0.936614  0.512101  -0.124411
    C   C25  0.324682  0.005072  0.483501  0.044441
    C   C26  0.306974  0.027085  0.562017  -0.103280
    C   C27  0.277106  0.979004  0.664104  -0.170931
    C   C28  0.264215  0.909109  0.687708  0.064716
    H   H12  0.313246  0.918535  0.452077  0.097636
    H   H13  0.326696  0.080179  0.541314  0.111527
    H   H14  0.258268  0.834282  0.632438  0.095892
    H   H15  0.274885  0.995629  0.719509  0.117577
    O   O9   0.967223  0.436169  0.693358  -0.684151
    O   O10  0.154929  0.471094  0.465493  -0.711978
    O   O11  0.108241  0.532456  0.568741  -0.703475
    O   O12  0.013332  0.380593  0.581484  -0.701426
    C   C29  0.973189  0.378304  0.678065  0.708983
    C   C30  0.161681  0.501654  0.516967  0.667318
    O   O13  0.972710  0.472093  0.466056  -0.699151
    O   O14  0.060796  0.623678  0.451472  -0.703996
    O   O15  0.108142  0.566577  0.341356  -0.708159
    O   O16  0.925819  0.532071  0.571661  -0.704692
    Zn  Zn3  0.008757  0.538182  0.589329  1.309559
    Zn  Zn4  0.072174  0.465610  0.445695  1.315449
    C   C31  0.919097  0.502194  0.519626  0.731627
    C   C32  0.098816  0.624868  0.355438  0.757365
    C   C33  0.642817  0.249361  0.203621  -0.069522
    C   C34  0.719362  0.216945  0.056331  0.079886
    C   C35  0.588426  0.176448  0.172589  0.111929
    C   C36  0.710863  0.252574  0.116105  -0.099000
    H   H16  0.757117  0.285793  0.093015  0.102831
    C   C37  0.657549  0.178426  0.084723  -0.246636
    H   H17  0.662866  0.151118  0.037992  0.123339
    C   C38  0.582072  0.211017  0.232227  -0.110512
    H   H18  0.528805  0.208853  0.301784  0.110857
    C   C39  0.588818  0.262790  0.370918  -0.149794
    C   C40  0.574931  0.304178  0.424886  -0.152132
    C   C41  0.605668  0.374246  0.368977  0.091959
    C   C42  0.652852  0.402146  0.259275  -0.189072
    C   C43  0.667274  0.360571  0.205463  -0.120862
    C   C44  0.634063  0.291167  0.261134  0.142006
    H   H19  0.537760  0.281447  0.510876  0.127788
    H   H20  0.677252  0.456908  0.214342  0.136514
    H   H21  0.563255  0.208275  0.415249  0.109341
    H   H22  0.701734  0.383781  0.119416  0.116004
    C   C45  0.457134  0.162196  0.250764  -0.128438
    C   C46  0.389647  0.118994  0.332142  -0.119723
    C   C47  0.385301  0.048087  0.372693  0.031844
    C   C48  0.447218  0.020598  0.320334  -0.095568
    C   C49  0.514994  0.063970  0.240196  -0.167245
    C   C50  0.520605  0.134775  0.211876  0.052491
    H   H23  0.341850  0.141434  0.371392  0.095764
    H   H24  0.445623  0.965315  0.351792  0.107669
    H   H25  0.460616  0.217767  0.228201  0.091786
    H   H26  0.563958  0.041567  0.212050  0.113963
    C   C51  0.854071  0.243811  0.951194  -0.093840
    C   C52  0.916939  0.288107  0.857373  -0.175302
    C   C53  0.920516  0.315116  0.766546  0.083997
    C   C54  0.864361  0.292304  0.767287  -0.231524
    C   C55  0.799783  0.251047  0.862267  -0.070175
    C   C56  0.792620  0.231097  0.955934  0.038585
    H   H27  0.960816  0.305760  0.857185  0.122741
    H   H28  0.866642  0.314597  0.696242  0.168050
    H   H29  0.850548  0.226649  0.023139  0.087468
    H   H30  0.752657  0.242774  0.863476  0.098695
    C   C57  0.319650  0.443168  0.532229  -0.153155
    H   H31  0.341886  0.396250  0.542064  0.130829
    C   C58  0.260086  0.443425  0.527036  -0.165453
    H   H32  0.237045  0.396453  0.534183  0.133781
    C   C59  0.228339  0.501905  0.516958  0.115292
    C   C60  0.259898  0.560643  0.509027  -0.183387
    H   H33  0.237127  0.607331  0.500729  0.145224
    C   C61  0.322005  0.561557  0.508125  -0.146749
    H   H34  0.345605  0.608729  0.499807  0.128479
    C   C62  0.352297  0.502482  0.521569  0.047870
    C   C63  0.817450  0.442713  0.535307  -0.156367
    H   H35  0.839329  0.395534  0.544642  0.129821
    C   C64  0.753642  0.442031  0.540536  -0.148660
    H   H36  0.727786  0.394568  0.552667  0.123781
    C   C65  0.724526  0.501793  0.526345  0.080460
    C   C66  0.760056  0.561658  0.510046  -0.174157
    H   H37  0.738890  0.609143  0.498930  0.131934
    C   C67  0.821323  0.561259  0.511046  -0.113538
    H   H38  0.846697  0.608558  0.500002  0.114713
    C   C68  0.851791  0.502081  0.521932  0.030580
