data_DB0-m3_o11_o23_f0_pcu.sym.20_repeat
_audit_creation_date              2024-02-23
_audit_creation_method            'Materials Studio'
_symmetry_space_group_name_H-M    'P1'
_symmetry_Int_Tables_number       1
_symmetry_cell_setting            triclinic
loop_
_symmetry_equiv_pos_as_xyz
  x,y,z
_cell_length_a                    15.9592
_cell_length_b                    11.1355
_cell_length_c                    9.9113
_cell_angle_alpha                 89.9974
_cell_angle_beta                  89.9750
_cell_angle_gamma                 89.9982
loop_
_atom_site_label
_atom_site_type_symbol
_atom_site_fract_x
_atom_site_fract_y
_atom_site_fract_z
_atom_site_U_iso_or_equiv
_atom_site_adp_type
_atom_site_occupancy
O1     O     0.50063   0.32285   0.61651   0.00000  Uiso   1.00
O2     O     0.49756   0.32345   0.38395   0.00000  Uiso   1.00
C1     C     0.49924   0.26713   0.50041   0.00000  Uiso   1.00
O3     O     0.37408   0.49947   0.62633   0.00000  Uiso   1.00
O4     O     0.37123   0.50095   0.39361   0.00000  Uiso   1.00
C2     C     0.33372   0.49953   0.51112   0.00000  Uiso   1.00
Zn1    Zn    0.49957   0.50090   0.65744   0.00000  Uiso   1.00
Zn2    Zn    0.49525   0.50304   0.35022   0.00000  Uiso   1.00
O5     O     0.49797   0.68036   0.62404   0.00000  Uiso   1.00
O6     O     0.49526   0.68145   0.39055   0.00000  Uiso   1.00
O7     O     0.62366   0.50342   0.61448   0.00000  Uiso   1.00
O8     O     0.62078   0.50444   0.38093   0.00000  Uiso   1.00
C3     C     0.49602   0.73681   0.50765   0.00000  Uiso   1.00
C4     C     0.66106   0.50439   0.49654   0.00000  Uiso   1.00
C5     C     0.04174   0.44754   0.63821   0.00000  Uiso   1.00
C6     C     0.04409   0.41913   0.38579   0.00000  Uiso   1.00
C7     C     0.94966   0.43592   0.37754   0.00000  Uiso   1.00
H1     H     0.92919   0.34181   0.61988   0.00000  Uiso   1.00
H2     H     0.06916   0.35922   0.66466   0.00000  Uiso   1.00
H3     H     0.07170   0.45572   0.29168   0.00000  Uiso   1.00
H4     H     0.91751   0.34780   0.37222   0.00000  Uiso   1.00
H5     H     0.93407   0.48725   0.28500   0.00000  Uiso   1.00
C8     C     0.75096   0.50473   0.49483   0.00000  Uiso   1.00
C9     C     0.07665   0.49355   0.50543   0.00000  Uiso   1.00
C10    C     0.94733   0.43771   0.62689   0.00000  Uiso   1.00
C11    C     0.91821   0.50320   0.50070   0.00000  Uiso   1.00
C12    C     0.95320   0.63070   0.49628   0.00000  Uiso   1.00
C13    C     0.04814   0.62280   0.48697   0.00000  Uiso   1.00
C14    C     0.82647   0.50445   0.49642   0.00000  Uiso   1.00
C15    C     0.16832   0.49502   0.51051   0.00000  Uiso   1.00
C16    C     0.24383   0.49734   0.51268   0.00000  Uiso   1.00
H6     H     0.07842   0.67954   0.56477   0.00000  Uiso   1.00
H7     H     0.06851   0.65558   0.38651   0.00000  Uiso   1.00
H8     H     0.05795   0.51145   0.71988   0.00000  Uiso   1.00
H9     H     0.91743   0.47591   0.71828   0.00000  Uiso   1.00
H10    H     0.92951   0.67467   0.40345   0.00000  Uiso   1.00
C17    C     0.49624   0.93420   0.39749   0.00000  Uiso   1.00
C18    C     0.49537   0.86841   0.51088   0.00000  Uiso   1.00
H11    H     0.49670   0.88898   0.30072   0.00000  Uiso   1.00
H12    H     0.49382   0.90880   0.60977   0.00000  Uiso   1.00
C19    C     0.49581   0.06732   0.39472   0.00000  Uiso   1.00
C20    C     0.50049   0.13568   0.50542   0.00000  Uiso   1.00
H13    H     0.49188   0.11019   0.29678   0.00000  Uiso   1.00
H14    H     0.50540   0.09715   0.60492   0.00000  Uiso   1.00
C21    C     0.53496   0.58338   0.93081   0.00000  Uiso   1.00
N1     N     0.50411   0.49807   0.85909   0.00000  Uiso   1.00
H15    H     0.55978   0.66262   0.88149   0.00000  Uiso   1.00
H16    H     0.49149   0.41871   0.90778   0.00000  Uiso   1.00
C22    C     0.54188   0.57340   0.07935   0.00000  Uiso   1.00
N2     N     0.49186   0.50708   0.14854   0.00000  Uiso   1.00
H17    H     0.58832   0.62736   0.13120   0.00000  Uiso   1.00
H18    H     0.44176   0.47017   0.09849   0.00000  Uiso   1.00
C23    C     0.06281   0.28366   0.39024   0.00000  Uiso   1.00
C24    C     0.15515   0.25325   0.37578   0.00000  Uiso   1.00
H19    H     0.18580   0.31458   0.30272   0.00000  Uiso   1.00
H20    H     0.18654   0.25697   0.47537   0.00000  Uiso   1.00
H21    H     0.16073   0.16002   0.33748   0.00000  Uiso   1.00
H22    H     0.03748   0.24060   0.48228   0.00000  Uiso   1.00
H23    H     0.03104   0.24165   0.30260   0.00000  Uiso   1.00
C25    C     0.92646   0.70705   0.61759   0.00000  Uiso   1.00
C26    C     0.93511   0.83987   0.58529   0.00000  Uiso   1.00
H24    H     0.00055   0.86204   0.55739   0.00000  Uiso   1.00
H25    H     0.89267   0.86411   0.50099   0.00000  Uiso   1.00
H26    H     0.91733   0.89300   0.67551   0.00000  Uiso   1.00
H27    H     0.85994   0.69087   0.64369   0.00000  Uiso   1.00
H28    H     0.96494   0.68602   0.70759   0.00000  Uiso   1.00
