data_DB0-m3_o92_o151_f0_fsc_repeat
_audit_creation_date              2024-02-23
_audit_creation_method            'Materials Studio'
_symmetry_space_group_name_H-M    'P1'
_symmetry_Int_Tables_number       1
_symmetry_cell_setting            triclinic
loop_
_symmetry_equiv_pos_as_xyz
  x,y,z
_cell_length_a                    13.2480
_cell_length_b                    13.3489
_cell_length_c                    16.4226
_cell_angle_alpha                 94.6831
_cell_angle_beta                  90.0463
_cell_angle_gamma                 90.6099
loop_
_atom_site_label
_atom_site_type_symbol
_atom_site_fract_x
_atom_site_fract_y
_atom_site_fract_z
_atom_site_U_iso_or_equiv
_atom_site_adp_type
_atom_site_occupancy
O1     O     0.88083   0.07174   0.91445   0.00000  Uiso   1.00
O2     O     0.92296   0.90721   0.89911   0.00000  Uiso   1.00
C1     C     0.86920   0.98203   0.87590   0.00000  Uiso   1.00
O3     O     0.12722   0.93022   0.90845   0.00000  Uiso   1.00
O4     O     0.08582   0.09557   0.92239   0.00000  Uiso   1.00
C2     C     0.13998   0.02255   0.88773   0.00000  Uiso   1.00
O5     O     0.12177   0.92897   0.08478   0.00000  Uiso   1.00
O6     O     0.08090   0.09415   0.09933   0.00000  Uiso   1.00
C3     C     0.13410   0.01898   0.12285   0.00000  Uiso   1.00
O7     O     0.87596   0.07050   0.09072   0.00000  Uiso   1.00
O8     O     0.91706   0.90532   0.07656   0.00000  Uiso   1.00
C4     C     0.86301   0.97824   0.11134   0.00000  Uiso   1.00
Zn1    Zn    0.02406   0.89181   0.99069   0.00000  Uiso   1.00
Zn2    Zn    0.97880   0.10891   0.00832   0.00000  Uiso   1.00
C5     C     0.06519   0.29080   0.02112   0.00000  Uiso   1.00
N1     N     0.97544   0.24229   0.01436   0.00000  Uiso   1.00
C6     C     0.89080   0.29418   0.00344   0.00000  Uiso   1.00
C7     C     0.89508   0.39703   0.99789   0.00000  Uiso   1.00
C8     C     0.98736   0.44862   0.00279   0.00000  Uiso   1.00
C9     C     0.07255   0.39331   0.01570   0.00000  Uiso   1.00
C10    C     0.91709   0.61347   0.98080   0.00000  Uiso   1.00
C11    C     0.99797   0.55239   0.99504   0.00000  Uiso   1.00
C12    C     0.09277   0.59770   0.00203   0.00000  Uiso   1.00
C13    C     0.17635   0.54088   0.01559   0.00000  Uiso   1.00
C14    C     0.16632   0.43923   0.02192   0.00000  Uiso   1.00
C15    C     0.93152   0.71503   0.97627   0.00000  Uiso   1.00
N2     N     0.02391   0.75795   0.98451   0.00000  Uiso   1.00
C16    C     0.10453   0.70057   0.99688   0.00000  Uiso   1.00
H1     H     0.81902   0.25510   0.99688   0.00000  Uiso   1.00
H2     H     0.17825   0.73542   0.00507   0.00000  Uiso   1.00
H3     H     0.25033   0.57573   0.02112   0.00000  Uiso   1.00
H4     H     0.23279   0.39560   0.03201   0.00000  Uiso   1.00
H5     H     0.82427   0.43307   0.98862   0.00000  Uiso   1.00
H6     H     0.84066   0.58623   0.97407   0.00000  Uiso   1.00
H7     H     0.13336   0.24880   0.02836   0.00000  Uiso   1.00
H8     H     0.86583   0.76039   0.96854   0.00000  Uiso   1.00
C17    C     0.31826   0.03358   0.71328   0.00000  Uiso   1.00
C18    C     0.25648   0.07351   0.65852   0.00000  Uiso   1.00
C19    C     0.30755   0.07244   0.58551   0.00000  Uiso   1.00
N3     N     0.40144   0.03627   0.59489   0.00000  Uiso   1.00
C20    C     0.40868   0.01368   0.67374   0.00000  Uiso   1.00
C21    C     0.26597   0.09631   0.51522   0.00000  Uiso   1.00
C22    C     0.30944   0.07467   0.43315   0.00000  Uiso   1.00
C23    C     0.25398   0.06325   0.36165   0.00000  Uiso   1.00
C24    C     0.31902   0.03873   0.29916   0.00000  Uiso   1.00
C25    C     0.41475   0.03712   0.33413   0.00000  Uiso   1.00
N4     N     0.40776   0.06046   0.41574   0.00000  Uiso   1.00
C26    C     0.51054   0.01930   0.29005   0.00000  Uiso   1.00
C27    C     0.59433   0.98727   0.32526   0.00000  Uiso   1.00
C28    C     0.68471   0.96723   0.28572   0.00000  Uiso   1.00
C29    C     0.74640   0.92712   0.34045   0.00000  Uiso   1.00
C30    C     0.69532   0.92824   0.41345   0.00000  Uiso   1.00
N5     N     0.60151   0.96460   0.40409   0.00000  Uiso   1.00
C31    C     0.73685   0.90427   0.48371   0.00000  Uiso   1.00
C32    C     0.69348   0.92615   0.56578   0.00000  Uiso   1.00
C33    C     0.74902   0.93771   0.63722   0.00000  Uiso   1.00
C34    C     0.68408   0.96240   0.69974   0.00000  Uiso   1.00
C35    C     0.58829   0.96398   0.66484   0.00000  Uiso   1.00
N6     N     0.59519   0.94046   0.58324   0.00000  Uiso   1.00
C36    C     0.49254   0.98182   0.70896   0.00000  Uiso   1.00
H9     H     0.18920   0.12246   0.51693   0.00000  Uiso   1.00
H10    H     0.51099   0.02818   0.22513   0.00000  Uiso   1.00
H11    H     0.81356   0.87795   0.48199   0.00000  Uiso   1.00
H12    H     0.49214   0.97301   0.77389   0.00000  Uiso   1.00
H13    H     0.46689   0.07292   0.45710   0.00000  Uiso   1.00
H14    H     0.53602   0.92791   0.54193   0.00000  Uiso   1.00
C37    C     0.85051   0.92693   0.65020   0.00000  Uiso   1.00
C38    C     0.88585   0.94103   0.72939   0.00000  Uiso   1.00
C39    C     0.82206   0.96956   0.79416   0.00000  Uiso   1.00
C40    C     0.71883   0.98087   0.77970   0.00000  Uiso   1.00
C41    C     0.28467   0.01423   0.79009   0.00000  Uiso   1.00
C42    C     0.18668   0.04160   0.81033   0.00000  Uiso   1.00
C43    C     0.12691   0.08894   0.75581   0.00000  Uiso   1.00
C44    C     0.16034   0.10331   0.67845   0.00000  Uiso   1.00
C45    C     0.15250   0.07392   0.34859   0.00000  Uiso   1.00
C46    C     0.11727   0.05989   0.26935   0.00000  Uiso   1.00
C47    C     0.18117   0.03158   0.20461   0.00000  Uiso   1.00
C48    C     0.28439   0.02038   0.21915   0.00000  Uiso   1.00
C49    C     0.71835   0.98661   0.20894   0.00000  Uiso   1.00
C50    C     0.81629   0.95911   0.18869   0.00000  Uiso   1.00
C51    C     0.87598   0.91161   0.24318   0.00000  Uiso   1.00
C52    C     0.84250   0.89719   0.32051   0.00000  Uiso   1.00
H15    H     0.90208   0.90642   0.60092   0.00000  Uiso   1.00
H16    H     0.66775   0.00128   0.82944   0.00000  Uiso   1.00
H17    H     0.33144   0.97813   0.83272   0.00000  Uiso   1.00
H18    H     0.05073   0.11045   0.77227   0.00000  Uiso   1.00
H19    H     0.11083   0.13643   0.63611   0.00000  Uiso   1.00
H20    H     0.10084   0.09426   0.39785   0.00000  Uiso   1.00
H21    H     0.33556   0.00007   0.16945   0.00000  Uiso   1.00
H22    H     0.67166   0.02285   0.16634   0.00000  Uiso   1.00
H23    H     0.95214   0.89002   0.22670   0.00000  Uiso   1.00
H24    H     0.89194   0.86395   0.36283   0.00000  Uiso   1.00
H25    H     0.96528   0.93105   0.74087   0.00000  Uiso   1.00
H26    H     0.03783   0.06974   0.25781   0.00000  Uiso   1.00
