# Generated by REPEAT Assigner based on pymatgen
data_DB0-m3_o14_o19_f0_pcu.sym.14
_audit_creation_date              2022-05-24
_audit_creation_method            REPEAT_Assigner
_cell_length_a                    11.918238
_cell_length_b                    10.999318
_cell_length_c                    9.844261
_cell_angle_alpha                 90.000177
_cell_angle_beta                  90.003576
_cell_angle_gamma                 89.996593
_cell_volume                      1290.508619
_symmetry_space_group_name_H-M    P1
_symmetry_Int_Tables_number       1
loop_
    _symmetry_equiv_pos_site_id
    _symmetry_equiv_pos_as_xyz
    1  x,y,z
loop_
    _atom_site_type_symbol
    _atom_site_label
    _atom_site_fract_x
    _atom_site_fract_y
    _atom_site_fract_z
    _atom_type_partial_charge
    O   O1   0.525634  0.320548  0.628624  -0.640801
    O   O2   0.528717  0.315068  0.399284  -0.650863
    C   C1   0.529478  0.259031  0.516630  0.714806
    O   O3   0.354092  0.502201  0.626020  -0.705424
    O   O4   0.353312  0.493654  0.395282  -0.615970
    C   C2   0.301013  0.497384  0.510881  0.891024
    Zn  Zn1  0.521134  0.501540  0.664707  1.032487
    Zn  Zn2  0.520059  0.495212  0.355550  1.019589
    O   O5   0.520405  0.682021  0.624874  -0.637102
    O   O6   0.516883  0.677567  0.387538  -0.671105
    O   O7   0.688419  0.505546  0.628138  -0.683995
    O   O8   0.687489  0.503209  0.390641  -0.696567
    C   C3   0.514189  0.736548  0.505413  0.747037
    C   C4   0.739588  0.505222  0.509136  0.936355
    C   C5   0.180624  0.499449  0.510998  -0.303775
    C   C6   0.079539  0.501657  0.510383  0.083887
    C   C7   0.961088  0.504103  0.509385  0.073538
    C   C8   0.859990  0.505387  0.508841  -0.305284
    H   H1   0.578692  0.109925  0.312465  0.068739
    C   C9   0.491288  0.104007  0.767685  -0.150835
    H   H2   0.532770  0.186214  0.797437  0.133205
    C   C10  0.438551  0.041893  0.870676  -0.366547
    H   H3   0.433350  0.081281  0.971059  0.180062
    C   C11  0.389857  0.931784  0.844847  0.660326
    C   C12  0.406662  0.877233  0.721262  -0.573488
    H   H4   0.366050  0.790891  0.704346  0.224748
    C   C13  0.470614  0.933743  0.621168  0.256717
    C   C14  0.497714  0.055783  0.636752  0.060636
    C   C15  0.530111  0.123596  0.521773  -0.149156
    C   C16  0.551801  0.061413  0.402171  -0.029751
    H   H5   0.572560  0.890126  0.305084  0.117819
    C   C17  0.545929  0.936192  0.396532  -0.159777
    C   C18  0.506064  0.870807  0.505869  -0.130848
    H   H6   0.649187  0.612516  0.141654  0.159928
    C   C19  0.357418  0.344868  0.135000  0.168568
    C   C20  0.274070  0.292747  0.058744  0.076949
    C   C21  0.279388  0.297491  0.921958  0.487591
    C   C22  0.366038  0.357591  0.862212  -0.592870
    H   H7   0.371178  0.342475  0.756935  0.307683
    C   C23  0.441836  0.428653  0.934930  0.257523
    C   C24  0.439485  0.421923  0.076686  -0.109114
    N   N1   0.515718  0.487389  0.151605  0.059345
    C   C25  0.589823  0.558560  0.084649  -0.066599
    H   H8   0.652341  0.621945  0.893543  0.132747
    C   C26  0.591270  0.564742  0.943579  -0.031300
    N   N2   0.517951  0.499930  0.868757  -0.033589
    O   O9   0.204399  0.233884  0.844726  -0.455987
    H   H9   0.143679  0.292789  0.825234  0.310399
    O   O10  0.330453  0.873370  0.943956  -0.564343
    H   H10  0.387197  0.824661  0.993289  0.302341
    O   O11  0.360321  0.307108  0.265406  -0.381994
    H   H11  0.375103  0.218629  0.259127  0.362915
    O   O12  0.192915  0.224048  0.119832  -0.481971
    H   H12  0.130596  0.281627  0.136704  0.362092
