# Generated by REPEAT Assigner based on pymatgen
data_DB0-m3_o146_o23_f0_fsc.sym.5
_audit_creation_date              2022-05-24
_audit_creation_method            REPEAT_Assigner
_cell_length_a                    15.296356
_cell_length_b                    11.787028
_cell_length_c                    14.286221
_cell_angle_alpha                 90.143177
_cell_angle_beta                  89.997997
_cell_angle_gamma                 90.000000
_cell_volume                      2575.777143
_symmetry_space_group_name_H-M    P1
_symmetry_Int_Tables_number       1
loop_
    _symmetry_equiv_pos_site_id
    _symmetry_equiv_pos_as_xyz
    1  x,y,z
loop_
    _atom_site_type_symbol
    _atom_site_label
    _atom_site_fract_x
    _atom_site_fract_y
    _atom_site_fract_z
    _atom_type_partial_charge
    C   C1   0.314068  0.734875  0.005200  -0.095405
    C   C2   0.088391  0.942389  0.009176  -0.016904
    C   C3   0.190863  0.812154  0.086819  -0.147863
    H   H1   0.150552  0.815707  0.148917  0.093249
    C   C4   0.292212  0.798467  0.927491  -0.096818
    H   H2   0.330420  0.792881  0.864013  0.114783
    C   C5   0.263680  0.743360  0.085335  -0.117006
    H   H3   0.278606  0.693427  0.146612  0.115219
    C   C6   0.169286  0.875948  0.009471  0.232046
    C   C7   0.220508  0.869468  0.929988  -0.192605
    H   H4   0.202868  0.917061  0.868222  0.093070
    C   C8   0.314628  0.265306  0.992005  -0.108020
    C   C9   0.088593  0.058118  0.992523  -0.000167
    C   C10  0.187774  0.192363  0.914343  -0.163743
    H   H5   0.144646  0.192370  0.854394  0.082944
    C   C11  0.296301  0.197569  0.068343  -0.085423
    H   H6   0.337406  0.199851  0.129848  0.108718
    C   C12  0.260375  0.261621  0.914726  -0.070857
    H   H7   0.272186  0.315857  0.855231  0.111971
    C   C13  0.169800  0.124067  0.990198  0.205281
    C   C14  0.224513  0.126702  0.067131  -0.177672
    H   H8   0.209608  0.076299  0.128188  0.091165
    C   C15  0.705059  0.735869  0.006970  -0.101439
    C   C16  0.931272  0.942868  0.010110  -0.009129
    C   C17  0.828853  0.812472  0.088087  -0.149279
    H   H9   0.869533  0.815512  0.149922  0.091738
    C   C18  0.726616  0.799926  0.929404  -0.076798
    H   H10  0.688104  0.794756  0.866117  0.102751
    C   C19  0.755871  0.743850  0.086826  -0.111523
    H   H11  0.741190  0.693498  0.147942  0.112467
    C   C20  0.850153  0.876689  0.010834  0.236890
    C   C21  0.798419  0.870795  0.931708  -0.211222
    H   H12  0.815769  0.918673  0.869999  0.106103
    C   C22  0.009773  0.886011  0.018820  -0.193095
    C   C23  0.706030  0.266830  0.993979  -0.119195
    C   C24  0.931467  0.058696  0.993557  -0.022122
    C   C25  0.834056  0.196324  0.917209  -0.187772
    H   H13  0.878098  0.198241  0.858052  0.103993
    C   C26  0.723011  0.196806  0.069213  -0.102423
    H   H14  0.680769  0.197203  0.129859  0.109332
    C   C27  0.761768  0.265979  0.917955  -0.040457
    H   H15  0.751321  0.322869  0.859890  0.101990
    C   C28  0.850578  0.125315  0.991711  0.203764
    C   C29  0.794779  0.125899  0.067829  -0.160570
    H   H16  0.808641  0.073661  0.128102  0.085810
    C   C30  0.010136  0.115034  0.984230  -0.174931
    H   H17  0.009661  0.795059  0.028385  0.088641
    H   H18  0.010398  0.205999  0.974799  0.087347
    O   O1   0.603776  0.612507  0.082569  -0.680143
    O   O2   0.601225  0.624447  0.921375  -0.656181
    C   C31  0.632099  0.655220  0.003442  0.756019
    O   O3   0.604806  0.388900  0.917015  -0.692439
    O   O4   0.601034  0.376918  0.078085  -0.657020
    C   C32  0.632680  0.346538  0.996440  0.761542
    O   O5   0.415985  0.388269  0.915658  -0.653049
    O   O6   0.418540  0.376454  0.076769  -0.642182
    C   C33  0.387640  0.345715  0.994859  0.719963
    O   O7   0.415039  0.611987  0.081240  -0.684435
    O   O8   0.418653  0.623907  0.920066  -0.684552
    C   C34  0.387131  0.654486  0.001915  0.771189
    Zn  Zn1  0.510315  0.504832  0.894782  1.073379
    Zn  Zn2  0.509447  0.495979  0.103378  1.078659
    C   C35  0.490671  0.609562  0.553318  -0.001659
    C   C36  0.440227  0.412698  0.550516  -0.094309
    C   C37  0.436872  0.418805  0.444218  -0.273403
    H   H19  0.434362  0.649424  0.418834  0.068047
    H   H20  0.423779  0.633427  0.575898  0.018487
    H   H21  0.378166  0.451857  0.574012  0.044375
    H   H22  0.373330  0.456507  0.423564  0.073860
    H   H23  0.441104  0.334922  0.409750  0.072927
    N   N1   0.508884  0.494960  0.226216  -0.087448
    C   C38  0.513382  0.490867  0.588210  0.533305
    C   C39  0.495913  0.613635  0.447252  -0.254727
    C   C40  0.509757  0.494737  0.409605  0.724475
    C   C41  0.597438  0.450836  0.442932  -0.310125
    C   C42  0.605318  0.465345  0.548430  -0.075046
    C   C43  0.509061  0.495410  0.307204  -0.159006
    C   C44  0.512074  0.498906  0.690918  -0.210163
    N   N2   0.510914  0.505528  0.771872  -0.062085
    H   H24  0.643837  0.543875  0.559616  0.043890
    H   H25  0.649846  0.500292  0.408203  0.098044
    H   H26  0.536279  0.673011  0.583505  0.039785
    H   H27  0.551296  0.668531  0.425899  0.056147
    H   H28  0.604763  0.360760  0.422449  0.075112
    C   C45  0.437225  0.292689  0.587238  0.207315
    C   C46  0.379427  0.267983  0.659022  -0.220585
    C   C47  0.370555  0.158466  0.691488  -0.087961
    C   C48  0.418820  0.071979  0.652506  -0.105512
    C   C49  0.475799  0.094964  0.580560  -0.120929
    C   C50  0.484700  0.204213  0.547605  -0.197260
    H   H29  0.340447  0.334217  0.690686  0.123092
    H   H30  0.325240  0.140195  0.747429  0.116665
    H   H31  0.411728  0.986226  0.678061  0.112716
    H   H32  0.513608  0.027095  0.549579  0.105808
    H   H33  0.530167  0.218478  0.491349  0.119439
    C   C51  0.662729  0.372103  0.588345  0.060717
    C   C52  0.746212  0.362856  0.551061  -0.167429
    C   C53  0.803187  0.279783  0.580617  -0.137947
    C   C54  0.778060  0.204354  0.648605  -0.082892
    C   C55  0.696577  0.214044  0.688373  -0.079643
    C   C56  0.639914  0.298374  0.660218  -0.085427
    H   H34  0.768106  0.421256  0.497812  0.120353
    H   H35  0.867648  0.273715  0.549993  0.112117
    H   H36  0.822442  0.138657  0.671470  0.093844
    H   H37  0.676990  0.155692  0.742721  0.092258
    H   H38  0.577966  0.302079  0.695275  0.143192
