# Generated by REPEAT Assigner based on pymatgen
data_DB0-m3_o14_o16_f0_pcu.sym.54
_audit_creation_date              2022-05-24
_audit_creation_method            REPEAT_Assigner
_cell_length_a                    9.810583
_cell_length_b                    10.984695
_cell_length_c                    13.651678
_cell_angle_alpha                 89.989745
_cell_angle_beta                  74.555611
_cell_angle_gamma                 90.000209
_cell_volume                      1418.064677
_symmetry_space_group_name_H-M    P1
_symmetry_Int_Tables_number       1
loop_
    _symmetry_equiv_pos_site_id
    _symmetry_equiv_pos_as_xyz
    1  x,y,z
loop_
    _atom_site_type_symbol
    _atom_site_label
    _atom_site_fract_x
    _atom_site_fract_y
    _atom_site_fract_z
    _atom_type_partial_charge
    O   O1   0.393656  0.691284  0.490342  -0.592442
    O   O2   0.627478  0.693687  0.482763  -0.708802
    C   C1   0.510435  0.750908  0.481995  0.776968
    O   O3   0.336125  0.518259  0.651110  -0.657941
    O   O4   0.569440  0.524551  0.646736  -0.639338
    C   C2   0.436719  0.522218  0.697406  0.726277
    Zn  Zn1  0.352095  0.510704  0.500044  0.978636
    Zn  Zn2  0.663003  0.513016  0.495735  1.047064
    O   O5   0.387547  0.329929  0.506972  -0.542465
    O   O6   0.623944  0.331238  0.506047  -0.644398
    O   O7   0.443324  0.499695  0.348601  -0.645565
    O   O8   0.681333  0.498418  0.344765  -0.647368
    C   C3   0.503659  0.273109  0.511476  0.704685
    C   C4   0.578315  0.495258  0.299425  0.707743
    C   C5   0.768595  0.395934  0.039051  -0.256768
    H   H1   0.813963  0.394895  0.182335  0.093616
    H   H2   0.863694  0.344802  0.007614  0.157026
    C   C6   0.614993  0.478207  0.188926  -0.094531
    C   C7   0.272970  0.588424  0.855516  -0.018610
    C   C8   0.238388  0.613435  0.957323  -0.114199
    C   C9   0.328709  0.583100  0.014889  -0.151184
    C   C10  0.454738  0.520972  0.972367  -0.003093
    C   C11  0.486659  0.491566  0.869327  0.256052
    C   C12  0.549079  0.487235  0.029919  0.013481
    C   C13  0.675214  0.428134  0.982539  0.211791
    C   C14  0.702102  0.395137  0.880889  -0.155501
    C   C15  0.604495  0.420468  0.828162  -0.253946
    C   C16  0.520175  0.509639  0.134386  -0.127908
    C   C17  0.740236  0.423344  0.140457  -0.044940
    C   C18  0.398469  0.530990  0.809513  -0.204878
    H   H3   0.424060  0.551305  0.177258  0.106494
    H   H4   0.202847  0.619072  0.811599  0.085863
    H   H5   0.294328  0.610878  0.092933  0.126640
    H   H6   0.141095  0.661022  0.992120  0.105571
    H   H7   0.625290  0.382679  0.753010  0.139127
    H   H8   0.727698  0.902275  0.471849  0.101737
    C   C19  0.260188  0.903495  0.471985  -0.206544
    H   H9   0.263057  0.823105  0.426453  0.106147
    C   C20  0.131785  0.961304  0.503927  -0.103240
    H   H10  0.038571  0.921126  0.489277  0.094851
    C   C21  0.121362  0.067031  0.558353  -0.100180
    H   H11  0.019341  0.108922  0.589690  0.115747
    C   C22  0.242130  0.122958  0.568266  -0.213070
    H   H12  0.228734  0.204538  0.613706  0.108593
    C   C23  0.374777  0.072448  0.525014  0.170138
    C   C24  0.380925  0.952405  0.492373  0.198838
    C   C25  0.506787  0.886294  0.480577  -0.248796
    C   C26  0.628269  0.949478  0.482103  -0.053181
    H   H13  0.725372  0.121494  0.485571  0.092007
    C   C27  0.626440  0.074479  0.492818  -0.082155
    C   C28  0.500267  0.137949  0.514729  -0.198858
    H   H14  0.922831  0.373385  0.392698  0.170406
    C   C29  0.823858  0.680929  0.618279  -0.163336
    H   H15  0.715672  0.689247  0.620112  0.173631
    C   C30  0.869401  0.760507  0.680119  -0.107587
    H   H16  0.796563  0.824993  0.726172  0.091724
    C   C31  0.007002  0.758179  0.682924  0.064082
    H   H17  0.044177  0.820792  0.731199  0.064728
    C   C32  0.098253  0.676393  0.623725  -0.163458
    H   H18  0.203637  0.680666  0.629686  0.148544
    C   C33  0.054519  0.594075  0.560812  0.197492
    C   C34  0.914102  0.596313  0.557900  0.192155
    N   N1   0.866909  0.517467  0.497373  -0.119409
    C   C35  0.958752  0.437260  0.440661  -0.083687
    H   H19  0.171071  0.370948  0.396547  0.107074
    C   C36  0.099049  0.435419  0.443307  0.059240
    N   N2   0.146518  0.513144  0.503206  -0.135556
    C   C37  0.831762  0.332664  0.823839  0.428295
    H   H20  0.825747  0.268295  0.764934  -0.015067
    O   O9   0.947896  0.365343  0.830206  -0.424462
