# Generated by REPEAT Assigner based on pymatgen
data_DB0-m2_o2_o23_f0_nbo.sym.148
_audit_creation_date              2022-05-24
_audit_creation_method            REPEAT_Assigner
_cell_length_a                    43.472483
_cell_length_b                    30.120129
_cell_length_c                    29.867599
_cell_angle_alpha                 90.000000
_cell_angle_beta                  132.934923
_cell_angle_gamma                 90.000000
_cell_volume                      28632.450179
_symmetry_space_group_name_H-M    P1
_symmetry_Int_Tables_number       1
loop_
    _symmetry_equiv_pos_site_id
    _symmetry_equiv_pos_as_xyz
    1  x,y,z
loop_
    _atom_site_type_symbol
    _atom_site_label
    _atom_site_fract_x
    _atom_site_fract_y
    _atom_site_fract_z
    _atom_type_partial_charge
    O   O1    0.488528  0.966051  0.552458  -0.675743
    O   O2    0.511472  0.966051  0.447542  -0.675747
    O   O3    0.988528  0.466051  0.552458  -0.675786
    O   O4    0.011472  0.466051  0.447542  -0.675760
    O   O5    0.511179  0.039476  0.575038  -0.578406
    O   O6    0.488821  0.039476  0.424962  -0.578417
    O   O7    0.011179  0.539476  0.575038  -0.578420
    O   O8    0.988821  0.539476  0.424962  -0.578415
    C   C1    0.499931  0.002679  0.584617  0.707109
    C   C2    0.500069  0.002679  0.415382  0.707112
    C   C3    0.999931  0.502679  0.584617  0.707141
    C   C4    0.000069  0.502679  0.415382  0.707117
    O   O9    0.440009  0.966072  0.428284  -0.610241
    O   O10   0.559991  0.966072  0.571716  -0.610241
    O   O11   0.940009  0.466072  0.428284  -0.610259
    O   O12   0.059991  0.466072  0.571716  -0.610249
    O   O13   0.439959  0.039457  0.452428  -0.632266
    O   O14   0.560041  0.039457  0.547572  -0.632268
    O   O15   0.939959  0.539457  0.452428  -0.632266
    O   O16   0.060041  0.539457  0.547572  -0.632249
    C   C5    0.420202  0.002762  0.420705  0.815801
    C   C6    0.579798  0.002762  0.579295  0.815780
    C   C7    0.920202  0.502762  0.420705  0.815737
    C   C8    0.079798  0.502762  0.579295  0.815723
    Cu  Cu1   0.500000  0.959339  0.500000  1.050240
    Cu  Cu2   0.000000  0.459339  0.500000  1.050174
    Cu  Cu3   0.500000  0.046186  0.500000  0.980840
    Cu  Cu4   0.000000  0.546186  0.500000  0.980884
    C   C9    0.273894  0.966307  0.305226  -0.124008
    C   C10   0.726106  0.966307  0.694774  -0.124050
    C   C11   0.773894  0.466307  0.305226  -0.124046
    C   C12   0.226106  0.466307  0.694774  -0.124054
    C   C13   0.274270  0.047439  0.291589  -0.179564
    C   C14   0.725730  0.047439  0.708411  -0.179298
    C   C15   0.774270  0.547439  0.291589  -0.179275
    C   C16   0.225730  0.547439  0.708411  -0.179288
    C   C17   0.227051  0.044329  0.251351  -0.252252
    C   C18   0.772949  0.044329  0.748649  -0.252103
    C   C19   0.727051  0.544329  0.251351  -0.252130
    C   C20   0.272949  0.544329  0.748649  -0.252068
    H   H1    0.211862  0.962224  0.272929  0.008992
    H   H2    0.788138  0.962224  0.727071  0.009021
    H   H3    0.711862  0.462224  0.272929  0.009029
    H   H4    0.288138  0.462224  0.727071  0.009023
    H   H5    0.282184  0.973888  0.348689  0.005931
    H   H6    0.717816  0.973888  0.651311  0.005930
    H   H7    0.782184  0.473888  0.348689  0.005927
    H   H8    0.217816  0.473888  0.651311  0.005930
    H   H9    0.282259  0.073434  0.274676  0.019863
    H   H10   0.717741  0.073434  0.725324  0.019757
    H   H11   0.782259  0.573434  0.274676  0.019753
    H   H12   0.217741  0.573434  0.725324  0.019755
    H   H13   0.289278  0.055956  0.338849  0.042359
    H   H14   0.710722  0.055956  0.661151  0.042264
    H   H15   0.789278  0.555956  0.338849  0.042255
    H   H16   0.210722  0.555956  0.661151  0.042258
    H   H17   0.220872  0.040730  0.281583  0.044983
    H   H18   0.779128  0.040730  0.718417  0.044890
    H   H19   0.720872  0.540730  0.281583  0.044894
    H   H20   0.279128  0.540730  0.718417  0.044883
    C   C21   0.126164  0.003376  0.127354  -0.141271
    C   C22   0.873836  0.003376  0.872645  -0.141145
    C   C23   0.626164  0.503376  0.127354  -0.141209
    C   C24   0.373836  0.503376  0.872645  -0.141392
    C   C25   0.290500  0.002909  0.291427  0.822660
    C   C26   0.709500  0.002909  0.708573  0.822765
    C   C27   0.790500  0.502909  0.291427  0.822777
    C   C28   0.209500  0.502909  0.708573  0.822804
    C   C29   0.226396  0.963018  0.253605  -0.131331
    C   C30   0.773604  0.963018  0.746395  -0.131461
    C   C31   0.726396  0.463018  0.253605  -0.131500
    C   C32   0.273604  0.463018  0.746395  -0.131462
    C   C33   0.210469  0.002783  0.211734  0.666264
    C   C34   0.789531  0.002783  0.788266  0.666406
    C   C35   0.710469  0.502783  0.211734  0.666448
    C   C36   0.289531  0.502783  0.788266  0.666298
    C   C37   0.227118  0.998795  0.180625  -0.069193
    C   C38   0.772881  0.998795  0.819375  -0.069011
    C   C39   0.727118  0.498795  0.180625  -0.069099
    C   C40   0.272881  0.498795  0.819375  -0.069056
    C   C41   0.274673  0.995173  0.228524  -0.223570
    C   C42   0.725327  0.995173  0.771476  -0.223410
    C   C43   0.774673  0.495173  0.228524  -0.223365
    C   C44   0.225327  0.495173  0.771476  -0.223399
    C   C45   0.164193  0.003019  0.165537  -0.388257
    C   C46   0.835807  0.003019  0.834462  -0.388431
    C   C47   0.664193  0.503019  0.165537  -0.388390
    C   C48   0.335807  0.503019  0.834462  -0.388229
    C   C49   0.336775  0.002820  0.337651  -0.428772
    C   C50   0.663225  0.002820  0.662348  -0.428926
    C   C51   0.836775  0.502820  0.337651  -0.428957
    C   C52   0.163225  0.502820  0.662348  -0.428964
    C   C53   0.374812  0.002781  0.375549  -0.142561
    C   C54   0.625188  0.002781  0.624451  -0.142481
    C   C55   0.874812  0.502781  0.375549  -0.142442
    C   C56   0.125188  0.502781  0.624451  -0.142437
    H   H21   0.284190  0.961588  0.226625  0.017023
    H   H22   0.715810  0.961588  0.773375  0.016948
    H   H23   0.784190  0.461588  0.226625  0.016940
    H   H24   0.215810  0.461588  0.773375  0.016948
    H   H25   0.288338  0.020261  0.219134  0.058169
    H   H26   0.711662  0.020261  0.780866  0.058077
    H   H27   0.788338  0.520261  0.219134  0.058070
    H   H28   0.211662  0.520261  0.780866  0.058072
    H   H29   0.214002  0.968465  0.151901  0.021940
    H   H30   0.785998  0.968465  0.848099  0.021857
    H   H31   0.714002  0.468465  0.151901  0.021879
    H   H32   0.285998  0.468465  0.848099  0.021872
    H   H33   0.288285  0.934138  0.309975  0.028552
    H   H34   0.711715  0.934138  0.690025  0.028563
    H   H35   0.788285  0.434138  0.309975  0.028565
    H   H36   0.211715  0.434138  0.690025  0.028564
    H   H37   0.218090  0.932018  0.227409  0.037563
    H   H38   0.781910  0.932018  0.772590  0.037576
    H   H39   0.718090  0.432018  0.227409  0.037587
    H   H40   0.281910  0.432018  0.772590  0.037585
    H   H41   0.217521  0.027484  0.150405  0.040528
    H   H42   0.782479  0.027484  0.849595  0.040445
    H   H43   0.717521  0.527484  0.150405  0.040461
    H   H44   0.282479  0.527484  0.849595  0.040460
    C   C57   0.499385  0.040073  0.702412  -0.156073
    C   C58   0.500615  0.040073  0.297588  -0.156086
    C   C59   0.999385  0.540073  0.702412  -0.156048
    C   C60   0.000615  0.540073  0.297588  -0.156086
    H   H45   0.496492  0.070804  0.717966  0.109836
    H   H46   0.503508  0.070804  0.282034  0.109839
    H   H47   0.996492  0.570804  0.717966  0.109830
    H   H48   0.003508  0.570804  0.282034  0.109836
    C   C61   0.499067  0.041152  0.656153  -0.040275
    C   C62   0.500933  0.041152  0.343847  -0.040260
    C   C63   0.999067  0.541152  0.656153  -0.040275
    C   C64   0.000933  0.541152  0.343847  -0.040248
    H   H49   0.496438  0.072725  0.636595  0.107905
    H   H50   0.503562  0.072725  0.363405  0.107903
    H   H51   0.996438  0.572725  0.636595  0.107908
    H   H52   0.003562  0.572725  0.363405  0.107904
    C   C65   0.500641  0.002045  0.633930  -0.078272
    C   C66   0.499359  0.002045  0.366070  -0.078277
    C   C67   0.000641  0.502045  0.633930  -0.078281
    C   C68   0.999359  0.502045  0.366070  -0.078293
    C   C69   0.503790  0.962040  0.659154  -0.082543
    C   C70   0.496210  0.962040  0.340846  -0.082538
    C   C71   0.003790  0.462040  0.659154  -0.082605
    C   C72   0.996210  0.462040  0.340846  -0.082535
    H   H53   0.507354  0.931614  0.643927  0.151594
    H   H54   0.492646  0.931614  0.356073  0.151589
    H   H55   0.007354  0.431614  0.643927  0.151629
    H   H56   0.992646  0.431614  0.356073  0.151589
    C   C73   0.505398  0.960718  0.706790  -0.164756
    C   C74   0.494602  0.960718  0.293210  -0.164760
    C   C75   0.005398  0.460718  0.706790  -0.164641
    C   C76   0.994602  0.460718  0.293210  -0.164756
    C   C77   0.502195  0.000105  0.727573  0.124180
    C   C78   0.497805  0.000105  0.272427  0.124168
    C   C79   0.002195  0.500105  0.727573  0.124124
    C   C80   0.997805  0.500105  0.272427  0.124173
    C   C81   0.472352  0.973228  0.768944  -0.180479
    C   C82   0.527648  0.973228  0.231055  -0.180519
    C   C83   0.972352  0.473228  0.768944  -0.180469
    C   C84   0.027648  0.473228  0.231055  -0.180499
    H   H57   0.451769  0.951859  0.729506  0.080926
    H   H58   0.548231  0.951859  0.270494  0.080925
    H   H59   0.951769  0.451859  0.729506  0.080923
    H   H60   0.048231  0.451859  0.270494  0.080917
    C   C85   0.472487  0.970856  0.815111  0.012260
    C   C86   0.527513  0.970856  0.184889  0.012313
    C   C87   0.972487  0.470856  0.815111  0.012271
    C   C88   0.027513  0.470856  0.184889  0.012304
    C   C89   0.498659  0.999235  0.865151  -0.114556
    C   C90   0.501341  0.999235  0.134849  -0.114638
    C   C91   0.998659  0.499235  0.865151  -0.114573
    C   C92   0.001341  0.499235  0.134849  -0.114611
    C   C93   0.525394  0.027589  0.869053  -0.050561
    C   C94   0.474605  0.027589  0.130947  -0.050501
    C   C95   0.025394  0.527589  0.869053  -0.050589
    C   C96   0.974605  0.527589  0.130947  -0.050532
    H   H61   0.545760  0.050060  0.907239  0.121976
    H   H62   0.454240  0.050060  0.092760  0.121964
    H   H63   0.045760  0.550060  0.907239  0.121981
    H   H64   0.954240  0.550060  0.092760  0.121967
    C   C97   0.526449  0.027945  0.824199  -0.126159
    C   C98   0.473551  0.027945  0.175801  -0.126195
    C   C99   0.026449  0.527945  0.824199  -0.126140
    C   C100  0.973551  0.527945  0.175801  -0.126168
    H   H65   0.548324  0.049529  0.828789  0.113418
    H   H66   0.451676  0.049529  0.171211  0.113426
    H   H67   0.048324  0.549529  0.828789  0.113420
    H   H68   0.951676  0.549529  0.171211  0.113420
    C   C101  0.500283  0.000392  0.774434  0.072964
    C   C102  0.499717  0.000392  0.225565  0.073009
    C   C103  0.000283  0.500392  0.774434  0.072961
    C   C104  0.999717  0.500392  0.225565  0.072987
    O   O17   0.997739  0.939134  0.036348  -0.555797
    O   O18   0.002261  0.939134  0.963651  -0.555804
    O   O19   0.497739  0.439134  0.036348  -0.555786
    O   O20   0.502261  0.439134  0.963651  -0.555815
    C   C105  0.000000  0.918336  0.000000  0.687718
    C   C106  0.500000  0.418336  0.000000  0.687707
    O   O21   0.060362  0.002259  0.099380  -0.635792
    O   O22   0.939638  0.002259  0.900620  -0.635811
    O   O23   0.560362  0.502259  0.099380  -0.635800
    O   O24   0.439638  0.502259  0.900620  -0.635811
    O   O25   0.061846  0.001790  0.023745  -0.667666
    O   O26   0.938154  0.001790  0.976255  -0.667643
    O   O27   0.561846  0.501790  0.023745  -0.667646
    O   O28   0.438154  0.501790  0.976255  -0.667687
    C   C107  0.080804  0.003993  0.081493  0.920843
    C   C108  0.919196  0.003993  0.918506  0.920777
    C   C109  0.580804  0.503993  0.081493  0.920864
    C   C110  0.419196  0.503993  0.918506  0.921027
    Cu  Cu5   0.999159  0.003687  0.043762  1.019402
    Cu  Cu6   0.000841  0.003687  0.956237  1.019299
    Cu  Cu7   0.499159  0.503687  0.043762  1.019344
    Cu  Cu8   0.500841  0.503687  0.956237  1.019355
    O   O29   0.997315  0.068208  0.035780  -0.628688
    O   O30   0.002685  0.068208  0.964220  -0.628712
    O   O31   0.497315  0.568208  0.035780  -0.628601
    O   O32   0.502685  0.568208  0.964220  -0.628672
    C   C111  0.000000  0.089027  0.000000  0.606953
    C   C112  0.500000  0.589027  0.000000  0.606633
    O   O33   0.465053  0.066558  0.953982  -0.609791
    O   O34   0.534947  0.066558  0.046018  -0.609784
    O   O35   0.965053  0.566558  0.953982  -0.609836
    O   O36   0.034947  0.566558  0.046018  -0.609796
    C   C113  0.500000  0.087405  0.000000  0.686931
    C   C114  0.000000  0.587405  0.000000  0.686967
    O   O37   0.463956  0.990793  0.901455  -0.602238
    O   O38   0.536044  0.990793  0.098545  -0.602245
    O   O39   0.963956  0.490793  0.901455  -0.602289
    O   O40   0.036044  0.490793  0.098545  -0.602259
    O   O41   0.533179  0.015260  0.968142  -0.579177
    O   O42   0.466821  0.015260  0.031858  -0.579178
    O   O43   0.033179  0.515260  0.968142  -0.579198
    O   O44   0.966821  0.515260  0.031858  -0.579214
    C   C115  0.498634  0.001226  0.913985  0.661176
    C   C116  0.501366  0.001226  0.086015  0.661206
    C   C117  0.998634  0.501226  0.913985  0.661240
    C   C118  0.001366  0.501226  0.086015  0.661217
    Cu  Cu9   0.458983  0.003224  0.960451  0.970482
    Cu  Cu10  0.541017  0.003224  0.039549  0.970509
    Cu  Cu11  0.958983  0.503224  0.960451  0.970378
    Cu  Cu12  0.041017  0.503224  0.039549  0.970503
    O   O45   0.465710  0.939905  0.979305  -0.672080
    O   O46   0.534290  0.939905  0.020694  -0.672093
    O   O47   0.965710  0.439905  0.979305  -0.672129
    O   O48   0.034290  0.439905  0.020694  -0.672098
    C   C119  0.500000  0.919049  0.000000  1.010181
    C   C120  0.000000  0.419049  0.000000  1.010200
    C   C121  0.973055  0.800290  0.945688  -0.194422
    C   C122  0.026945  0.800290  0.054312  -0.194445
    C   C123  0.473055  0.300290  0.945688  -0.194421
    C   C124  0.526945  0.300290  0.054312  -0.194430
    H   H69   0.951914  0.782447  0.902954  0.142312
    H   H70   0.048086  0.782446  0.097046  0.142316
    H   H71   0.451914  0.282447  0.902954  0.142309
    H   H72   0.548086  0.282447  0.097046  0.142318
    C   C125  0.972003  0.846126  0.945202  0.023691
    C   C126  0.027997  0.846126  0.054798  0.023679
    C   C127  0.472003  0.346126  0.945202  0.023613
    C   C128  0.527997  0.346126  0.054798  0.023628
    C   C129  0.000000  0.869545  0.000000  -0.214303
    C   C130  0.500000  0.369545  0.000000  -0.214226
    C   C131  0.000000  0.777119  0.000000  0.103262
    C   C132  0.500000  0.277119  0.000000  0.103280
    C   C133  0.537264  0.204956  0.040979  -0.181164
    C   C134  0.462736  0.204956  0.959021  -0.181166
    C   C135  0.037264  0.704956  0.040979  -0.181169
    C   C136  0.962736  0.704956  0.959021  -0.181187
    H   H73   0.566993  0.222139  0.072495  0.124677
    H   H74   0.433007  0.222139  0.927505  0.124680
    H   H75   0.066993  0.722139  0.072495  0.124684
    H   H76   0.933007  0.722139  0.927505  0.124686
    C   C137  0.537241  0.159198  0.041225  -0.098301
    C   C138  0.462759  0.159198  0.958775  -0.098292
    C   C139  0.037241  0.659198  0.041225  -0.098286
    C   C140  0.962759  0.659198  0.958775  -0.098274
    H   H77   0.566858  0.141912  0.073505  0.126928
    H   H78   0.433142  0.141912  0.926495  0.126928
    H   H79   0.066858  0.641912  0.073505  0.126924
    H   H80   0.933142  0.641912  0.926495  0.126922
    C   C141  0.500000  0.136051  0.000000  -0.023435
    C   C142  0.000000  0.636051  0.000000  -0.023459
    C   C143  0.500000  0.228254  0.000000  0.130434
    C   C144  0.000000  0.728254  0.000000  0.130454
    C   C145  0.009569  0.206574  0.970886  -0.144344
    C   C146  0.990431  0.206574  0.029114  -0.144352
    C   C147  0.509569  0.706574  0.970886  -0.144315
    C   C148  0.490431  0.706574  0.029114  -0.144308
    H   H81   0.016480  0.224040  0.947004  0.124477
    H   H82   0.983520  0.224040  0.052996  0.124477
    H   H83   0.516480  0.724040  0.947004  0.124474
    H   H84   0.483520  0.724040  0.052996  0.124472
    C   C149  0.009241  0.160816  0.970443  -0.162093
    C   C150  0.990759  0.160816  0.029557  -0.162076
    C   C151  0.509241  0.660816  0.970443  -0.162229
    C   C152  0.490759  0.660816  0.029557  -0.162216
    H   H85   0.016618  0.143532  0.947051  0.142351
    H   H86   0.983382  0.143532  0.052948  0.142350
    H   H87   0.516618  0.643532  0.947051  0.142394
    H   H88   0.483382  0.643532  0.052948  0.142374
    C   C153  0.000000  0.137675  0.000000  0.112133
    C   C154  0.500000  0.637675  0.000000  0.112475
    C   C155  0.000000  0.229718  0.000000  0.086014
    C   C156  0.500000  0.729718  0.000000  0.085947
    C   C157  0.468221  0.801549  0.989643  -0.117166
    C   C158  0.531779  0.801549  0.010357  -0.117163
    C   C159  0.968221  0.301549  0.989643  -0.117140
    C   C160  0.031779  0.301549  0.010357  -0.117145
    H   H89   0.442716  0.784085  0.980486  0.103320
    H   H90   0.557284  0.784085  0.019514  0.103318
    H   H91   0.942716  0.284085  0.980486  0.103311
    H   H92   0.057284  0.284085  0.019514  0.103311
    C   C161  0.468016  0.847304  0.989131  -0.104471
    C   C162  0.531984  0.847304  0.010869  -0.104485
    C   C163  0.968016  0.347304  0.989131  -0.104483
    C   C164  0.031984  0.347304  0.010869  -0.104475
    H   H93   0.442695  0.864603  0.980643  0.117281
    H   H94   0.557305  0.864603  0.019357  0.117285
    H   H95   0.942695  0.364603  0.980643  0.117285
    H   H96   0.057305  0.364603  0.019357  0.117284
    C   C165  0.500000  0.870428  0.000000  -0.065462
    C   C166  0.000000  0.370428  0.000000  -0.065468
    C   C167  0.500000  0.778407  0.000000  0.044583
    C   C168  0.000000  0.278406  0.000000  0.044533
    C   C169  0.514242  0.918006  0.737640  0.752828
    O   O49   0.540264  0.916067  0.793354  -0.514574
    N   N1    0.493462  0.878351  0.702982  -0.767091
    H   H97   0.480490  0.863809  0.718681  0.347068
    H   H98   0.468468  0.887089  0.657377  0.279405
    C   C170  0.485758  0.918006  0.262359  0.752847
    O   O50   0.459736  0.916067  0.206646  -0.514570
    N   N2    0.506538  0.878351  0.297017  -0.767098
    H   H99   0.519510  0.863809  0.281319  0.347071
    H   H100  0.531532  0.887089  0.342623  0.279399
    C   C171  0.014242  0.418006  0.737640  0.752741
    O   O51   0.040264  0.416067  0.793354  -0.514542
    N   N3    0.993462  0.378351  0.702982  -0.767124
    H   H101  0.980490  0.363809  0.718681  0.347094
    H   H102  0.968468  0.387089  0.657377  0.279414
    C   C172  0.985758  0.418006  0.262359  0.752859
    O   O52   0.959736  0.416067  0.206646  -0.514580
    N   N4    0.006538  0.378351  0.297017  -0.767088
    H   H103  0.019510  0.363809  0.281319  0.347065
    H   H104  0.031532  0.387089  0.342623  0.279394
    C   C173  0.447316  0.935497  0.811069  0.956388
    O   O53   0.461576  0.913787  0.856144  -0.621001
    N   N5    0.407871  0.923244  0.752974  -1.077154
    H   H105  0.385308  0.925737  0.755846  0.398253
    H   H106  0.409976  0.889962  0.745562  0.371257
    C   C174  0.552684  0.935497  0.188931  0.956393
    O   O54   0.538424  0.913787  0.143856  -0.621006
    N   N6    0.592129  0.923244  0.247026  -1.077153
    H   H107  0.614692  0.925737  0.244154  0.398251
    H   H108  0.590024  0.889962  0.254438  0.371259
    C   C175  0.947316  0.435497  0.811069  0.956378
    O   O55   0.961576  0.413787  0.856144  -0.621003
    N   N7    0.907871  0.423244  0.752974  -1.077146
    H   H109  0.885308  0.425737  0.755846  0.398251
    H   H110  0.909976  0.389962  0.745562  0.371255
    C   C176  0.052684  0.435497  0.188931  0.956392
    O   O56   0.038424  0.413787  0.143856  -0.621009
    N   N8    0.092129  0.423244  0.247026  -1.077148
    H   H111  0.114692  0.425737  0.244154  0.398250
    H   H112  0.090024  0.389962  0.254438  0.371260
    C   C177  0.939439  0.868336  0.885923  0.833962
    O   O57   0.921997  0.901716  0.882314  -0.533328
    N   N9    0.925546  0.848682  0.831304  -1.008115
    H   H113  0.929566  0.872204  0.809980  0.385761
    H   H114  0.893428  0.842410  0.802674  0.367355
    C   C178  0.060560  0.868336  0.114077  0.834047
    O   O58   0.078003  0.901716  0.117685  -0.533394
    N   N10   0.074454  0.848682  0.168696  -1.008145
    H   H115  0.070434  0.872204  0.190019  0.385771
    H   H116  0.106572  0.842410  0.197325  0.367369
    C   C179  0.439439  0.368336  0.885923  0.834094
    O   O59   0.421997  0.401716  0.882314  -0.533413
    N   N11   0.425546  0.348682  0.831304  -1.008153
    H   H117  0.429566  0.372204  0.809980  0.385768
    H   H118  0.393428  0.342410  0.802674  0.367360
    C   C180  0.560560  0.368336  0.114077  0.834060
    O   O60   0.578003  0.401716  0.117685  -0.533401
    N   N12   0.574454  0.348682  0.168696  -1.008150
    H   H119  0.570434  0.372204  0.190019  0.385774
    H   H120  0.606572  0.342410  0.197325  0.367367
    C   C181  0.205230  0.085735  0.214553  0.805957
    O   O61   0.209075  0.099340  0.180140  -0.586655
    N   N13   0.180189  0.110066  0.220792  -0.826765
    H   H121  0.168406  0.137799  0.192326  0.350410
    H   H122  0.200037  0.121285  0.265898  0.302708
    C   C182  0.794770  0.085735  0.785447  0.805830
    O   O62   0.790925  0.099340  0.819860  -0.586640
    N   N14   0.819811  0.110066  0.779208  -0.826707
    H   H123  0.831594  0.137800  0.807675  0.350396
    H   H124  0.799963  0.121285  0.734102  0.302699
    C   C183  0.705230  0.585735  0.214553  0.805828
    O   O63   0.709075  0.599340  0.180140  -0.586635
    N   N15   0.680189  0.610066  0.220792  -0.826723
    H   H125  0.668406  0.637799  0.192326  0.350409
    H   H126  0.700037  0.621285  0.265898  0.302700
    C   C184  0.294770  0.585735  0.785447  0.805788
    O   O64   0.290925  0.599340  0.819860  -0.586626
    N   N16   0.319811  0.610066  0.779208  -0.826695
    H   H127  0.331594  0.637800  0.807675  0.350397
    H   H128  0.299963  0.621285  0.734102  0.302696
