# Generated by REPEAT Assigner based on pymatgen
data_DB0-m29_o89_o42_f0_pts.sym.25
_audit_creation_date              2022-05-24
_audit_creation_method            REPEAT_Assigner
_cell_length_a                    14.719699
_cell_length_b                    9.398860
_cell_length_c                    14.942929
_cell_angle_alpha                 87.343150
_cell_angle_beta                  91.969168
_cell_angle_gamma                 110.599159
_cell_volume                      1932.714311
_symmetry_space_group_name_H-M    P1
_symmetry_Int_Tables_number       1
loop_
    _symmetry_equiv_pos_site_id
    _symmetry_equiv_pos_as_xyz
    1  x,y,z
loop_
    _atom_site_type_symbol
    _atom_site_label
    _atom_site_fract_x
    _atom_site_fract_y
    _atom_site_fract_z
    _atom_type_partial_charge
    C   C1   0.856149  0.053371  0.090276  -0.204423
    C   C2   0.768404  0.036018  0.046556  -0.041006
    C   C3   0.756292  0.994182  0.957411  0.117308
    C   C4   0.829913  0.965552  0.915917  -0.250209
    C   C5   0.915357  0.977733  0.961024  0.178503
    C   C6   0.928976  0.020016  0.048925  0.168102
    C   C7   0.986747  0.946464  0.917539  -0.235929
    C   C8   0.072187  0.955682  0.961633  0.106687
    C   C9   0.086581  0.995023  0.050068  0.234224
    C   C10  0.014803  0.027507  0.094358  -0.232089
    C   C11  0.143581  0.927374  0.915990  -0.142314
    C   C12  0.231190  0.938863  0.957432  -0.068352
    C   C13  0.244175  0.971129  0.047991  0.162266
    C   C14  0.172493  0.999595  0.093132  -0.325329
    H   H1   0.865486  0.089278  0.158357  0.160368
    H   H2   0.819533  0.930833  0.847228  0.155905
    H   H3   0.975637  0.914676  0.848320  0.176681
    H   H4   0.131268  0.901236  0.845990  0.149791
    H   H5   0.187018  0.026461  0.162726  0.172527
    N   N1   0.097042  0.192156  0.219828  -0.273442
    C   C15  0.088363  0.185987  0.309344  0.032056
    C   C16  0.014345  0.055015  0.336195  -0.197288
    C   C17  0.976338  0.978066  0.259272  -0.177820
    C   C18  0.028872  0.065840  0.189029  0.262485
    H   H6   0.146943  0.277992  0.181473  0.338007
    H   H7   0.990818  0.019180  0.403946  0.179337
    H   H8   0.917428  0.870117  0.254944  0.150121
    O   O1   0.598330  0.995616  0.069232  -0.551379
    C   C19  0.687879  0.042447  0.100755  0.679647
    O   O2   0.583007  0.742271  0.169905  -0.477243
    O   O3   0.702829  0.069211  0.186424  -0.557069
    O   O4   0.491703  0.812446  0.265636  -0.524943
    C   C20  0.535846  0.718971  0.245151  0.558281
    Fe  Fe1  0.504287  0.964465  0.166208  1.431649
    O   O5   0.371251  0.885222  0.109397  -0.597441
    O   O6   0.384036  0.130367  0.126849  -0.487218
    C   C21  0.336319  0.995652  0.096131  0.590177
    O   O7   0.551831  0.170031  0.220097  -0.498633
    O   O8   0.433091  0.052503  0.319791  -0.504612
    C   C22  0.499568  0.176796  0.288169  0.547466
    O   O9   0.448798  0.770083  0.791392  -0.607269
    O   O10  0.537558  0.893345  0.671296  -0.477959
    C   C23  0.485856  0.766351  0.713136  0.612323
    O   O11  0.623815  0.068474  0.897854  -0.626656
    O   O12  0.625286  0.834291  0.868482  -0.495937
    C   C24  0.665055  0.965058  0.906828  0.594068
    O   O13  0.298532  0.930562  0.813820  -0.543119
    O   O14  0.501868  0.124594  0.737492  -0.533392
    C   C25  0.490144  0.247359  0.765865  0.558453
    O   O15  0.396159  0.949366  0.935901  -0.543522
    C   C26  0.310371  0.933830  0.901247  0.625053
    O   O16  0.476342  0.255933  0.851441  -0.517234
    Fe  Fe2  0.491624  0.979498  0.840327  1.498858
    C   C27  0.528680  0.586052  0.304000  -0.031864
    C   C28  0.522548  0.596181  0.395188  -0.085501
    H   H9   0.532700  0.707240  0.418392  0.127648
    C   C29  0.506261  0.469509  0.453104  0.041127
    C   C30  0.497086  0.332194  0.415405  -0.201407
    H   H10  0.478689  0.227582  0.454756  0.161568
    C   C31  0.510905  0.324264  0.324974  0.080529
    C   C32  0.526363  0.451488  0.268738  -0.096294
    C   C33  0.501023  0.364201  0.612234  -0.197548
    H   H11  0.514186  0.265992  0.590360  0.164221
    C   C34  0.489691  0.372785  0.703244  0.056637
    C   C35  0.479482  0.501365  0.735889  -0.173003
    C   C36  0.481399  0.620814  0.678091  0.114628
    C   C37  0.487302  0.608476  0.587161  -0.273708
    H   H12  0.482265  0.701936  0.545755  0.159610
    C   C38  0.497410  0.480246  0.551986  0.158549
    H   H13  0.474751  0.512219  0.807073  0.181862
    C   C39  0.525784  0.439110  0.171217  0.769495
    O   O17  0.457993  0.450694  0.126025  -0.486221
    O   O18  0.607217  0.432980  0.129236  -0.584860
    H   H14  0.596415  0.432041  0.061983  0.416623
    C   C40  0.149691  0.302407  0.368690  0.636008
    O   O19  0.137168  0.287936  0.449307  -0.519451
    O   O20  0.222407  0.429660  0.333311  -0.590977
    H   H15  0.257803  0.498361  0.383146  0.423812
