# Generated by REPEAT Assigner based on pymatgen
data_DB0-m29_o82_o149_f0_pts.sym.44
_audit_creation_date              2022-05-24
_audit_creation_method            REPEAT_Assigner
_cell_length_a                    14.337121
_cell_length_b                    9.419056
_cell_length_c                    15.676493
_cell_angle_alpha                 87.516172
_cell_angle_beta                  91.782123
_cell_angle_gamma                 110.291801
_cell_volume                      1983.446708
_symmetry_space_group_name_H-M    P1
_symmetry_Int_Tables_number       1
loop_
    _symmetry_equiv_pos_site_id
    _symmetry_equiv_pos_as_xyz
    1  x,y,z
loop_
    _atom_site_type_symbol
    _atom_site_label
    _atom_site_fract_x
    _atom_site_fract_y
    _atom_site_fract_z
    _atom_type_partial_charge
    C   C1   0.236310  0.931358  0.886297  0.089176
    C   C2   0.140654  0.890564  0.853345  -0.175499
    C   C3   0.064903  0.904145  0.900419  -0.069674
    C   C4   0.916806  0.055957  0.904512  -0.134041
    C   C5   0.252632  0.971117  0.971229  -0.120736
    C   C6   0.176254  0.987799  0.018051  0.105483
    C   C7   0.083854  0.967984  0.980094  0.074272
    C   C8   0.010267  0.997819  0.026201  -0.065862
    C   C9   0.828338  0.058761  0.869135  -0.139379
    C   C10  0.744142  0.017509  0.917628  0.022096
    C   C11  0.922828  0.011836  0.989600  0.092640
    C   C12  0.843390  0.000471  0.041433  0.081874
    C   C13  0.751723  0.992686  0.004951  -0.051405
    C   C14  0.191729  0.022542  0.103449  -0.154333
    C   C15  0.114993  0.028454  0.151187  -0.156824
    C   C16  0.024831  0.014787  0.113341  0.224611
    C   C17  0.950090  0.021560  0.163817  -0.252858
    C   C18  0.858729  0.007665  0.129087  -0.070210
    H   H1   0.123484  0.847850  0.789753  0.150559
    H   H2   0.990715  0.859641  0.873587  0.106629
    H   H3   0.981362  0.094946  0.864590  0.133410
    H   H4   0.824471  0.086341  0.801777  0.142193
    H   H5   0.261450  0.038873  0.136567  0.144710
    H   H6   0.126870  0.047481  0.218791  0.123233
    H   H7   0.962165  0.035042  0.231844  0.155411
    H   H8   0.804242  0.016859  0.172212  0.113570
    O   O1   0.601651  0.035673  0.041913  -0.511925
    C   C19  0.663851  0.962772  0.058168  0.470582
    O   O2   0.450982  0.671767  0.110504  -0.440211
    O   O3   0.647218  0.862833  0.121836  -0.425897
    O   O4   0.481262  0.832403  0.220368  -0.562063
    C   C20  0.462310  0.695048  0.192725  0.563653
    Fe  Fe1  0.494312  0.985249  0.126445  1.415311
    O   O5   0.365307  0.893168  0.062549  -0.555775
    O   O6   0.415471  0.136507  0.011231  -0.474364
    C   C21  0.349909  0.998670  0.012426  0.695094
    O   O7   0.524391  0.185894  0.180455  -0.596137
    O   O8   0.392571  0.049259  0.261529  -0.550550
    C   C22  0.462458  0.178541  0.241844  0.581825
    O   O9   0.449433  0.797394  0.711562  -0.523442
    O   O10  0.567599  0.913192  0.613296  -0.518043
    C   C23  0.500799  0.789969  0.645088  0.550321
    O   O11  0.640811  0.081967  0.809172  -0.601388
    O   O12  0.569783  0.877901  0.897261  -0.410525
    C   C24  0.647774  0.994943  0.875033  0.627587
    O   O13  0.296895  0.905659  0.748338  -0.523976
    O   O14  0.512140  0.152573  0.664092  -0.463847
    C   C25  0.470338  0.250289  0.684453  0.496828
    O   O15  0.410284  0.980059  0.855859  -0.509161
    C   C26  0.316998  0.933218  0.829464  0.555740
    O   O16  0.423896  0.230668  0.757102  -0.421923
    Fe  Fe2  0.502034  0.004570  0.760089  1.392081
    C   C27  0.488763  0.521600  0.664282  -0.324178
    C   C28  0.489517  0.642859  0.610779  0.138132
    C   C29  0.483605  0.629375  0.523602  -0.242743
    C   C30  0.477840  0.383891  0.628804  -0.095729
    C   C31  0.473243  0.371831  0.540682  0.402639
    C   C32  0.474649  0.493364  0.486798  -0.063663
    C   C33  0.468007  0.475175  0.397987  0.179138
    C   C34  0.465261  0.590334  0.339824  -0.222462
    C   C35  0.462676  0.570948  0.252934  0.060165
    N   N1   0.468151  0.240064  0.507842  -0.333621
    C   C36  0.465257  0.221183  0.423409  0.068173
    C   C37  0.464377  0.337487  0.366598  -0.045625
    C   C38  0.463035  0.319094  0.278834  0.028603
    C   C39  0.463487  0.436279  0.222925  -0.175769
    H   H9   0.462675  0.420162  0.155052  0.178957
    H   H10  0.487299  0.730274  0.487256  0.171363
    H   H11  0.463577  0.696963  0.359448  0.171217
    H   H12  0.464941  0.113763  0.402239  0.151578
    C   C40  0.513401  0.546035  0.757724  0.675914
    O   O17  0.426405  0.517561  0.803364  -0.541077
    H   H13  0.564561  0.662796  0.768656  -0.135357
    H   H14  0.554619  0.473151  0.783502  -0.046823
    H   H15  0.372354  0.489383  0.759672  0.372331
