# Generated by REPEAT Assigner based on pymatgen
data_DB0-m29_o92_o45_f0_pts.sym.93
_audit_creation_date              2022-05-24
_audit_creation_method            REPEAT_Assigner
_cell_length_a                    9.530227
_cell_length_b                    23.633222
_cell_length_c                    17.230407
_cell_angle_alpha                 113.696173
_cell_angle_beta                  89.035976
_cell_angle_gamma                 88.525689
_cell_volume                      3550.870135
_symmetry_space_group_name_H-M    P1
_symmetry_Int_Tables_number       1
loop_
    _symmetry_equiv_pos_site_id
    _symmetry_equiv_pos_as_xyz
    1  x,y,z
loop_
    _atom_site_type_symbol
    _atom_site_label
    _atom_site_fract_x
    _atom_site_fract_y
    _atom_site_fract_z
    _atom_type_partial_charge
    C   C1   0.138192  0.006354  0.780607  0.169600
    C   C2   0.155323  0.002228  0.857752  -0.336224
    H   H1   0.259098  0.002425  0.882174  0.169605
    C   C3   0.040114  0.997616  0.904630  0.424573
    C   C4   0.906424  0.995722  0.873072  -0.214137
    H   H2   0.813358  0.991229  0.906563  0.090341
    C   C5   0.888265  0.001637  0.797554  0.092130
    C   C6   0.003548  0.007552  0.751840  -0.274317
    N   N1   0.061853  0.995417  0.984438  -0.183150
    N   N2   0.950091  0.994740  0.022441  -0.138602
    C   C7   0.855329  0.989787  0.149760  -0.313149
    H   H3   0.752310  0.989563  0.124418  0.161213
    C   C8   0.870124  0.988370  0.228749  0.153973
    C   C9   0.004256  0.987751  0.259061  -0.290935
    C   C10  0.119798  0.993393  0.213144  0.099696
    C   C11  0.103348  0.996795  0.135869  -0.166260
    H   H4   0.196732  0.001173  0.102547  0.103275
    C   C12  0.970976  0.993233  0.102707  0.382860
    H   H5   0.987516  0.011185  0.692065  0.213653
    O   O1   0.618158  0.987189  0.249129  -0.476642
    C   C13  0.743228  0.991260  0.280695  0.491498
    O   O2   0.457345  0.869156  0.285682  -0.502755
    O   O3   0.750836  0.002576  0.361493  -0.508675
    O   O4   0.509671  0.945628  0.411064  -0.456415
    C   C14  0.492497  0.886434  0.364988  0.562760
    Fe  Fe1  0.484984  0.995125  0.342520  1.331574
    O   O5   0.299429  0.966347  0.290396  -0.470153
    O   O6   0.347331  0.037296  0.236760  -0.491015
    C   C15  0.260583  0.998515  0.247159  0.520551
    O   O7   0.505094  0.084155  0.420728  -0.521347
    O   O8   0.341336  0.054017  0.491159  -0.382025
    C   C16  0.418365  0.097691  0.486137  0.530837
    O   O9   0.496767  0.936475  0.574142  -0.553368
    O   O10  0.735299  0.937005  0.565180  -0.466595
    C   C17  0.616447  0.911788  0.534427  0.597000
    O   O11  0.712593  0.035801  0.725826  -0.622330
    O   O12  0.654987  0.962457  0.773762  -0.480440
    C   C18  0.746543  0.000201  0.765142  0.650746
    O   O13  0.241377  0.008001  0.653029  -0.477881
    O   O14  0.508106  0.082267  0.626314  -0.531297
    C   C19  0.412132  0.125293  0.667164  0.546178
    O   O15  0.389357  0.013154  0.757283  -0.536820
    C   C20  0.260707  0.009028  0.728810  0.568376
    O   O16  0.356925  0.128424  0.739062  -0.505131
    Fe  Fe2  0.524785  0.017695  0.671648  1.441770
    C   C21  0.290644  0.373022  0.606753  0.410703
    O   O17  0.368945  0.385797  0.675578  -0.482820
    N   N3   0.273035  0.313604  0.552805  -0.157511
    C   C22  0.207138  0.301585  0.479021  0.455840
    C   C23  0.373560  0.209139  0.524108  -0.259266
    C   C24  0.396187  0.161309  0.550127  0.074613
    C   C25  0.309926  0.226950  0.689297  -0.083624
    C   C26  0.274248  0.271903  0.661052  -0.206328
    C   C27  0.310489  0.264898  0.579422  0.274077
    C   C28  0.160915  0.409524  0.517896  0.114185
    C   C29  0.226961  0.421090  0.592628  -0.097247
    C   C30  0.227816  0.480681  0.653519  -0.052414
    C   C31  0.157749  0.349605  0.458912  -0.142106
    C   C32  0.372537  0.171850  0.634680  -0.014316
    H   H6   0.285764  0.235178  0.754531  0.141133
    H   H7   0.216937  0.312784  0.704301  0.163737
    H   H8   0.281159  0.491498  0.712356  0.134175
    C   C33  0.536552  0.838095  0.394456  -0.027760
    C   C34  0.998071  0.560751  0.556852  0.047880
    C   C35  0.987568  0.495833  0.408490  0.044325
    C   C36  0.957116  0.551668  0.476162  0.028486
    C   C37  0.950731  0.614164  0.624780  -0.167886
    C   C38  0.867484  0.657792  0.611843  -0.064244
    C   C39  0.837167  0.650897  0.530704  -0.078372
    C   C40  0.884654  0.598597  0.463196  0.110133
    C   C41  0.858274  0.593537  0.382670  -0.136248
    C   C42  0.793425  0.642405  0.370609  0.429758
    N   N4   0.739909  0.692323  0.437561  -0.149089
    C   C43  0.756816  0.695488  0.517115  0.409545
    C   C44  0.690021  0.803089  0.476195  -0.221468
    C   C45  0.616872  0.850521  0.465542  0.071109
    C   C46  0.513013  0.777028  0.343115  -0.083529
    C   C47  0.572233  0.729596  0.360313  -0.214407
    C   C48  0.667689  0.741868  0.424289  0.272477
    O   O18  0.692684  0.741217  0.583814  -0.480577
    C   C49  0.082426  0.515637  0.567933  0.050984
    C   C50  0.096273  0.457299  0.503053  0.028036
    C   C51  0.043397  0.446277  0.424125  0.047536
    C   C52  0.152840  0.527235  0.642475  -0.176602
    H   H9   0.762014  0.814939  0.527634  0.173481
    H   H10  0.830359  0.698067  0.666410  0.142234
    H   H11  0.969422  0.622033  0.689734  0.141748
    H   H12  0.156763  0.572772  0.692525  0.141612
    O   O19  0.182232  0.243075  0.426562  -0.486905
    C   C53  0.097955  0.337799  0.381887  -0.022269
    H   H13  0.398646  0.201137  0.459098  0.181544
    H   H14  0.092773  0.291170  0.334269  0.124453
    C   C54  0.960383  0.491088  0.327106  -0.181406
    C   C55  0.900266  0.540170  0.314399  -0.020537
    O   O20  0.787315  0.640413  0.291686  -0.462620
    C   C56  0.045175  0.385706  0.363589  -0.176238
    H   H15  0.990922  0.450782  0.271148  0.142584
    H   H16  0.447002  0.765450  0.288859  0.156013
    H   H17  0.882941  0.535008  0.250122  0.117902
    H   H18  0.545214  0.682720  0.321323  0.151621
    H   H19  0.997795  0.373117  0.302875  0.137389
    C   C57  0.025001  0.984084  0.341001  0.887574
    O   O21  0.998118  0.936883  0.350056  -0.479403
    N   N5   0.071535  0.036445  0.411095  -0.758360
    H   H20  0.067819  0.025491  0.464049  0.360092
    H   H21  0.999052  0.072886  0.421860  0.314021
