# Generated by REPEAT Assigner based on pymatgen
data_DB0-m3_o17_o82_f0_fsc.sym.12_sqe
_audit_creation_date              2022-05-24
_audit_creation_method            REPEAT_Assigner
_cell_length_a                    13.376587
_cell_length_b                    6.731528
_cell_length_c                    13.408214
_cell_angle_alpha                 90.000000
_cell_angle_beta                  90.000000
_cell_angle_gamma                 90.000000
_cell_volume                      1207.340893
_symmetry_space_group_name_H-M    P1
_symmetry_Int_Tables_number       1
loop_
    _symmetry_equiv_pos_site_id
    _symmetry_equiv_pos_as_xyz
    1  x,y,z
loop_
    _atom_site_type_symbol
    _atom_site_label
    _atom_site_fract_x
    _atom_site_fract_y
    _atom_site_fract_z
    _atom_type_partial_charge
    C   C1   0.728362  0.747477  0.989845  -0.101896
    C   C2   0.271640  0.747477  0.010154  -0.101938
    C   C3   0.815069  0.653949  0.960505  -0.031486
    C   C4   0.184934  0.653950  0.039495  -0.031431
    C   C5   0.905078  0.753312  0.961249  -0.284731
    C   C6   0.094924  0.753312  0.038750  -0.284735
    C   C7   0.729453  0.953027  0.999935  -0.189828
    C   C8   0.270549  0.953027  0.000065  -0.189787
    C   C9   0.820681  0.048941  0.005967  0.063952
    C   C10  0.179322  0.048941  0.994033  0.063874
    C   C11  0.909192  0.946361  0.993502  0.235388
    C   C12  0.090811  0.946361  0.006498  0.235409
    C   C13  0.000001  0.044802  0.000000  -0.220018
    C   C14  0.823230  0.249504  0.024542  -0.183867
    C   C15  0.176772  0.249504  0.975458  -0.183789
    C   C16  0.913009  0.348779  0.019962  -0.247134
    C   C17  0.086994  0.348779  0.980039  -0.247150
    C   C18  0.000001  0.247698  0.000000  0.252387
    H   H1   0.812222  0.500556  0.936813  0.130043
    H   H2   0.187780  0.500557  0.063187  0.130042
    H   H3   0.971357  0.680394  0.933920  0.125774
    H   H4   0.028645  0.680394  0.066080  0.125770
    H   H5   0.754761  0.328701  0.040613  0.157558
    H   H6   0.245242  0.328701  0.959387  0.157499
    H   H7   0.916706  0.503055  0.038656  0.160398
    H   H8   0.083296  0.503055  0.961344  0.160392
    O   O1   0.608506  0.556362  0.084399  -0.713277
    O   O2   0.604684  0.554036  0.912652  -0.672761
    O   O3   0.395318  0.554037  0.087347  -0.672791
    O   O4   0.391496  0.556363  0.915601  -0.713325
    C   C19  0.638679  0.623570  0.996725  0.814936
    C   C20  0.361323  0.623571  0.003275  0.815011
    O   O5   0.603718  0.143361  0.913382  -0.656231
    O   O6   0.608511  0.145534  0.085294  -0.632452
    O   O7   0.391492  0.145534  0.914706  -0.632489
    O   O8   0.396285  0.143360  0.086618  -0.656263
    C   C21  0.639171  0.077542  0.999358  0.770553
    C   C22  0.360831  0.077541  0.000642  0.770594
    Zn  Zn1  0.497622  0.350594  0.888084  1.012082
    Zn  Zn2  0.502380  0.350594  0.111916  1.012099
    C   C23  0.415490  0.361914  0.292974  0.697392
    C   C24  0.409307  0.356109  0.705242  0.694624
    C   C25  0.590694  0.356124  0.294758  0.694546
    C   C26  0.584511  0.361929  0.707026  0.697289
    N   N1   0.503530  0.351476  0.243176  -0.516576
    N   N2   0.496472  0.351476  0.756824  -0.516513
    C   C27  0.590398  0.355857  0.398073  -0.550271
    C   C28  0.586619  0.357467  0.604273  -0.556721
    C   C29  0.413383  0.357449  0.395728  -0.556603
    C   C30  0.409604  0.355838  0.601927  -0.550440
    C   C31  0.500984  0.353261  0.448585  0.210604
    C   C32  0.499018  0.353260  0.551416  0.210834
    C   C33  0.678952  0.356755  0.451503  0.462247
    C   C34  0.676798  0.358595  0.554324  0.487678
    C   C35  0.323203  0.358555  0.445676  0.487524
    C   C36  0.321050  0.356714  0.548497  0.462407
    N   N3   0.324219  0.397587  0.241206  -0.762723
    H   H9   0.315972  0.551465  0.235657  0.287850
    H   H10  0.330104  0.343942  0.169027  0.328717
    N   N4   0.316498  0.376126  0.756273  -0.774686
    H   H11  0.295666  0.525132  0.750720  0.290462
    H   H12  0.328180  0.349657  0.831539  0.348075
    N   N5   0.683503  0.376153  0.243726  -0.774597
    H   H13  0.704324  0.525166  0.249269  0.290482
    H   H14  0.671823  0.349657  0.168462  0.347991
    N   N6   0.675780  0.397616  0.758796  -0.762739
    H   H15  0.684014  0.551494  0.764360  0.287912
    H   H16  0.669900  0.343939  0.830970  0.328704
    N   N7   0.772936  0.352981  0.401751  -0.943373
    H   H17  0.769732  0.243930  0.346489  0.383001
    H   H18  0.784463  0.491281  0.368683  0.359098
    N   N8   0.768192  0.359061  0.608651  -0.969311
    H   H19  0.771032  0.490104  0.650085  0.374789
    H   H20  0.766296  0.239307  0.658097  0.375857
    N   N9   0.231809  0.358995  0.391350  -0.969220
    H   H21  0.228954  0.490047  0.349924  0.374734
    H   H22  0.233716  0.239252  0.341898  0.375849
    N   N10  0.227066  0.352913  0.598249  -0.943441
    H   H23  0.230278  0.243869  0.653514  0.383046
    H   H24  0.215525  0.491213  0.631311  0.359118
