# Generated by REPEAT Assigner based on pymatgen
data_DB0-m3_o9_o11_f0_nbo.sym.9_sqe
_audit_creation_date              2022-05-24
_audit_creation_method            REPEAT_Assigner
_cell_length_a                    18.889039
_cell_length_b                    18.967626
_cell_length_c                    19.064930
_cell_angle_alpha                 70.796717
_cell_angle_beta                  70.451674
_cell_angle_gamma                 109.382716
_cell_volume                      5276.201624
_symmetry_space_group_name_H-M    P1
_symmetry_Int_Tables_number       1
loop_
    _symmetry_equiv_pos_site_id
    _symmetry_equiv_pos_as_xyz
    1  x,y,z
loop_
    _atom_site_type_symbol
    _atom_site_label
    _atom_site_fract_x
    _atom_site_fract_y
    _atom_site_fract_z
    _atom_type_partial_charge
    C   C1    0.994056  0.116828  0.381688  0.615235
    C   C2    0.972506  0.965763  0.813850  -0.107530
    C   C3    0.325543  0.510784  0.752455  -0.030612
    C   C4    0.059912  0.444574  0.720250  -0.223838
    C   C5    0.994329  0.447123  0.704720  -0.121674
    C   C6    0.980659  0.515878  0.695041  -0.150666
    C   C7    0.032618  0.582064  0.700884  -0.066541
    C   C8    0.097591  0.579142  0.717432  -0.142074
    C   C9    0.111087  0.510026  0.727706  0.330764
    C   C10   0.240228  0.240237  0.574436  -0.163171
    C   C11   0.308248  0.312280  0.499059  0.082308
    C   C12   0.313401  0.321457  0.421842  -0.064683
    C   C13   0.253272  0.256205  0.420996  -0.089295
    C   C14   0.184710  0.183565  0.497150  0.258776
    C   C15   0.177626  0.177238  0.574149  -0.215693
    C   C16   0.366752  0.457737  0.294801  -0.171359
    C   C17   0.432821  0.529873  0.217925  -0.113792
    C   C18   0.515774  0.542453  0.186062  -0.129984
    C   C19   0.118318  0.116493  0.496010  0.597870
    C   C20   0.532684  0.482983  0.231209  -0.059324
    C   C21   0.466643  0.410965  0.308150  -0.210547
    C   C22   0.383492  0.397878  0.339961  0.269046
    C   C23   0.904607  0.280875  0.512848  -0.095853
    C   C24   0.910906  0.269024  0.443871  -0.171416
    C   C25   0.980294  0.263056  0.397194  0.233654
    C   C26   0.044576  0.271577  0.418485  -0.127814
    C   C27   0.038321  0.283556  0.487373  -0.052301
    C   C28   0.968165  0.287892  0.534771  -0.208417
    C   C29   0.991021  0.315244  0.256573  -0.171254
    C   C30   0.001365  0.877275  0.610456  0.707411
    C   C31   0.999532  0.310465  0.183739  0.129982
    C   C32   0.004473  0.241507  0.177103  -0.061464
    C   C33   0.003926  0.180355  0.241717  -0.240200
    C   C34   0.994925  0.184622  0.314975  0.213990
    C   C35   0.987527  0.252608  0.322700  -0.175464
    C   C36   0.948754  0.167641  0.107009  -0.053350
    C   C37   0.958261  0.159570  0.035597  -0.152227
    C   C38   0.033895  0.216960  0.958339  0.105555
    C   C39   0.100105  0.282149  0.952614  -0.175031
    C   C40   0.090335  0.290618  0.023864  -0.073327
    C   C41   0.877328  0.877701  0.496806  0.619171
    C   C42   0.014437  0.233718  0.101048  0.101231
    C   C43   0.666492  0.957958  0.545638  -0.155839
    C   C44   0.674660  0.886230  0.555425  -0.137356
    C   C45   0.731149  0.887764  0.485940  0.279468
    C   C46   0.777506  0.960228  0.406119  0.015666
    C   C47   0.769022  0.031802  0.396333  -0.188030
    C   C48   0.713994  0.030888  0.466180  -0.116733
    C   C49   0.678840  0.745360  0.498962  -0.246297
    C   C50   0.686203  0.673712  0.505625  0.236262
    C   C51   0.757364  0.669607  0.508317  -0.178841
    C   C52   0.982191  0.046626  0.791095  -0.115730
    C   C53   0.819339  0.737125  0.504747  -0.196446
    C   C54   0.811028  0.808042  0.499196  0.134374
    C   C55   0.740120  0.811925  0.496522  -0.108284
    C   C56   0.784164  0.552764  0.573015  -0.186331
    C   C57   0.803080  0.488841  0.571640  -0.158006
    C   C58   0.811945  0.471581  0.505356  -0.103457
    C   C59   0.802007  0.518333  0.440388  -0.084033
    C   C60   0.782288  0.581723  0.442085  -0.147155
    C   C61   0.772588  0.598660  0.508860  0.255571
    C   C62   0.932812  0.680611  0.813266  -0.004206
    C   C63   0.049495  0.115658  0.712812  -0.175905
    C   C64   0.001175  0.694158  0.824586  0.040803
    C   C65   0.932241  0.750980  0.750870  -0.133040
    C   C66   0.002507  0.809308  0.674351  -0.117566
    C   C67   0.610879  0.480953  0.393018  0.418059
    C   C68   0.373220  0.377486  0.502845  0.619863
    C   C69   0.380345  0.502342  0.619004  0.650617
    C   C70   0.618686  0.606153  0.506886  0.634683
    C   C71   0.122378  0.507611  0.878388  0.603101
    C   C72   0.001609  0.378265  0.116162  0.648711
    C   C73   0.880285  0.496046  0.126367  0.616131
    C   C74   0.106220  0.103592  0.656620  0.254722
    C   C75   0.000511  0.625223  0.889248  0.625768
    C   C76   0.570870  0.217230  0.553578  -0.013399
    C   C77   0.629673  0.297767  0.482943  -0.338225
    C   C78   0.620455  0.322622  0.411327  0.435156
    C   C79   0.554095  0.265211  0.409564  -0.239896
    C   C80   0.495258  0.184693  0.480217  -0.081197
    C   C81   0.503365  0.160844  0.552408  -0.161429
    C   C82   0.749136  0.412686  0.269067  -0.019615
    C   C83   0.811325  0.491188  0.196028  0.141527
    C   C84   0.809052  0.564786  0.190957  -0.216763
    C   C85   0.097130  0.022843  0.679889  -0.181737
    C   C86   0.742796  0.559093  0.255540  -0.144711
    C   C87   0.679618  0.481143  0.327615  0.373143
    C   C88   0.684114  0.407337  0.335491  -0.250287
    C   C89   0.930346  0.709543  0.126018  -0.223740
    C   C90   0.989143  0.791308  0.057506  -0.122911
    C   C91   0.990006  0.813762  0.980645  -0.078381
    C   C92   0.932007  0.754425  0.972523  -0.082899
    C   C93   0.874501  0.672207  0.040331  -0.227576
    C   C94   0.873908  0.649632  0.117035  0.411284
    C   C95   0.464113  0.440885  0.823001  -0.094320
    C   C96   0.030504  0.954149  0.758526  -0.035630
    C   C97   0.393671  0.438768  0.814978  -0.147939
    C   C98   0.400509  0.512982  0.760400  0.261469
    C   C99   0.477853  0.589376  0.714295  -0.164531
    C   C100  0.547955  0.591579  0.723174  -0.109761
    C   C101  0.541251  0.517301  0.777115  -0.166003
    C   C102  0.264310  0.514771  0.813330  -0.120569
    C   C103  0.191585  0.511977  0.808686  0.265509
    C   C104  0.183428  0.508845  0.739668  -0.240317
    C   C105  0.246535  0.507768  0.677733  -0.182001
    C   C106  0.316857  0.507461  0.684140  0.060303
    Cl  Cl1   0.046168  0.206880  0.867556  -0.135200
    Cl  Cl2   0.845168  0.960511  0.316762  -0.086666
    Cl  Cl3   0.756243  0.319736  0.281763  -0.055319
    Cl  Cl4   0.279569  0.519058  0.898135  -0.038757
    Cl  Cl5   0.264604  0.268325  0.321779  -0.044805
    H   H1    0.919805  0.911678  0.875321  0.083591
    H   H2    0.597757  0.492925  0.206422  0.060854
    H   H3    0.479892  0.364776  0.343846  0.112341
    H   H4    0.963262  0.297322  0.588767  0.121473
    H   H5    0.849793  0.284712  0.549735  0.113374
    H   H6    0.860748  0.263415  0.427115  0.093761
    H   H7    0.100269  0.269533  0.380794  0.085161
    H   H8    0.088623  0.289889  0.504003  0.082715
    H   H9    0.986790  0.368808  0.262098  0.114412
    H   H10   0.009991  0.128044  0.234771  0.146301
    H   H11   0.889234  0.122910  0.167368  0.064627
    H   H12   0.937127  0.055917  0.834662  0.101953
    H   H13   0.906412  0.108230  0.040202  0.113761
    H   H14   0.159737  0.326389  0.892272  0.143447
    H   H15   0.142460  0.341196  0.019606  0.084023
    H   H16   0.707541  0.087105  0.458492  0.127727
    H   H17   0.622836  0.957018  0.600267  0.117837
    H   H18   0.637556  0.829113  0.617747  0.100940
    H   H19   0.805251  0.088554  0.333848  0.172901
    H   H20   0.624065  0.749591  0.496232  0.130887
    H   H21   0.875375  0.734658  0.505724  0.135429
    H   H22   0.777926  0.566473  0.624828  0.123520
    H   H23   0.056968  0.179079  0.694974  0.156200
    H   H24   0.811574  0.452667  0.622247  0.128534
    H   H25   0.827339  0.421857  0.503954  0.100756
    H   H26   0.810299  0.505655  0.387761  0.068310
    H   H27   0.776144  0.619157  0.390104  0.096918
    H   H28   0.874054  0.618643  0.854965  0.087007
    H   H29   0.056312  0.758412  0.790011  0.038314
    H   H30   0.871756  0.751215  0.765402  0.120897
    H   H31   0.060284  0.803548  0.655867  0.111079
    H   H32   0.457349  0.097635  0.607733  0.108937
    H   H33   0.577871  0.198213  0.609790  0.078846
    H   H34   0.142502  0.013399  0.636821  0.097677
    H   H35   0.682908  0.341514  0.483788  0.160178
    H   H36   0.548806  0.282934  0.352366  0.105463
    H   H37   0.443089  0.140046  0.478782  0.100900
    H   H38   0.741404  0.617246  0.249442  0.070733
    H   H39   0.928779  0.692223  0.186723  0.108677
    H   H40   0.033905  0.838011  0.064310  0.121408
    H   H41   0.035530  0.878122  0.927116  0.069154
    H   H42   0.930905  0.772228  0.913263  0.083856
    H   H43   0.828763  0.626063  0.033843  0.101748
    H   H44   0.596417  0.519055  0.783618  0.115290
    H   H45   0.024140  0.891301  0.776568  0.093074
    H   H46   0.458765  0.382687  0.865512  0.103696
    H   H47   0.333081  0.378907  0.851246  0.076021
    H   H48   0.483286  0.647649  0.671809  0.084734
    H   H49   0.608268  0.651544  0.687825  0.117152
    H   H50   0.240076  0.505967  0.624027  0.131218
    H   H51   0.070746  0.390784  0.727125  0.129938
    H   H52   0.954066  0.395507  0.699454  0.118128
    H   H53   0.929730  0.518276  0.682106  0.114599
    H   H54   0.022887  0.636674  0.691667  0.056660
    H   H55   0.138898  0.631881  0.720687  0.071398
    H   H56   0.234981  0.233351  0.634822  0.120626
    H   H57   0.301806  0.448148  0.319817  0.089528
    H   H58   0.419576  0.576612  0.182655  0.111903
    H   H59   0.567567  0.599018  0.125805  0.098019
    O   O1    0.939868  0.085893  0.462728  -0.595230
    O   O2    0.585093  0.536034  0.367233  -0.599650
    O   O3    0.400260  0.351865  0.556500  -0.661418
    O   O4    0.403068  0.458633  0.451228  -0.625195
    O   O5    0.407129  0.448472  0.644527  -0.656455
    O   O6    0.407237  0.551221  0.537957  -0.655509
    O   O7    0.588890  0.524725  0.559109  -0.617264
    O   O8    0.589015  0.631440  0.456198  -0.713642
    O   O9    0.143917  0.557728  0.910170  -0.694561
    O   O10   0.041521  0.453448  0.906463  -0.620248
    O   O11   0.050524  0.458528  0.093423  -0.674969
    O   O12   0.047896  0.089346  0.356820  -0.692765
    O   O13   0.951604  0.356223  0.084339  -0.650385
    O   O14   0.960934  0.551315  0.097535  -0.659326
    O   O15   0.858334  0.445025  0.095517  -0.674923
    O   O16   0.051649  0.647456  0.919810  -0.661249
    O   O17   0.950445  0.544953  0.912780  -0.670093
    O   O18   0.036510  0.087396  0.547964  -0.648298
    O   O19   0.143134  0.087827  0.443676  -0.670206
    O   O20   0.945946  0.903126  0.635892  -0.669684
    O   O21   0.056684  0.909344  0.529754  -0.691020
    O   O22   0.852262  0.907252  0.548034  -0.659484
    O   O23   0.959011  0.905147  0.445994  -0.679049
    O   O24   0.582249  0.430771  0.473941  -0.572166
    Zn  Zn1   0.928078  0.995559  0.566246  1.255187
    Zn  Zn2   0.067335  0.998465  0.426367  1.309362
    Zn  Zn3   0.491678  0.421301  0.576296  1.251193
    Zn  Zn4   0.498944  0.561874  0.435354  1.274570
    Zn  Zn5   0.068858  0.568720  0.006014  1.302922
    Zn  Zn6   0.933450  0.434850  0.998973  1.270497
