# Generated by REPEAT Assigner based on pymatgen
data_DB0-m3_o145_o159_f0_fsc.sym.3_sqe
_audit_creation_date              2022-05-24
_audit_creation_method            REPEAT_Assigner
_cell_length_a                    6.596945
_cell_length_b                    13.379103
_cell_length_c                    19.607356
_cell_angle_alpha                 96.754722
_cell_angle_beta                  89.069226
_cell_angle_gamma                 89.925997
_cell_volume                      1718.320810
_symmetry_space_group_name_H-M    P1
_symmetry_Int_Tables_number       1
loop_
    _symmetry_equiv_pos_site_id
    _symmetry_equiv_pos_as_xyz
    1  x,y,z
loop_
    _atom_site_type_symbol
    _atom_site_label
    _atom_site_fract_x
    _atom_site_fract_y
    _atom_site_fract_z
    _atom_type_partial_charge
    C   C1   0.658952  0.934487  0.092269  -0.074139
    C   C2   0.733806  0.977709  0.154031  -0.074433
    C   C3   0.914951  0.029107  0.154857  -0.033112
    C   C4   0.019933  0.037839  0.094496  -0.142975
    C   C5   0.946627  0.993908  0.032379  0.008573
    C   C6   0.765380  0.941725  0.031880  -0.102475
    C   C7   0.255476  0.039450  0.969031  -0.199244
    C   C8   0.059323  0.003012  0.967901  0.142762
    C   C9   0.970818  0.975370  0.905122  -0.224114
    C   C10  0.360406  0.048594  0.908657  -0.069923
    C   C11  0.272223  0.020470  0.845864  -0.016899
    C   C12  0.076528  0.983410  0.844770  -0.058171
    C   C13  0.287528  0.016208  0.719062  -0.249854
    H   H1   0.126959  0.003322  0.716685  0.184448
    C   C14  0.392264  0.021191  0.658123  0.018925
    C   C15  0.598645  0.037402  0.658653  -0.208038
    C   C16  0.695785  0.052761  0.720687  -0.026290
    H   H2   0.857227  0.065249  0.721485  0.069519
    C   C17  0.590689  0.048692  0.781634  -0.218078
    H   H3   0.673763  0.057909  0.828806  0.141828
    C   C18  0.385242  0.028731  0.781301  0.143823
    C   C19  0.718897  0.986587  0.280139  -0.306489
    H   H4   0.879947  0.000261  0.281363  0.220422
    C   C20  0.614236  0.982421  0.341174  -0.034799
    C   C21  0.407748  0.965583  0.340661  -0.104440
    C   C22  0.310883  0.947214  0.278581  -0.073959
    H   H5   0.149321  0.934348  0.277825  0.056255
    C   C23  0.417189  0.948422  0.217529  -0.211060
    H   H6   0.337859  0.936124  0.169533  0.154409
    C   C24  0.621215  0.970562  0.218222  0.200460
    H   H7   0.518408  0.893043  0.090870  0.068308
    H   H8   0.973552  0.065357  0.202572  0.060758
    H   H9   0.157834  0.081057  0.096995  0.086538
    H   H10  0.705013  0.904844  0.984763  0.081161
    H   H11  0.331275  0.060403  0.016822  0.140441
    H   H12  0.817474  0.947828  0.901930  0.149094
    H   H13  0.511789  0.078716  0.911819  0.071530
    H   H14  0.003095  0.958965  0.797059  0.056419
    O   O1   0.785988  0.933644  0.573809  -0.775041
    O   O2   0.793755  0.105565  0.571738  -0.805483
    C   C25  0.722861  0.024927  0.595869  1.023905
    O   O3   0.214424  0.097459  0.573500  -0.691985
    O   O4   0.206692  0.924470  0.571369  -0.675633
    C   C26  0.275835  0.013429  0.595202  0.741119
    O   O5   0.219841  0.069989  0.425291  -0.762453
    O   O6   0.213301  0.897853  0.427818  -0.758148
    C   C27  0.283490  0.978545  0.403468  0.923640
    O   O7   0.793204  0.906247  0.425465  -0.642642
    O   O8   0.799295  0.078975  0.428111  -0.727935
    C   C28  0.730806  0.990160  0.404030  0.794772
    Zn  Zn1  0.012315  0.113197  0.499502  1.102915
    Zn  Zn2  0.994036  0.890352  0.499822  1.016990
    C   C29  0.155882  0.712996  0.516342  -0.174265
    N   N1   0.984565  0.759524  0.500708  0.096158
    C   C30  0.816085  0.705816  0.484213  -0.102132
    C   C31  0.818548  0.602365  0.481498  -0.109797
    C   C32  0.992732  0.553135  0.497706  -0.044840
    C   C33  0.162162  0.609829  0.515519  0.292052
    C   C34  0.834100  0.389321  0.480299  -0.145732
    C   C35  0.000205  0.449253  0.497414  0.071434
    C   C36  0.176850  0.403764  0.515102  0.191136
    C   C37  0.345671  0.461081  0.532565  -0.175039
    C   C38  0.338383  0.563983  0.532668  -0.235324
    C   C39  0.847314  0.286902  0.481394  -0.147374
    N   N2   0.020678  0.243990  0.498615  0.156619
    C   C40  0.184710  0.300611  0.515674  -0.215949
    H   H15  0.322807  0.265392  0.529951  0.174479
    H   H16  0.483710  0.425304  0.546337  0.138591
    H   H17  0.470773  0.608910  0.546526  0.128210
    H   H18  0.680536  0.562632  0.468045  0.170648
    H   H19  0.692110  0.419885  0.466046  0.117331
    H   H20  0.289368  0.756984  0.530390  0.148250
    H   H21  0.716497  0.240414  0.468298  0.184343
    C   C41  0.626871  0.756235  0.470428  0.589875
    O   O9   0.603527  0.845614  0.489349  -0.296024
    O   O10  0.469954  0.700938  0.438010  -0.621430
    H   H22  0.351912  0.746783  0.430931  0.417579
