# Generated by REPEAT Assigner based on pymatgen
data_DB0-m3_o156_o510_f0_fsc.sym.25
_audit_creation_date              2022-05-24
_audit_creation_method            REPEAT_Assigner
_cell_length_a                    13.150143
_cell_length_b                    17.522396
_cell_length_c                    8.539072
_cell_angle_alpha                 90.000000
_cell_angle_beta                  95.183105
_cell_angle_gamma                 90.000000
_cell_volume                      1959.544694
_symmetry_space_group_name_H-M    P1
_symmetry_Int_Tables_number       1
loop_
    _symmetry_equiv_pos_site_id
    _symmetry_equiv_pos_as_xyz
    1  x,y,z
loop_
    _atom_site_type_symbol
    _atom_site_label
    _atom_site_fract_x
    _atom_site_fract_y
    _atom_site_fract_z
    _atom_type_partial_charge
    C   C1   0.704214  0.997238  0.175569  -0.052253
    C   C2   0.296032  0.003559  0.835362  -0.055951
    C   C3   0.809741  0.006147  0.188264  -0.171152
    C   C4   0.190502  0.994657  0.822634  -0.191331
    C   C5   0.860884  0.007031  0.051432  0.314066
    C   C6   0.139343  0.993774  0.959451  0.335514
    C   C7   0.805099  0.004705  0.905441  -0.254848
    C   C8   0.195114  0.996096  0.105453  -0.265674
    H   H1   0.842239  0.011999  0.798649  0.173429
    H   H2   0.157962  0.988801  0.212235  0.172206
    C   C9   0.700854  0.994656  0.895700  -0.069669
    C   C10  0.299359  0.006141  0.115221  -0.058928
    C   C11  0.653037  0.986512  0.030385  -0.116458
    C   C12  0.347193  0.014283  0.980554  -0.121081
    C   C13  0.972644  0.016812  0.058569  -0.235059
    C   C14  0.027581  0.983999  0.952292  -0.257534
    H   H3   0.010204  0.053443  0.148105  0.153782
    H   H4   0.990021  0.947370  0.862753  0.152140
    H   H5   0.572790  0.974933  0.022252  0.108581
    H   H6   0.427442  0.025857  0.988710  0.108670
    O   O1   0.603221  0.933713  0.353356  -0.753812
    O   O2   0.397044  0.067100  0.657622  -0.773244
    O   O3   0.389870  0.935540  0.653551  -0.749981
    O   O4   0.610396  0.065238  0.357428  -0.736092
    C   C15  0.641163  0.998625  0.308773  0.917658
    C   C16  0.359100  0.002171  0.702182  0.952511
    O   O5   0.399882  0.068300  0.322561  -0.755826
    O   O6   0.600331  0.932476  0.688370  -0.758379
    O   O7   0.607577  0.064087  0.690406  -0.725249
    O   O8   0.392636  0.936727  0.320526  -0.722854
    C   C17  0.363112  0.003729  0.264371  0.945870
    C   C18  0.637087  0.997067  0.746559  0.948527
    Zn  Zn1  0.503856  0.086674  0.507331  1.068411
    Zn  Zn2  0.496370  0.914121  0.503571  1.057646
    C   C19  0.416537  0.223970  0.482692  -0.268927
    C   C20  0.583784  0.776800  0.526642  -0.289368
    C   C21  0.594176  0.225622  0.534444  -0.305129
    C   C22  0.406111  0.775258  0.474291  -0.356822
    N   N1   0.506069  0.186718  0.509105  0.200570
    N   N2   0.494162  0.814077  0.501666  0.218288
    C   C23  0.322364  0.340531  0.450747  -0.362619
    C   C24  0.678657  0.660199  0.549122  -0.403481
    C   C25  0.683608  0.344176  0.557261  -0.296207
    C   C26  0.316704  0.656785  0.445555  -0.405523
    C   C27  0.413963  0.302680  0.478454  0.302162
    C   C28  0.586726  0.698077  0.524905  0.355325
    C   C29  0.593670  0.304424  0.531508  0.278321
    C   C30  0.406750  0.696451  0.472780  0.393356
    C   C31  0.503205  0.343200  0.502225  -0.088465
    C   C32  0.497525  0.657638  0.498403  -0.193868
    C   C33  0.228484  0.458436  0.419135  -0.092079
    C   C34  0.773928  0.542151  0.563680  -0.232523
    C   C35  0.774305  0.463118  0.568252  -0.068136
    C   C36  0.226601  0.537208  0.423162  -0.144583
    C   C37  0.320159  0.419570  0.444955  0.191996
    C   C38  0.681642  0.581132  0.544322  0.255875
    C   C39  0.683466  0.423150  0.550056  0.114247
    C   C40  0.316944  0.577760  0.448331  0.236551
    C   C41  0.410171  0.460150  0.471548  0.014862
    C   C42  0.591083  0.540704  0.521784  -0.047742
    C   C43  0.592182  0.461969  0.523668  0.050200
    C   C44  0.408649  0.538948  0.472548  -0.048042
    C   C45  0.501821  0.421848  0.499253  -0.012658
    C   C46  0.499105  0.579036  0.497681  0.073691
    H   H7   0.346353  0.191834  0.463892  0.206114
    H   H8   0.653898  0.808930  0.546698  0.209962
    H   H9   0.665342  0.194875  0.555775  0.218429
    H   H10  0.334913  0.806070  0.454233  0.236709
    H   H11  0.253387  0.307077  0.436501  0.183153
    H   H12  0.746833  0.693634  0.575693  0.188155
    H   H13  0.752775  0.312103  0.585805  0.196908
    H   H14  0.247358  0.688962  0.420226  0.189929
    N   N3   0.865319  0.009410  0.339890  0.573115
    O   O9   0.955455  0.978664  0.361757  -0.331879
    O   O10  0.820090  0.031468  0.461337  -0.356706
    N   N4   0.134941  0.991399  0.670995  0.586403
    O   O11  0.044804  0.022140  0.649109  -0.337321
    O   O12  0.180186  0.969345  0.549559  -0.362978
    N   N5   0.134426  0.417994  0.401252  0.469375
    O   O13  0.060842  0.438976  0.483376  -0.184515
    O   O14  0.115797  0.370671  0.284857  -0.282659
    N   N6   0.868384  0.582537  0.565875  0.685534
    O   O15  0.947270  0.559531  0.656168  -0.324384
    O   O16  0.881115  0.632652  0.457011  -0.350019
    N   N7   0.868225  0.422484  0.572851  0.693591
    O   O17  0.882870  0.376095  0.458065  -0.374441
    O   O18  0.923439  0.415010  0.706178  -0.355519
    N   N8   0.131078  0.575956  0.398299  0.593133
    O   O19  0.064310  0.553894  0.285774  -0.305450
    O   O20  0.103526  0.623250  0.503979  -0.317544
