data_DB0-m3_o11_o28_f0_pcu.sym.92_repeat
_audit_creation_date              2024-02-23
_audit_creation_method            'Materials Studio'
_symmetry_space_group_name_H-M    'P1'
_symmetry_Int_Tables_number       1
_symmetry_cell_setting            triclinic
loop_
_symmetry_equiv_pos_as_xyz
  x,y,z
_cell_length_a                    23.4478
_cell_length_b                    11.1387
_cell_length_c                    9.9078
_cell_angle_alpha                 89.9974
_cell_angle_beta                  89.9814
_cell_angle_gamma                 90.0113
loop_
_atom_site_label
_atom_site_type_symbol
_atom_site_fract_x
_atom_site_fract_y
_atom_site_fract_z
_atom_site_U_iso_or_equiv
_atom_site_adp_type
_atom_site_occupancy
O1     O     0.49941   0.33058   0.59747   0.00000  Uiso   1.00
O2     O     0.50130   0.32949   0.36503   0.00000  Uiso   1.00
C1     C     0.50019   0.27396   0.48160   0.00000  Uiso   1.00
O3     O     0.41424   0.50960   0.58771   0.00000  Uiso   1.00
O4     O     0.41612   0.50822   0.35533   0.00000  Uiso   1.00
C2     C     0.38843   0.50881   0.47044   0.00000  Uiso   1.00
Zn1    Zn    0.49862   0.50990   0.63128   0.00000  Uiso   1.00
Zn2    Zn    0.50155   0.50776   0.32427   0.00000  Uiso   1.00
O5     O     0.49949   0.68805   0.59104   0.00000  Uiso   1.00
O6     O     0.50135   0.68741   0.35761   0.00000  Uiso   1.00
O7     O     0.58408   0.50968   0.60062   0.00000  Uiso   1.00
O8     O     0.58599   0.50838   0.36742   0.00000  Uiso   1.00
C3     C     0.50027   0.74361   0.47449   0.00000  Uiso   1.00
C4     C     0.61172   0.50896   0.48514   0.00000  Uiso   1.00
C5     C     0.88122   0.60591   0.54461   0.00000  Uiso   1.00
N1     N     0.85344   0.51208   0.48907   0.00000  Uiso   1.00
C6     C     0.88193   0.42093   0.43115   0.00000  Uiso   1.00
C7     C     0.94064   0.42198   0.42673   0.00000  Uiso   1.00
C8     C     0.97041   0.51618   0.48373   0.00000  Uiso   1.00
C9     C     0.94107   0.60982   0.54549   0.00000  Uiso   1.00
C10    C     0.96961   0.32856   0.36557   0.00000  Uiso   1.00
C11    C     0.02817   0.32890   0.36048   0.00000  Uiso   1.00
C12    C     0.05829   0.42271   0.41680   0.00000  Uiso   1.00
C13    C     0.02941   0.51571   0.47830   0.00000  Uiso   1.00
C14    C     0.06004   0.60799   0.53439   0.00000  Uiso   1.00
C15    C     0.03175   0.70111   0.59669   0.00000  Uiso   1.00
C16    C     0.97284   0.70360   0.60415   0.00000  Uiso   1.00
C17    C     0.11729   0.42338   0.41315   0.00000  Uiso   1.00
N2     N     0.14671   0.51463   0.46915   0.00000  Uiso   1.00
C18    C     0.11907   0.60650   0.52893   0.00000  Uiso   1.00
O9     O     0.84973   0.69633   0.59398   0.00000  Uiso   1.00
O10    O     0.85284   0.32787   0.37905   0.00000  Uiso   1.00
H1     H     0.94713   0.25400   0.32048   0.00000  Uiso   1.00
H2     H     0.04962   0.25475   0.31186   0.00000  Uiso   1.00
O11    O     0.14557   0.33113   0.35693   0.00000  Uiso   1.00
O12    O     0.14917   0.69796   0.58140   0.00000  Uiso   1.00
H3     H     0.05603   0.77279   0.64223   0.00000  Uiso   1.00
C19    C     0.23733   0.51057   0.34817   0.00000  Uiso   1.00
H4     H     0.21464   0.51159   0.25322   0.00000  Uiso   1.00
C20    C     0.29621   0.50923   0.34823   0.00000  Uiso   1.00
H5     H     0.31853   0.50834   0.25280   0.00000  Uiso   1.00
C21    C     0.32585   0.50951   0.46894   0.00000  Uiso   1.00
C22    C     0.29592   0.51091   0.58927   0.00000  Uiso   1.00
H6     H     0.31783   0.51078   0.68517   0.00000  Uiso   1.00
C23    C     0.23717   0.51250   0.58890   0.00000  Uiso   1.00
H7     H     0.21438   0.51255   0.68377   0.00000  Uiso   1.00
C24    C     0.20759   0.51259   0.46854   0.00000  Uiso   1.00
C25    C     0.76256   0.51009   0.60871   0.00000  Uiso   1.00
H8     H     0.78510   0.50911   0.70389   0.00000  Uiso   1.00
C26    C     0.70371   0.50928   0.60800   0.00000  Uiso   1.00
H9     H     0.68125   0.50844   0.70324   0.00000  Uiso   1.00
C27    C     0.67430   0.50937   0.48698   0.00000  Uiso   1.00
C28    C     0.70448   0.51008   0.36695   0.00000  Uiso   1.00
H10    H     0.68273   0.51048   0.27083   0.00000  Uiso   1.00
C29    C     0.76324   0.51080   0.36797   0.00000  Uiso   1.00
H11    H     0.78625   0.51262   0.27341   0.00000  Uiso   1.00
C30    C     0.79256   0.51091   0.48870   0.00000  Uiso   1.00
C31    C     0.50114   0.94348   0.36867   0.00000  Uiso   1.00
C32    C     0.50036   0.87503   0.47960   0.00000  Uiso   1.00
H12    H     0.50179   0.90068   0.27047   0.00000  Uiso   1.00
H13    H     0.49969   0.91341   0.57948   0.00000  Uiso   1.00
C33    C     0.50113   0.07658   0.37151   0.00000  Uiso   1.00
C34    C     0.50026   0.14240   0.48490   0.00000  Uiso   1.00
H14    H     0.50182   0.12182   0.27473   0.00000  Uiso   1.00
H15    H     0.49952   0.10214   0.58388   0.00000  Uiso   1.00
C35    C     0.53060   0.57971   0.90213   0.00000  Uiso   1.00
N3     N     0.49627   0.51400   0.83303   0.00000  Uiso   1.00
H16    H     0.56242   0.63305   0.85015   0.00000  Uiso   1.00
H17    H     0.46202   0.47779   0.88321   0.00000  Uiso   1.00
C36    C     0.52595   0.58981   0.05072   0.00000  Uiso   1.00
N4     N     0.50470   0.50482   0.12255   0.00000  Uiso   1.00
H18    H     0.54310   0.66880   0.09998   0.00000  Uiso   1.00
H19    H     0.49580   0.42563   0.07385   0.00000  Uiso   1.00
C37    C     0.94740   0.80800   0.67898   0.00000  Uiso   1.00
C38    C     0.92174   0.76686   0.80891   0.00000  Uiso   1.00
C39    C     0.89697   0.84556   0.89101   0.00000  Uiso   1.00
H20    H     0.91606   0.85664   0.61567   0.00000  Uiso   1.00
H21    H     0.98101   0.87422   0.70408   0.00000  Uiso   1.00
H22    H     0.92352   0.67286   0.83699   0.00000  Uiso   1.00
H23    H     0.89518   0.93974   0.86371   0.00000  Uiso   1.00
H24    H     0.87851   0.81550   0.98547   0.00000  Uiso   1.00
