# Generated by REPEAT Assigner based on pymatgen
data_DB0-m3_o440_o13_f0_fsc.sym.78_sqe
_audit_creation_date              2022-05-24
_audit_creation_method            REPEAT_Assigner
_cell_length_a                    13.479019
_cell_length_b                    8.548616
_cell_length_c                    11.404712
_cell_angle_alpha                 90.000000
_cell_angle_beta                  94.936258
_cell_angle_gamma                 90.000000
_cell_volume                      1309.256133
_symmetry_space_group_name_H-M    P1
_symmetry_Int_Tables_number       1
loop_
    _symmetry_equiv_pos_site_id
    _symmetry_equiv_pos_as_xyz
    1  x,y,z
loop_
    _atom_site_type_symbol
    _atom_site_label
    _atom_site_fract_x
    _atom_site_fract_y
    _atom_site_fract_z
    _atom_type_partial_charge
    C   C1   0.304573  0.141684  0.007827  0.034729
    C   C2   0.695353  0.862185  0.992223  0.139159
    C   C3   0.695426  0.141684  0.992173  0.034729
    C   C4   0.304646  0.862185  0.007777  0.139165
    C   C5   0.201894  0.142441  0.996909  -0.188331
    C   C6   0.798002  0.861242  0.004047  -0.166304
    C   C7   0.798105  0.142441  0.003091  -0.188332
    C   C8   0.201997  0.861242  0.995953  -0.166308
    H   H1   0.161575  0.251868  0.992583  0.105868
    H   H2   0.838154  0.751665  0.009807  0.118485
    H   H3   0.838425  0.251868  0.007417  0.105867
    H   H4   0.161846  0.751665  0.990193  0.118487
    C   C9   0.150832  0.001762  0.996306  0.218768
    C   C10  0.849167  0.001762  0.003694  0.218773
    Zn  Zn1  0.486098  0.501913  0.868624  1.000892
    Zn  Zn2  0.513902  0.501913  0.131376  1.000865
    C   C11  0.381047  0.501681  0.654027  -0.120276
    C   C12  0.618953  0.501681  0.345973  -0.120294
    C   C13  0.554671  0.500910  0.652753  -0.079326
    C   C14  0.445329  0.500910  0.347247  -0.079324
    C   C15  0.354039  0.001964  0.021505  -0.333255
    C   C16  0.645961  0.001964  0.978495  -0.333251
    C   C17  0.044552  0.001637  0.998349  -0.153143
    C   C18  0.955447  0.001637  0.001651  -0.153157
    C   C19  0.546017  0.501366  0.530368  0.098563
    C   C20  0.453983  0.501366  0.469632  0.098566
    N   N1   0.527681  0.501869  0.286031  0.012844
    N   N2   0.472319  0.501869  0.713969  0.012831
    H   H5   0.296327  0.503573  0.490518  0.105738
    H   H6   0.703672  0.503573  0.509482  0.105731
    H   H7   0.433186  0.002012  0.039200  0.162650
    H   H8   0.566814  0.002012  0.960800  0.162648
    O   O1   0.410285  0.670820  0.103739  -0.639188
    O   O2   0.589371  0.332570  0.896411  -0.665273
    O   O3   0.589714  0.670820  0.896261  -0.639200
    O   O4   0.410629  0.332570  0.103589  -0.665262
    O   O5   0.384409  0.665818  0.901161  -0.676294
    O   O6   0.616070  0.338681  0.098939  -0.779631
    O   O7   0.615591  0.665818  0.098839  -0.676300
    O   O8   0.383930  0.338681  0.901061  -0.779637
    C   C21  0.364684  0.720146  0.004438  0.739571
    C   C22  0.635402  0.283803  0.995615  0.859673
    C   C23  0.635315  0.720146  0.995561  0.739587
    C   C24  0.364598  0.283803  0.004385  0.859673
    C   C25  0.371070  0.501794  0.532830  -0.085507
    C   C26  0.628930  0.501794  0.467170  -0.085493
    C   C27  0.344970  0.498915  0.286344  0.729460
    O   O9   0.298893  0.621177  0.272200  -0.509962
    N   N3   0.292966  0.353912  0.270446  -0.656996
    H   H9   0.218659  0.379669  0.244134  0.297963
    H   H10  0.295616  0.297352  0.351754  0.249988
    C   C28  0.655029  0.498915  0.713656  0.729458
    O   O10  0.701107  0.621177  0.727800  -0.509958
    N   N4   0.707034  0.353912  0.729554  -0.656980
    H   H11  0.781341  0.379669  0.755866  0.297958
    H   H12  0.704384  0.297352  0.648246  0.249983
    C   C29  0.710938  0.499989  0.286461  0.870124
    O   O11  0.751455  0.623391  0.266168  -0.526390
    N   N5   0.766536  0.358185  0.283913  -0.806116
    H   H13  0.789575  0.344707  0.199487  0.345017
    H   H14  0.718983  0.265935  0.300611  0.296524
    C   C30  0.289062  0.499989  0.713539  0.870126
    O   O12  0.248545  0.623391  0.733832  -0.526396
    N   N6   0.233464  0.358185  0.716087  -0.806118
    H   H15  0.210425  0.344707  0.800513  0.345015
    H   H16  0.281016  0.265935  0.699389  0.296526
