data_DB0-m2_o2_o16_f0_pcu.sym.25_repeat
_audit_creation_date              2024-02-23
_audit_creation_method            'Materials Studio'
_symmetry_space_group_name_H-M    'P1'
_symmetry_Int_Tables_number       1
_symmetry_cell_setting            triclinic
loop_
_symmetry_equiv_pos_as_xyz
  x,y,z
_cell_length_a                    13.5544
_cell_length_b                    13.6296
_cell_length_c                    15.1252
_cell_angle_alpha                 89.9967
_cell_angle_beta                  89.9874
_cell_angle_gamma                 73.7905
loop_
_atom_site_label
_atom_site_type_symbol
_atom_site_fract_x
_atom_site_fract_y
_atom_site_fract_z
_atom_site_U_iso_or_equiv
_atom_site_adp_type
_atom_site_occupancy
O1     O     0.49312   0.42050   0.63019   0.00000  Uiso   1.00
O2     O     0.47830   0.59243   0.62740   0.00000  Uiso   1.00
C1     C     0.48424   0.50774   0.67055   0.00000  Uiso   1.00
O3     O     0.64621   0.37972   0.51146   0.00000  Uiso   1.00
O4     O     0.64171   0.54933   0.50621   0.00000  Uiso   1.00
C2     C     0.69283   0.45245   0.51080   0.00000  Uiso   1.00
Cu1    Cu    0.49768   0.40352   0.50176   0.00000  Uiso   1.00
Cu2    Cu    0.49260   0.60092   0.49954   0.00000  Uiso   1.00
O5     O     0.50908   0.41254   0.37357   0.00000  Uiso   1.00
O6     O     0.50024   0.58313   0.37122   0.00000  Uiso   1.00
O7     O     0.34829   0.45529   0.49787   0.00000  Uiso   1.00
O8     O     0.34401   0.62445   0.48674   0.00000  Uiso   1.00
C3     C     0.50770   0.49648   0.33068   0.00000  Uiso   1.00
C4     C     0.29811   0.55142   0.48899   0.00000  Uiso   1.00
C5     C     0.03638   0.67762   0.40430   0.00000  Uiso   1.00
H1     H     0.17888   0.71439   0.40378   0.00000  Uiso   1.00
H2     H     0.84996   0.68671   0.35717   0.00000  Uiso   1.00
H3     H     0.99924   0.74238   0.36316   0.00000  Uiso   1.00
C6     C     0.18685   0.57685   0.47509   0.00000  Uiso   1.00
C7     C     0.84980   0.34274   0.57881   0.00000  Uiso   1.00
C8     C     0.95187   0.32039   0.60010   0.00000  Uiso   1.00
C9     C     0.01120   0.37989   0.56973   0.00000  Uiso   1.00
C10    C     0.97028   0.46270   0.51399   0.00000  Uiso   1.00
C11    C     0.86738   0.48268   0.48858   0.00000  Uiso   1.00
C12    C     0.02911   0.52661   0.48369   0.00000  Uiso   1.00
C13    C     0.98305   0.60995   0.43099   0.00000  Uiso   1.00
C14    C     0.88417   0.62468   0.40187   0.00000  Uiso   1.00
C15    C     0.82843   0.55967   0.42727   0.00000  Uiso   1.00
C16    C     0.13319   0.50988   0.50341   0.00000  Uiso   1.00
C17    C     0.13751   0.66236   0.42767   0.00000  Uiso   1.00
C18    C     0.80561   0.42429   0.52340   0.00000  Uiso   1.00
H4     H     0.17643   0.44473   0.53991   0.00000  Uiso   1.00
H5     H     0.08913   0.35840   0.59305   0.00000  Uiso   1.00
H6     H     0.98537   0.25750   0.64427   0.00000  Uiso   1.00
H7     H     0.75425   0.57115   0.39696   0.00000  Uiso   1.00
C19    C     0.46778   0.42632   0.90480   0.00000  Uiso   1.00
H8     H     0.44931   0.36365   0.93843   0.00000  Uiso   1.00
C20    C     0.46468   0.42908   0.81368   0.00000  Uiso   1.00
H9     H     0.44520   0.36783   0.77879   0.00000  Uiso   1.00
C21    C     0.48472   0.50924   0.76783   0.00000  Uiso   1.00
C22    C     0.50896   0.58697   0.81517   0.00000  Uiso   1.00
C23    C     0.51231   0.58356   0.90633   0.00000  Uiso   1.00
H10    H     0.53465   0.64302   0.94148   0.00000  Uiso   1.00
C24    C     0.49185   0.50355   0.95196   0.00000  Uiso   1.00
C25    C     0.46437   0.58990   0.09789   0.00000  Uiso   1.00
H11    H     0.43144   0.66240   0.06566   0.00000  Uiso   1.00
C26    C     0.46981   0.58760   0.18890   0.00000  Uiso   1.00
H12    H     0.44161   0.65849   0.22482   0.00000  Uiso   1.00
C27    C     0.50736   0.49615   0.23331   0.00000  Uiso   1.00
C28    C     0.54093   0.40656   0.18493   0.00000  Uiso   1.00
C29    C     0.53549   0.40924   0.09364   0.00000  Uiso   1.00
H13    H     0.56429   0.33893   0.05706   0.00000  Uiso   1.00
C30    C     0.49674   0.50073   0.04935   0.00000  Uiso   1.00
C31    C     0.54965   0.88159   0.43845   0.00000  Uiso   1.00
H14    H     0.59450   0.90734   0.38923   0.00000  Uiso   1.00
C32    C     0.54639   0.78136   0.43831   0.00000  Uiso   1.00
H15    H     0.58966   0.72958   0.38911   0.00000  Uiso   1.00
N1     N     0.48816   0.74887   0.49741   0.00000  Uiso   1.00
C33    C     0.43182   0.81415   0.55743   0.00000  Uiso   1.00
H16    H     0.38283   0.78852   0.60295   0.00000  Uiso   1.00
C34    C     0.43466   0.91462   0.55998   0.00000  Uiso   1.00
H17    H     0.38688   0.96779   0.60608   0.00000  Uiso   1.00
C35    C     0.49697   0.94773   0.50221   0.00000  Uiso   1.00
C36    C     0.54885   0.09221   0.57095   0.00000  Uiso   1.00
C37    C     0.54902   0.19336   0.56920   0.00000  Uiso   1.00
H18    H     0.58710   0.22230   0.62157   0.00000  Uiso   1.00
N2     N     0.50132   0.25573   0.50395   0.00000  Uiso   1.00
C38    C     0.45644   0.21906   0.43682   0.00000  Uiso   1.00
H19    H     0.41803   0.26907   0.38423   0.00000  Uiso   1.00
C39    C     0.45576   0.11817   0.43585   0.00000  Uiso   1.00
H20    H     0.41826   0.08984   0.38247   0.00000  Uiso   1.00
C40    C     0.50064   0.05411   0.50370   0.00000  Uiso   1.00
N3     N     0.53492   0.66901   0.77132   0.00000  Uiso   1.00
H21    H     0.48451   0.73721   0.79374   0.00000  Uiso   1.00
H22    H     0.60924   0.66764   0.79076   0.00000  Uiso   1.00
N4     N     0.58382   0.31119   0.22792   0.00000  Uiso   1.00
H23    H     0.65884   0.28148   0.20499   0.00000  Uiso   1.00
H24    H     0.54099   0.26173   0.20935   0.00000  Uiso   1.00
N5     N     0.60133   0.02847   0.64059   0.00000  Uiso   1.00
H25    H     0.54833   0.00216   0.67685   0.00000  Uiso   1.00
H26    H     0.65590   0.96684   0.61228   0.00000  Uiso   1.00
N6     N     0.78959   0.28450   0.61927   0.00000  Uiso   1.00
H27    H     0.79586   0.29089   0.68772   0.00000  Uiso   1.00
H28    H     0.82088   0.20806   0.60146   0.00000  Uiso   1.00
