# Generated by REPEAT Assigner based on pymatgen
data_DB0-m2_o13_o16_f0_pcu.sym.72_sqe
_audit_creation_date              2022-05-24
_audit_creation_method            REPEAT_Assigner
_cell_length_a                    11.539865
_cell_length_b                    12.969988
_cell_length_c                    13.590151
_cell_angle_alpha                 91.381089
_cell_angle_beta                  78.787785
_cell_angle_gamma                 99.476953
_cell_volume                      1967.944002
_symmetry_space_group_name_H-M    P1
_symmetry_Int_Tables_number       1
loop_
    _symmetry_equiv_pos_site_id
    _symmetry_equiv_pos_as_xyz
    1  x,y,z
loop_
    _atom_site_type_symbol
    _atom_site_label
    _atom_site_fract_x
    _atom_site_fract_y
    _atom_site_fract_z
    _atom_type_partial_charge
    O   O1   0.423425  0.654949  0.476655  -0.589088
    O   O2   0.621312  0.668573  0.488702  -0.591342
    C   C1   0.527927  0.710628  0.480751  0.703881
    O   O3   0.363308  0.503538  0.630986  -0.519944
    O   O4   0.562750  0.528364  0.639475  -0.575092
    C   C2   0.449468  0.515025  0.682758  0.620529
    Cu  Cu1  0.389074  0.502502  0.484585  0.772764
    Cu  Cu2  0.620100  0.518139  0.495210  0.913479
    O   O5   0.389522  0.352261  0.487481  -0.498288
    O   O6   0.584284  0.365777  0.507255  -0.592606
    O   O7   0.446494  0.496027  0.339992  -0.603246
    O   O8   0.645452  0.512610  0.348945  -0.626853
    C   C3   0.480023  0.309621  0.501414  0.640492
    C   C4   0.559313  0.502126  0.297516  0.730933
    C   C5   0.715881  0.435321  0.044703  -0.250040
    H   H1   0.756345  0.440045  0.190619  0.103352
    H   H2   0.735150  0.387741  0.856889  0.141113
    H   H3   0.795972  0.404155  0.012197  0.127750
    C   C6   0.589339  0.490836  0.188398  -0.116945
    C   C7   0.313621  0.560740  0.831492  -0.065585
    C   C8   0.282804  0.578275  0.932169  -0.119338
    C   C9   0.354608  0.557745  0.996368  -0.178819
    C   C10  0.457999  0.514840  0.961371  0.039120
    C   C11  0.486903  0.493583  0.858908  0.175970
    C   C12  0.533482  0.493067  0.025735  -0.010754
    C   C13  0.636024  0.452270  0.985696  0.268278
    C   C14  0.658533  0.424844  0.886627  -0.275829
    C   C15  0.583258  0.442151  0.824639  -0.190467
    C   C16  0.510065  0.509892  0.129169  -0.102560
    C   C17  0.693862  0.456087  0.145442  -0.067991
    C   C18  0.416663  0.520956  0.793105  -0.111174
    H   H4   0.430795  0.537719  0.167196  0.100703
    H   H5   0.257897  0.582309  0.782608  0.086411
    H   H6   0.324990  0.577013  0.073417  0.133503
    H   H7   0.202904  0.611286  0.961010  0.107993
    H   H8   0.601911  0.411983  0.749814  0.151823
    C   C19  0.465215  0.194403  0.507441  -0.086517
    C   C20  0.539531  0.824786  0.479710  -0.062711
    C   C21  0.660253  0.994577  0.460353  -0.254595
    C   C22  0.650958  0.887050  0.459764  -0.071014
    C   C23  0.438200  0.871006  0.501690  -0.244817
    C   C24  0.448003  0.978335  0.504505  0.271358
    C   C25  0.558485  0.040372  0.483104  0.177639
    C   C26  0.567011  0.147858  0.484103  -0.229297
    C   C27  0.353071  0.130403  0.534004  0.091914
    C   C28  0.346486  0.023078  0.530469  -0.375956
    H   H9   0.654358  0.195497  0.464335  0.128203
    H   H10  0.747738  0.042539  0.443632  0.137863
    H   H11  0.260851  0.972612  0.549448  0.158869
    H   H12  0.731560  0.852536  0.442321  0.099856
    H   H13  0.350586  0.823462  0.519309  0.129666
    N   N1   0.216108  0.490427  0.476452  -0.020873
    N   N2   0.793105  0.529926  0.503115  -0.083124
    C   C29  0.955790  0.610402  0.575748  -0.298853
    C   C30  0.837715  0.600564  0.566244  0.073859
    C   C31  0.862268  0.465459  0.450618  -0.135742
    C   C32  0.981037  0.473826  0.458343  0.206429
    C   C33  0.028235  0.546651  0.521043  0.209892
    C   C34  0.146904  0.554828  0.528987  -0.170239
    C   C35  0.171797  0.420394  0.412685  0.132923
    C   C36  0.053650  0.410389  0.403320  -0.353683
    H   H14  0.184045  0.612115  0.578319  0.169564
    H   H15  0.228592  0.370664  0.369009  0.082797
    H   H16  0.990681  0.667893  0.626023  0.148720
    H   H17  0.018879  0.353152  0.352771  0.154326
    H   H18  0.781158  0.650784  0.609433  0.102199
    H   H19  0.825019  0.407963  0.401516  0.172526
    C   C37  0.237496  0.170797  0.570125  -0.024474
    C   C38  0.240332  0.228970  0.666000  0.027992
    C   C39  0.145959  0.270835  0.710309  -0.506630
    H   H20  0.162302  0.104545  0.585127  0.046072
    H   H21  0.217094  0.219710  0.512133  0.042936
    H   H22  0.318522  0.236355  0.700389  0.074038
    H   H23  0.067170  0.263343  0.676689  0.179008
    H   H24  0.147733  0.312565  0.780212  0.167742
