# Generated by REPEAT Assigner based on pymatgen
data_DB0-m2_o5_o24_f0_nbo.sym.124
_audit_creation_date              2022-05-24
_audit_creation_method            REPEAT_Assigner
_cell_length_a                    18.408651
_cell_length_b                    18.407040
_cell_length_c                    21.357588
_cell_angle_alpha                 90.000000
_cell_angle_beta                  90.000000
_cell_angle_gamma                 90.000000
_cell_volume                      7236.992492
_symmetry_space_group_name_H-M    P1
_symmetry_Int_Tables_number       1
loop_
    _symmetry_equiv_pos_site_id
    _symmetry_equiv_pos_as_xyz
    1  x,y,z
loop_
    _atom_site_type_symbol
    _atom_site_label
    _atom_site_fract_x
    _atom_site_fract_y
    _atom_site_fract_z
    _atom_type_partial_charge
    O   O1    0.431194  0.105410  0.504663  -0.596429
    O   O2    0.431214  0.894263  0.500633  -0.614101
    O   O3    0.931140  0.605422  0.004321  -0.594569
    O   O4    0.931242  0.394274  0.000007  -0.612873
    O   O5    0.556530  0.105496  0.498124  -0.584284
    O   O6    0.556404  0.894281  0.496654  -0.602409
    O   O7    0.056545  0.605478  0.002729  -0.582862
    O   O8    0.056351  0.394253  0.001585  -0.600639
    C   C1    0.493853  0.139214  0.501763  0.868215
    C   C2    0.493784  0.860471  0.498252  0.827338
    C   C3    0.993772  0.639200  0.001033  0.863237
    C   C4    0.993832  0.360537  0.997599  0.823696
    O   O9    0.430791  0.000194  0.591141  -0.564759
    O   O10   0.431656  0.004999  0.409179  -0.589950
    O   O11   0.931137  0.500035  0.090878  -0.566604
    O   O12   0.931262  0.505168  0.908922  -0.587463
    O   O13   0.556042  0.001726  0.590977  -0.595725
    O   O14   0.556893  0.003392  0.408930  -0.572456
    O   O15   0.056545  0.501922  0.090872  -0.575488
    O   O16   0.056366  0.503213  0.908822  -0.592182
    C   C5    0.493491  0.996986  0.620046  0.512395
    C   C6    0.494154  0.001488  0.379949  0.513415
    C   C7    0.993889  0.496985  0.119835  0.555958
    C   C8    0.993721  0.501494  0.879747  0.473890
    Cu  Cu1   0.421429  0.999899  0.500078  1.004464
    Cu  Cu2   0.921393  0.499906  0.999837  1.002201
    Cu  Cu3   0.566247  0.999856  0.499963  0.995662
    Cu  Cu4   0.066249  0.499871  0.999824  0.993367
    C   C9    0.510067  0.059551  0.730930  -0.033202
    C   C10   0.542130  0.053057  0.272224  -0.032251
    C   C11   0.510383  0.940177  0.268784  -0.059307
    C   C12   0.541718  0.946625  0.727928  -0.039032
    C   C13   0.010057  0.559590  0.230742  -0.042322
    C   C14   0.041975  0.552947  0.772067  -0.033734
    C   C15   0.009991  0.440138  0.768602  -0.056644
    C   C16   0.042168  0.446794  0.227752  -0.041835
    C   C17   0.558085  0.010550  0.770849  -0.155781
    C   C18   0.558367  0.989352  0.229018  -0.155384
    C   C19   0.058229  0.510777  0.270695  -0.144909
    C   C20   0.058144  0.489202  0.728885  -0.161389
    H   H1    0.612275  0.024651  0.789962  0.061098
    H   H2    0.612506  0.975299  0.209771  0.061807
    H   H3    0.112339  0.525093  0.289856  0.060418
    H   H4    0.112283  0.475030  0.709704  0.061716
    H   H5    0.528139  0.111808  0.710664  0.059154
    H   H6    0.582601  0.091159  0.292238  0.042000
    H   H7    0.528407  0.887787  0.288825  0.063928
    H   H8    0.582133  0.908436  0.707955  0.037974
    H   H9    0.027910  0.611930  0.210492  0.064975
    H   H10   0.082495  0.590968  0.792123  0.040007
    H   H11   0.027824  0.387702  0.788680  0.059257
    H   H12   0.082759  0.408769  0.207809  0.040499
    C   C21   0.492803  0.989983  0.810110  0.340944
    C   C22   0.493023  0.010153  0.189930  0.349398
    C   C23   0.992983  0.489938  0.309897  0.319423
    C   C24   0.992905  0.510141  0.689720  0.369091
    C   C25   0.445039  0.038695  0.770828  0.066609
    C   C26   0.476742  0.073597  0.232595  0.139277
    C   C27   0.445302  0.961277  0.229083  0.048091
    C   C28   0.476406  0.926326  0.767711  0.137893
    C   C29   0.945072  0.538462  0.270582  0.088980
    C   C30   0.976692  0.573625  0.732363  0.127298
    C   C31   0.945021  0.461372  0.728821  0.031161
    C   C32   0.976893  0.426222  0.267476  0.152254
    C   C33   0.427672  0.974856  0.728043  -0.110204
    C   C34   0.428043  0.024882  0.272151  -0.070375
    C   C35   0.928007  0.474563  0.227773  -0.100948
    C   C36   0.927826  0.525018  0.771866  -0.086178
    C   C37   0.493380  0.995286  0.689536  0.180319
    C   C38   0.493822  0.004215  0.310480  0.169159
    C   C39   0.993678  0.495264  0.189325  0.126996
    C   C40   0.993501  0.504216  0.810274  0.224636
    H   H13   0.373400  0.966625  0.706941  0.056420
    H   H14   0.373787  0.033030  0.293306  0.051140
    H   H15   0.873797  0.466114  0.206617  0.052894
    H   H16   0.873562  0.533290  0.792971  0.056114
    C   C41   0.493683  0.217135  0.501955  -0.228290
    C   C42   0.493644  0.782558  0.497954  -0.172911
    C   C43   0.993624  0.717129  0.001784  -0.224230
    C   C44   0.993675  0.282610  0.997879  -0.170713
    C   C45   0.493188  0.282583  0.501803  -0.051032
    C   C46   0.493171  0.717114  0.498036  -0.085595
    C   C47   0.993148  0.782585  0.001902  -0.054126
    C   C48   0.993192  0.217160  0.998224  -0.086181
    O   O17   0.598251  0.937356  0.998734  -0.597793
    O   O18   0.598237  0.062883  0.001236  -0.597147
    O   O19   0.098254  0.437319  0.498567  -0.597826
    O   O20   0.098246  0.562846  0.501063  -0.597341
    C   C49   0.632018  0.000119  0.999985  0.844006
    C   C50   0.132023  0.500081  0.499825  0.844213
    O   O21   0.493791  0.932145  0.911650  -0.463399
    O   O22   0.496969  0.943157  0.093407  -0.496622
    O   O23   0.493866  0.068074  0.088400  -0.466225
    O   O24   0.496855  0.057058  0.906634  -0.501501
    O   O25   0.993840  0.432104  0.411443  -0.465087
    O   O26   0.996924  0.443136  0.593202  -0.495941
    O   O27   0.993827  0.568054  0.588184  -0.464955
    O   O28   0.996918  0.557018  0.406420  -0.500990
    C   C51   0.492101  0.993063  0.879924  0.332487
    C   C52   0.492220  0.007148  0.120121  0.332254
    C   C53   0.992195  0.493021  0.379711  0.338212
    C   C54   0.992168  0.507130  0.619910  0.324786
    Cu  Cu5   0.492704  0.927811  0.002998  0.955228
    Cu  Cu6   0.492681  0.072400  0.997051  0.958716
    Cu  Cu7   0.992704  0.427781  0.502791  0.955667
    Cu  Cu8   0.992692  0.572369  0.496833  0.958327
    O   O29   0.387081  0.937474  0.001341  -0.611354
    O   O30   0.387060  0.062706  0.998794  -0.611980
    O   O31   0.887082  0.437451  0.501093  -0.611696
    O   O32   0.887069  0.562681  0.498534  -0.612489
    C   C55   0.353287  0.000081  0.000091  0.872225
    C   C56   0.853292  0.500059  0.499828  0.874494
    O   O33   0.598355  0.497440  0.553973  -0.534383
    O   O34   0.598360  0.502274  0.445837  -0.534793
    O   O35   0.098334  0.997438  0.054208  -0.535129
    O   O36   0.098370  0.002304  0.946074  -0.534897
    C   C57   0.632110  0.499883  0.499906  0.708297
    C   C58   0.132105  0.999894  0.000149  0.709452
    O   O37   0.495566  0.394716  0.555082  -0.565307
    O   O38   0.495409  0.393793  0.447142  -0.589421
    O   O39   0.495576  0.604995  0.444726  -0.566500
    O   O40   0.495409  0.605916  0.552670  -0.591148
    O   O41   0.995533  0.894721  0.055271  -0.561559
    O   O42   0.995408  0.893834  0.947332  -0.593392
    O   O43   0.995597  0.105034  0.944964  -0.569909
    O   O44   0.995401  0.105930  0.052906  -0.586638
    C   C59   0.492295  0.360501  0.501341  0.719029
    C   C60   0.492298  0.639204  0.498472  0.732397
    C   C61   0.992274  0.860516  0.001518  0.720410
    C   C62   0.992309  0.139238  0.998710  0.731901
    Cu  Cu9   0.492747  0.500439  0.562298  0.976264
    Cu  Cu10  0.492752  0.499272  0.437510  0.976642
    Cu  Cu11  0.992723  0.000445  0.062510  0.971997
    Cu  Cu12  0.992765  0.999315  0.937723  0.979957
    O   O45   0.387159  0.497291  0.553834  -0.568093
    O   O46   0.387165  0.502436  0.445963  -0.568018
    O   O47   0.887138  0.997311  0.054022  -0.567837
    O   O48   0.887176  0.002487  0.946152  -0.567412
    C   C63   0.353338  0.499894  0.499896  0.691206
    C   C64   0.853333  0.999933  0.000078  0.689482
    C   C65   0.709947  0.000097  0.000017  -0.203475
    C   C66   0.209952  0.500056  0.499860  -0.202772
    C   C67   0.275405  0.499986  0.499886  -0.056063
    C   C68   0.775400  0.000028  0.000051  -0.054599
    C   C69   0.275418  0.000043  0.000136  -0.154364
    C   C70   0.775423  0.500027  0.499870  -0.155995
    C   C71   0.709996  0.499962  0.499900  -0.104555
    C   C72   0.209991  0.999974  0.000158  -0.106086
    C   C73   0.385037  0.082896  0.799935  -0.120340
    C   C74   0.385495  0.158537  0.804951  0.252103
    C   C75   0.447082  0.203996  0.782306  -0.331862
    C   C76   0.327431  0.193631  0.832898  -0.249824
    C   C77   0.269198  0.154887  0.855496  -0.078206
    C   C78   0.268919  0.080504  0.851229  -0.114659
    C   C79   0.326797  0.044889  0.824487  -0.106413
    H   H17   0.449101  0.202426  0.730483  0.078592
    H   H18   0.498707  0.184823  0.803330  0.077498
    H   H19   0.439148  0.261344  0.796487  0.094983
    H   H20   0.326795  0.252137  0.837070  0.133760
    H   H21   0.223945  0.182894  0.876882  0.101089
    H   H22   0.223363  0.049886  0.869076  0.100573
    H   H23   0.326128  0.986347  0.823001  0.080680
    C   C80   0.470580  0.151193  0.210728  -0.289240
    C   C81   0.410318  0.195803  0.220739  0.348552
    C   C82   0.344846  0.171174  0.255803  -0.429756
    C   C83   0.410942  0.266455  0.198525  -0.297004
    C   C84   0.470557  0.293515  0.167514  -0.046131
    C   C85   0.530564  0.250408  0.158867  -0.195768
    C   C86   0.530616  0.180072  0.180624  0.020473
    H   H24   0.319544  0.124471  0.231587  0.111874
    H   H25   0.303992  0.215291  0.258003  0.104152
    H   H26   0.360205  0.157184  0.304510  0.122513
    H   H27   0.364691  0.301675  0.205569  0.145109
    H   H28   0.470405  0.348814  0.150494  0.099420
    H   H29   0.577740  0.271695  0.134976  0.113475
    H   H30   0.578395  0.147041  0.173269  0.073982
    C   C87   0.385252  0.917235  0.199867  -0.119228
    C   C88   0.385939  0.841661  0.194169  0.255053
    C   C89   0.447816  0.796145  0.216144  -0.340717
    C   C90   0.327853  0.806709  0.166128  -0.247002
    C   C91   0.269383  0.845526  0.144083  -0.087437
    C   C92   0.268888  0.919855  0.148997  -0.105490
    C   C93   0.326779  0.955341  0.175843  -0.112556
    H   H31   0.450030  0.796966  0.267972  0.081136
    H   H32   0.499279  0.815844  0.195187  0.084417
    H   H33   0.440071  0.738975  0.201365  0.095108
    H   H34   0.327392  0.748254  0.161436  0.134624
    H   H35   0.224121  0.817626  0.122607  0.104568
    H   H36   0.223160  0.950538  0.131561  0.099152
    H   H37   0.325933  0.013861  0.177822  0.078964
    C   C94   0.470256  0.848812  0.789809  -0.277731
    C   C95   0.409881  0.804246  0.780156  0.341233
    C   C96   0.344254  0.828830  0.745284  -0.411232
    C   C97   0.410527  0.733676  0.802562  -0.299487
    C   C98   0.470269  0.706646  0.833411  -0.041868
    C   C99   0.530378  0.749701  0.841705  -0.199189
    C   C100  0.530410  0.819958  0.819758  0.016966
    H   H38   0.319199  0.875725  0.769414  0.107470
    H   H39   0.303289  0.784795  0.743445  0.100657
    H   H40   0.359354  0.842513  0.696453  0.117033
    H   H41   0.364193  0.698492  0.795794  0.145572
    H   H42   0.470131  0.651409  0.850580  0.098818
    H   H43   0.577649  0.728439  0.865473  0.114087
    H   H44   0.578267  0.852953  0.826855  0.078054
    C   C101  0.884888  0.582432  0.299670  -0.131413
    C   C102  0.885198  0.658054  0.304914  0.258876
    C   C103  0.946779  0.703710  0.282543  -0.345827
    C   C104  0.826999  0.692931  0.332847  -0.248354
    C   C105  0.768776  0.653993  0.355219  -0.081450
    C   C106  0.768648  0.579626  0.350739  -0.117353
    C   C107  0.826661  0.544222  0.324008  -0.100051
    H   H45   0.948903  0.702422  0.230718  0.083672
    H   H46   0.998387  0.684489  0.303564  0.080600
    H   H47   0.938744  0.760970  0.296941  0.097504
    H   H48   0.826247  0.751419  0.337192  0.133482
    H   H49   0.723418  0.681832  0.376602  0.103379
    H   H50   0.723109  0.548851  0.368419  0.101757
    H   H51   0.826106  0.485686  0.322363  0.076546
    C   C108  0.970739  0.651233  0.710487  -0.285553
    C   C109  0.910587  0.695998  0.720474  0.346910
    C   C110  0.845036  0.671544  0.755514  -0.424804
    C   C111  0.911405  0.766648  0.698257  -0.298274
    C   C112  0.971107  0.793553  0.667269  -0.045267
    C   C113  0.031009  0.750292  0.658651  -0.195456
    C   C114  0.030867  0.679958  0.680411  0.018790
    H   H52   0.819611  0.624922  0.731277  0.110945
    H   H53   0.804306  0.715774  0.757718  0.103676
    H   H54   0.860339  0.657490  0.804222  0.119427
    H   H55   0.865241  0.801987  0.705281  0.145496
    H   H56   0.971106  0.848852  0.650248  0.099192
    H   H57   0.078253  0.771458  0.634781  0.113717
    H   H58   0.078567  0.646804  0.673080  0.074219
    C   C115  0.884972  0.417404  0.699524  -0.109929
    C   C116  0.885806  0.341868  0.693468  0.250804
    C   C117  0.947832  0.296345  0.715120  -0.331856
    C   C118  0.827744  0.306973  0.665338  -0.249188
    C   C119  0.769164  0.345809  0.643536  -0.084052
    C   C120  0.768538  0.420107  0.648777  -0.104180
    C   C121  0.826400  0.455543  0.675719  -0.118782
    H   H59   0.950062  0.296699  0.766951  0.077656
    H   H60   0.999233  0.316382  0.694289  0.082407
    H   H61   0.940252  0.239287  0.699959  0.093672
    H   H62   0.827395  0.248547  0.660378  0.135212
    H   H63   0.723926  0.317953  0.621982  0.102739
    H   H64   0.722735  0.450810  0.631513  0.098342
    H   H65   0.825449  0.514047  0.677937  0.082284
    C   C122  0.971035  0.348682  0.289562  -0.275434
    C   C123  0.910879  0.303851  0.279806  0.340480
    C   C124  0.845223  0.328149  0.244829  -0.423850
    C   C125  0.911788  0.233281  0.302208  -0.296441
    C   C126  0.971581  0.206513  0.333152  -0.043462
    C   C127  0.031482  0.249832  0.341547  -0.197335
    C   C128  0.031251  0.320091  0.319606  0.014724
    H   H66   0.819895  0.374914  0.268935  0.111643
    H   H67   0.804466  0.283925  0.242901  0.103438
    H   H68   0.860373  0.341928  0.196029  0.121817
    H   H69   0.865624  0.197894  0.295361  0.144942
    H   H70   0.971650  0.151274  0.350317  0.098665
    H   H71   0.078794  0.228776  0.365390  0.113731
    H   H72   0.078947  0.353296  0.326781  0.078609
