# Generated by REPEAT Assigner based on pymatgen
data_DB0-m3_o7_o12_f0_pcu.sym.108
_audit_creation_date              2022-05-24
_audit_creation_method            REPEAT_Assigner
_cell_length_a                    11.249150
_cell_length_b                    17.781230
_cell_length_c                    16.708401
_cell_angle_alpha                 90.000488
_cell_angle_beta                  102.127414
_cell_angle_gamma                 90.000909
_cell_volume                      3267.490912
_symmetry_space_group_name_H-M    P1
_symmetry_Int_Tables_number       1
loop_
    _symmetry_equiv_pos_site_id
    _symmetry_equiv_pos_as_xyz
    1  x,y,z
loop_
    _atom_site_type_symbol
    _atom_site_label
    _atom_site_fract_x
    _atom_site_fract_y
    _atom_site_fract_z
    _atom_type_partial_charge
    O   O1   0.510114  0.388285  0.568039  -0.522100
    O   O2   0.489884  0.611715  0.431960  -0.522104
    O   O3   0.502288  0.387818  0.428668  -0.652770
    O   O4   0.497710  0.612182  0.571331  -0.652823
    C   C1   0.509862  0.352911  0.499007  0.652474
    C   C2   0.490136  0.647089  0.500992  0.652596
    O   O5   0.321259  0.496940  0.545351  -0.684223
    O   O6   0.678738  0.503060  0.454649  -0.684317
    O   O7   0.316778  0.496305  0.406629  -0.674017
    O   O8   0.683220  0.503694  0.593370  -0.674120
    C   C3   0.262327  0.495778  0.468747  0.937042
    C   C4   0.737670  0.504221  0.531253  0.937268
    Zn  Zn1  0.502752  0.499720  0.591779  0.983844
    Zn  Zn2  0.497246  0.500280  0.408220  0.983821
    H   H1   0.886729  0.495962  0.426229  0.087655
    H   H2   0.113268  0.504038  0.573771  0.087657
    C   C5   0.129053  0.495005  0.450837  -0.453679
    C   C6   0.870945  0.504995  0.549163  -0.453741
    C   C7   0.066680  0.499807  0.510244  0.043671
    C   C8   0.933318  0.500192  0.489756  0.043650
    H   H3   0.919279  0.508302  0.612426  0.192927
    H   H4   0.080718  0.491697  0.387574  0.192915
    C   C9   0.567875  0.845982  0.556887  -0.179682
    C   C10  0.432123  0.154018  0.443112  -0.179736
    H   H5   0.630852  0.875930  0.603895  0.166584
    H   H6   0.369146  0.124069  0.396104  0.166576
    C   C11  0.563259  0.768833  0.558957  -0.098012
    C   C12  0.436739  0.231167  0.441042  -0.098151
    H   H7   0.625694  0.739033  0.606081  0.126975
    H   H8   0.374304  0.260966  0.393918  0.127101
    C   C13  0.483730  0.729661  0.499539  0.026110
    C   C14  0.516267  0.270339  0.500461  0.026251
    C   C15  0.405740  0.768950  0.437591  -0.058319
    C   C16  0.594258  0.231050  0.562408  -0.058380
    C   C17  0.411473  0.847226  0.435015  -0.101112
    C   C18  0.588525  0.152773  0.564985  -0.101187
    C   C19  0.493267  0.885373  0.495295  0.209518
    C   C20  0.506731  0.114627  0.504704  0.209673
    C   C21  0.497886  0.966135  0.498452  -0.099249
    C   C22  0.502112  0.033865  0.501548  -0.099361
    C   C23  0.415359  0.465616  0.825004  -0.238487
    C   C24  0.584639  0.534384  0.174995  -0.238629
    H   H9   0.345729  0.436067  0.848263  0.154412
    H   H10  0.654269  0.563933  0.151736  0.154475
    C   C25  0.417372  0.461274  0.743068  0.030451
    C   C26  0.582625  0.538726  0.256932  0.030468
    N   N1   0.505062  0.497445  0.712322  -0.035372
    N   N2   0.494936  0.502555  0.287678  -0.035399
    C   C27  0.590001  0.538435  0.764808  -0.061034
    C   C28  0.409996  0.461564  0.235192  -0.060941
    C   C29  0.591371  0.541654  0.848231  -0.152697
    C   C30  0.408627  0.458346  0.151768  -0.152750
    C   C31  0.502635  0.504286  0.878335  0.372022
    C   C32  0.497363  0.495714  0.121665  0.372134
    C   C33  0.501003  0.501449  0.964093  -0.126932
    C   C34  0.498995  0.498550  0.035907  -0.127004
    C   C35  0.687880  0.584535  0.903256  0.429734
    H   H11  0.776153  0.592371  0.888127  0.003018
    O   O9   0.669454  0.613896  0.965472  -0.392053
    C   C36  0.312118  0.415464  0.096744  0.429753
    H   H12  0.223845  0.407629  0.111872  0.003021
    O   O10  0.330544  0.386104  0.034528  -0.392049
    C   C37  0.315785  0.728818  0.375372  0.333489
    H   H13  0.295124  0.748066  0.312411  0.027319
    O   O11  0.258644  0.675957  0.394638  -0.416473
    C   C38  0.684213  0.271182  0.624628  0.333602
    H   H14  0.704873  0.251934  0.687588  0.027295
    O   O12  0.741354  0.324042  0.605362  -0.416517
    C   C39  0.326763  0.889249  0.371040  0.402275
    H   H15  0.236400  0.867715  0.346306  0.010867
    O   O13  0.357889  0.947502  0.342827  -0.429624
    C   C40  0.673234  0.110751  0.628960  0.402301
    H   H16  0.763597  0.132285  0.653694  0.010856
    O   O14  0.642109  0.052498  0.657172  -0.429629
    C   C41  0.318342  0.417362  0.693306  0.487441
    H   H17  0.230183  0.417532  0.709870  -0.009034
    O   O15  0.337271  0.371849  0.643154  -0.407795
    C   C42  0.681656  0.582638  0.306694  0.487533
    H   H18  0.769815  0.582468  0.290130  -0.009070
    O   O16  0.662727  0.628151  0.356845  -0.407819
    C   C43  0.678300  0.584954  0.734685  0.563511
    H   H19  0.763230  0.560480  0.726696  -0.045049
    O   O17  0.665838  0.653043  0.731651  -0.403605
    C   C44  0.321698  0.415046  0.265314  0.563358
    H   H20  0.236768  0.439520  0.273303  -0.045006
    O   O18  0.334159  0.346957  0.268349  -0.403593
