# Generated by REPEAT Assigner based on pymatgen
data_DB0-m3_o4_o23_f0_pcu.sym.95
_audit_creation_date              2022-05-24
_audit_creation_method            REPEAT_Assigner
_cell_length_a                    15.970423
_cell_length_b                    10.979928
_cell_length_c                    9.832494
_cell_angle_alpha                 90.004533
_cell_angle_beta                  89.989663
_cell_angle_gamma                 89.995526
_cell_volume                      1724.168200
_symmetry_space_group_name_H-M    P1
_symmetry_Int_Tables_number       1
loop_
    _symmetry_equiv_pos_site_id
    _symmetry_equiv_pos_as_xyz
    1  x,y,z
loop_
    _atom_site_type_symbol
    _atom_site_label
    _atom_site_fract_x
    _atom_site_fract_y
    _atom_site_fract_z
    _atom_type_partial_charge
    O   O1   0.504779  0.307467  0.625617  -0.665393
    O   O2   0.504865  0.307466  0.390560  -0.644354
    C   C1   0.505133  0.250572  0.508010  0.740672
    O   O3   0.379553  0.488414  0.624528  -0.644553
    O   O4   0.379749  0.488382  0.389446  -0.652187
    C   C2   0.340788  0.488343  0.506881  0.771149
    Zn  Zn1  0.504275  0.489179  0.662192  1.026552
    Zn  Zn2  0.504544  0.488750  0.352474  1.047453
    O   O5   0.503959  0.670582  0.623974  -0.668970
    O   O6   0.504076  0.670209  0.389285  -0.674259
    O   O7   0.629071  0.489515  0.625106  -0.621037
    O   O8   0.629261  0.489444  0.390243  -0.663983
    C   C3   0.503919  0.727250  0.506364  0.780260
    C   C4   0.668093  0.489758  0.507765  0.789663
    C   C5   0.053284  0.499726  0.653204  -0.159539
    C   C6   0.051369  0.372293  0.444665  -0.141977
    C   C7   0.956449  0.376191  0.436000  -0.036378
    H   H1   0.948582  0.392623  0.686575  0.045958
    H   H2   0.079500  0.422777  0.712566  0.028156
    H   H3   0.077744  0.361107  0.341065  0.020570
    H   H4   0.070854  0.293675  0.508014  0.017939
    H   H5   0.929666  0.293472  0.483985  -0.010319
    H   H6   0.937153  0.377545  0.327678  -0.009967
    C   C8   0.758015  0.490122  0.507989  -0.132470
    C   C9   0.083879  0.489745  0.507455  0.717981
    C   C10  0.958681  0.487577  0.652729  -0.216748
    C   C11  0.925191  0.490147  0.507184  0.702640
    C   C12  0.957105  0.598245  0.426357  0.049712
    C   C13  0.052147  0.597177  0.425110  -0.302965
    C   C14  0.833508  0.490281  0.507947  -0.448576
    C   C15  0.175483  0.489033  0.506553  -0.391304
    C   C16  0.250934  0.488592  0.506582  -0.156832
    H   H7   0.077245  0.683324  0.467005  0.085302
    H   H8   0.074146  0.588158  0.318593  0.048531
    H   H9   0.931634  0.684420  0.466273  -0.013345
    H   H10  0.076616  0.583804  0.700901  0.022857
    H   H11  0.934699  0.590352  0.319983  -0.039147
    C   C17  0.509191  0.048883  0.623717  0.091424
    C   C18  0.505420  0.117084  0.506661  -0.166439
    C   C19  0.501443  0.052762  0.384935  -0.164928
    H   H12  0.498542  0.100282  0.288818  0.128377
    C   C20  0.500925  0.925772  0.384038  -0.036517
    H   H13  0.497982  0.879082  0.287408  0.078002
    C   C21  0.503801  0.860547  0.504996  -0.196455
    C   C22  0.507261  0.927546  0.622438  0.189946
    C   C23  0.512735  0.914518  0.772412  -0.208220
    C   C24  0.513939  0.056482  0.774273  -0.170702
    H   H14  0.454614  0.875919  0.816605  0.073688
    H   H15  0.572142  0.872047  0.806282  0.065477
    H   H16  0.455912  0.094733  0.818910  0.109930
    C   C25  0.443676  0.437079  0.074197  0.182972
    N   N1   0.504318  0.487665  0.149029  -0.108473
    C   C26  0.566624  0.542236  0.078463  -0.005105
    H   H17  0.617185  0.586395  0.132321  0.145908
    C   C27  0.566288  0.542881  0.936032  -0.073452
    H   H18  0.616593  0.587420  0.881974  0.157544
    N   N2   0.503578  0.489198  0.865636  -0.072213
    C   C28  0.443227  0.438038  0.940637  0.163253
    C   C29  0.362712  0.372058  0.927603  -0.138258
    C   C30  0.363290  0.370821  0.087544  -0.160683
    H   H19  0.312342  0.430021  0.884775  0.105711
    H   H20  0.370369  0.280352  0.882202  0.073737
    H   H21  0.313165  0.427978  0.132460  0.110451
    H   H22  0.371499  0.278385  0.130991  0.084431
    C   C31  0.910682  0.565290  0.753718  0.222284
    C   C32  0.920420  0.690994  0.774244  -0.005382
    Cl  Cl1  0.992049  0.783848  0.687613  -0.083540
    C   C33  0.872618  0.749699  0.871249  -0.154224
    C   C34  0.815681  0.687102  0.949185  -0.057269
    C   C35  0.805849  0.564182  0.930482  -0.073379
    C   C36  0.852529  0.504191  0.833726  -0.232536
    H   H23  0.880603  0.846465  0.886809  0.111784
    H   H24  0.779010  0.734387  0.025040  0.089827
    H   H25  0.761311  0.514286  0.991666  0.086535
    H   H26  0.842023  0.407628  0.821333  0.146165
    C   C37  0.593366  0.109335  0.831659  0.371016
    C   C38  0.673373  0.087933  0.779235  -0.069841
    Cl  Cl2  0.693276  0.996761  0.636157  -0.061797
    C   C39  0.742240  0.138899  0.842193  -0.042623
    C   C40  0.733190  0.209913  0.956529  -0.175430
    C   C41  0.654741  0.230864  0.008854  0.027165
    C   C42  0.585489  0.180937  0.946799  -0.402737
    H   H27  0.804102  0.122094  0.801682  0.082567
    H   H28  0.787647  0.248548  0.005501  0.110976
    H   H29  0.647447  0.285858  0.099259  0.067736
    H   H30  0.524492  0.196968  0.990746  0.182208
