# Generated by REPEAT Assigner based on pymatgen
data_DB0-m3_o2_o16_f0_pcu.sym.7_sqe
_audit_creation_date              2022-05-24
_audit_creation_method            REPEAT_Assigner
_cell_length_a                    13.686535
_cell_length_b                    14.030106
_cell_length_c                    15.191724
_cell_angle_alpha                 90.004687
_cell_angle_beta                  89.987498
_cell_angle_gamma                 73.938818
_cell_volume                      2803.302073
_symmetry_space_group_name_H-M    P1
_symmetry_Int_Tables_number       1
loop_
    _symmetry_equiv_pos_site_id
    _symmetry_equiv_pos_as_xyz
    1  x,y,z
loop_
    _atom_site_type_symbol
    _atom_site_label
    _atom_site_fract_x
    _atom_site_fract_y
    _atom_site_fract_z
    _atom_type_partial_charge
    O   O1   0.492934  0.418039  0.635023  -0.679422
    O   O2   0.484849  0.584374  0.635421  -0.687577
    C   C1   0.487725  0.501321  0.676389  0.752973
    O   O3   0.648330  0.379872  0.507221  -0.709941
    O   O4   0.641814  0.545368  0.509697  -0.652361
    C   C2   0.693268  0.451403  0.508379  0.803087
    Zn  Zn1  0.497662  0.390439  0.503980  1.065710
    Zn  Zn2  0.489883  0.609174  0.504316  1.045156
    O   O5   0.500670  0.415749  0.372874  -0.686442
    O   O6   0.496475  0.581210  0.373255  -0.604988
    O   O7   0.345548  0.453848  0.500465  -0.689544
    O   O8   0.339241  0.619929  0.499581  -0.675235
    C   C3   0.499715  0.498255  0.331911  0.680664
    C   C4   0.294853  0.548060  0.498271  0.789721
    C   C5   0.032552  0.683493  0.430689  -0.260134
    H   H1   0.173648  0.718017  0.434295  0.111510
    H   H2   0.846052  0.702037  0.385616  0.132326
    H   H3   0.994523  0.752979  0.399283  0.117177
    C   C6   0.184205  0.573735  0.486839  -0.133345
    C   C7   0.851054  0.334329  0.555633  -0.047937
    C   C8   0.953007  0.307633  0.573525  -0.134158
    C   C9   0.011267  0.369980  0.553191  -0.170426
    C   C10  0.969095  0.460002  0.510634  0.049574
    C   C11  0.865617  0.485253  0.489263  0.200639
    C   C12  0.027297  0.525600  0.489252  -0.007457
    C   C13  0.980184  0.614679  0.448391  0.250762
    C   C14  0.880825  0.635008  0.421961  -0.254553
    C   C15  0.825102  0.569933  0.439515  -0.200745
    C   C16  0.131399  0.505308  0.506538  -0.120872
    C   C17  0.133780  0.663966  0.450970  -0.057084
    C   C18  0.805372  0.423776  0.515575  -0.228024
    H   H4   0.174906  0.436699  0.534897  0.097498
    H   H5   0.806892  0.285426  0.576615  0.105682
    H   H6   0.089639  0.344087  0.572359  0.132496
    H   H7   0.987368  0.238088  0.606369  0.099358
    H   H8   0.750282  0.587301  0.411107  0.124321
    C   C19  0.531131  0.410140  0.907993  0.441521
    C   C20  0.525100  0.411745  0.817307  -0.391583
    H   H9   0.552341  0.342904  0.781527  0.184484
    C   C21  0.489111  0.500324  0.772818  0.011783
    C   C22  0.457513  0.587602  0.819884  -0.144970
    H   H10  0.428710  0.657720  0.786375  0.113162
    C   C23  0.459654  0.585967  0.910656  -0.119350
    H   H11  0.431020  0.654896  0.946021  0.103099
    C   C24  0.495835  0.497419  0.955665  -0.110831
    C   C25  0.526897  0.570205  0.098103  -0.133847
    H   H12  0.551684  0.626428  0.063129  0.106324
    C   C26  0.527135  0.571095  0.188939  -0.201613
    H   H13  0.551128  0.628415  0.222949  0.131542
    C   C27  0.499574  0.498042  0.235490  0.016700
    C   C28  0.469836  0.425333  0.190366  -0.149673
    H   H14  0.445621  0.368789  0.225384  0.129728
    C   C29  0.467173  0.425894  0.099707  -0.115359
    H   H15  0.439333  0.370688  0.066243  0.082943
    C   C30  0.497387  0.497278  0.052666  0.159732
    C   C31  0.565899  0.875065  0.548912  -0.214053
    H   H16  0.628982  0.892086  0.581817  0.129254
    C   C32  0.561224  0.778156  0.547771  0.037871
    H   H17  0.619262  0.721992  0.581408  0.128882
    N   N1   0.486374  0.752767  0.504283  -0.120040
    C   C33  0.414072  0.822517  0.461626  0.348953
    C   C34  0.415015  0.920695  0.463686  -0.293019
    H   H18  0.353947  0.975642  0.432094  0.158439
    C   C35  0.492330  0.947864  0.506370  0.128958
    C   C36  0.464125  0.111158  0.432820  -0.143273
    H   H19  0.437756  0.082338  0.374237  0.118998
    C   C37  0.466577  0.208680  0.433454  -0.053707
    H   H20  0.439480  0.254687  0.376660  0.153102
    N   N2   0.501535  0.246827  0.504187  -0.000808
    C   C38  0.534829  0.190033  0.575426  -0.065828
    H   H21  0.562200  0.221246  0.632204  0.160402
    C   C39  0.532633  0.092299  0.577337  -0.141762
    H   H22  0.556871  0.049529  0.636451  0.122152
    C   C40  0.496523  0.051728  0.505591  0.139773
    O   O9   0.337703  0.797011  0.417886  -0.249611
    C   C41  0.362441  0.797688  0.328742  0.111334
    H   H23  0.445745  0.784054  0.320867  0.006292
    H   H24  0.322409  0.870364  0.299358  -0.003263
    H   H25  0.338546  0.738145  0.294300  0.059630
    O   O10  0.573511  0.321793  0.949541  -0.358444
    C   C42  0.678516  0.307747  0.945116  0.136316
    H   H26  0.695796  0.379897  0.936603  -0.002047
    H   H27  0.710357  0.258299  0.889011  0.004857
    H   H28  0.713943  0.273221  0.007201  0.028439
