# Generated by REPEAT Assigner based on pymatgen
data_DB0-m3_o7_o28_f0_nbo.sym.15
_audit_creation_date              2022-05-24
_audit_creation_method            REPEAT_Assigner
_cell_length_a                    35.539060
_cell_length_b                    35.539094
_cell_length_c                    46.872217
_cell_angle_alpha                 90.000000
_cell_angle_beta                  90.000000
_cell_angle_gamma                 90.000000
_cell_volume                      59200.827963
_symmetry_space_group_name_H-M    P1
_symmetry_Int_Tables_number       1
loop_
    _symmetry_equiv_pos_site_id
    _symmetry_equiv_pos_as_xyz
    1  x,y,z
loop_
    _atom_site_type_symbol
    _atom_site_label
    _atom_site_fract_x
    _atom_site_fract_y
    _atom_site_fract_z
    _atom_type_partial_charge
    O   O1    0.556061  0.968565  0.000729  -0.698331
    O   O2    0.031421  0.556089  0.999441  -0.699071
    O   O3    0.443884  0.031408  0.999490  -0.699331
    O   O4    0.968492  0.443963  0.000773  -0.698269
    O   O5    0.556093  0.033417  0.999250  -0.681907
    O   O6    0.033345  0.443878  0.999301  -0.680492
    O   O7    0.443851  0.966545  0.000559  -0.682017
    O   O8    0.966558  0.556173  0.000503  -0.682736
    O   O9    0.056148  0.466545  0.499441  -0.682109
    O   O10   0.533441  0.056172  0.499498  -0.682673
    O   O11   0.943906  0.533417  0.500751  -0.681900
    O   O12   0.466654  0.943877  0.500699  -0.680378
    O   O13   0.056115  0.531408  0.500511  -0.699343
    O   O14   0.531507  0.943961  0.499227  -0.698149
    O   O15   0.943938  0.468565  0.499271  -0.698293
    O   O16   0.468578  0.056088  0.500560  -0.699067
    C   C1    0.573700  0.000993  0.000005  0.653067
    C   C2    0.999002  0.573755  0.999944  0.655050
    C   C3    0.426244  0.998975  0.000014  0.654079
    C   C4    0.000907  0.426298  0.000069  0.651180
    C   C5    0.073755  0.498976  0.499986  0.654157
    C   C6    0.500997  0.073754  0.500056  0.655009
    C   C7    0.926299  0.500993  0.499996  0.653009
    C   C8    0.499093  0.926297  0.499931  0.650930
    O   O17   0.499297  0.968451  0.957526  -0.710731
    O   O18   0.033310  0.499337  0.957407  -0.694716
    O   O19   0.500570  0.033332  0.957405  -0.694721
    O   O20   0.968430  0.500660  0.957519  -0.711301
    O   O21   0.500917  0.031506  0.042486  -0.713971
    O   O22   0.031467  0.499122  0.042488  -0.713971
    O   O23   0.499110  0.966645  0.042607  -0.699541
    O   O24   0.966608  0.500979  0.042600  -0.699085
    O   O25   0.000889  0.466645  0.457393  -0.699616
    O   O26   0.533391  0.000978  0.457400  -0.699149
    O   O27   0.999082  0.531506  0.457514  -0.714028
    O   O28   0.468532  0.999121  0.457512  -0.714022
    O   O29   0.999429  0.533331  0.542595  -0.694740
    O   O30   0.531569  0.000658  0.542481  -0.711182
    O   O31   0.000702  0.468451  0.542474  -0.710738
    O   O32   0.466689  0.999336  0.542593  -0.694683
    C   C9    0.499902  0.000859  0.944119  0.672001
    C   C10   0.000841  0.500012  0.944117  0.673305
    C   C11   0.500053  0.999107  0.055897  0.681656
    C   C12   0.999066  0.500030  0.055894  0.680180
    C   C13   0.999946  0.499107  0.444103  0.681768
    C   C14   0.500933  0.000028  0.444106  0.680280
    C   C15   0.000097  0.500859  0.555881  0.672088
    C   C16   0.499158  0.000011  0.555883  0.673192
    Zn  Zn1   0.500133  0.957408  0.999950  1.342434
    Zn  Zn2   0.042530  0.500149  0.000069  1.341131
    Zn  Zn3   0.499817  0.042559  0.000067  1.341812
    Zn  Zn4   0.957378  0.499898  0.999943  1.342879
    Zn  Zn5   0.999866  0.457408  0.500050  1.342482
    Zn  Zn6   0.542621  0.999896  0.500057  1.342793
    Zn  Zn7   0.000182  0.542559  0.499933  1.341850
    Zn  Zn8   0.457470  0.000147  0.499931  1.341123
    C   C17   0.522451  0.023891  0.690955  0.470663
    C   C18   0.976553  0.523390  0.691064  0.466989
    C   C19   0.476608  0.976449  0.691067  0.468545
    C   C20   0.023961  0.477513  0.690953  0.470038
    C   C21   0.523591  0.976140  0.308995  0.469834
    C   C22   0.976018  0.476500  0.308986  0.469144
    C   C23   0.477580  0.023419  0.308988  0.471579
    C   C24   0.023330  0.522476  0.308992  0.470522
    C   C25   0.022419  0.523420  0.191013  0.471716
    C   C26   0.476669  0.022476  0.191008  0.470506
    C   C27   0.976408  0.476141  0.191005  0.470032
    C   C28   0.523981  0.976500  0.191015  0.469033
    C   C29   0.023391  0.476450  0.808933  0.468415
    C   C30   0.476038  0.977513  0.809048  0.469559
    C   C31   0.977548  0.523892  0.809046  0.470772
    C   C32   0.523446  0.023390  0.808936  0.466702
    N   N1    0.499496  0.000143  0.676722  -0.135971
    N   N2    0.000237  0.500492  0.676720  -0.134259
    N   N3    0.500619  0.999816  0.323272  -0.137678
    N   N4    0.999706  0.499452  0.323269  -0.135595
    N   N5    0.999380  0.499816  0.176729  -0.137719
    N   N6    0.500293  0.999452  0.176731  -0.135524
    N   N7    0.000503  0.500144  0.823278  -0.135932
    N   N8    0.499762  0.000492  0.823281  -0.134080
    C   C33   0.476094  0.976464  0.720560  -0.134035
    C   C34   0.024052  0.476859  0.720443  -0.138666
    C   C35   0.523089  0.023999  0.720445  -0.138163
    C   C36   0.976551  0.523888  0.720557  -0.134642
    C   C37   0.476975  0.023431  0.279496  -0.136585
    C   C38   0.023351  0.523090  0.279501  -0.136441
    C   C39   0.524065  0.975982  0.279503  -0.136430
    C   C40   0.975867  0.476034  0.279494  -0.138149
    C   C41   0.975934  0.475983  0.220497  -0.136642
    C   C42   0.524132  0.976034  0.220506  -0.138088
    C   C43   0.023024  0.523432  0.220504  -0.136748
    C   C44   0.476648  0.023089  0.220499  -0.136483
    C   C45   0.976910  0.524000  0.779555  -0.138050
    C   C46   0.523448  0.023888  0.779443  -0.134033
    C   C47   0.023905  0.476465  0.779441  -0.133862
    C   C48   0.475947  0.976858  0.779557  -0.137729
    C   C49   0.499620  0.000265  0.735288  0.099196
    C   C50   0.000326  0.500336  0.735286  0.100486
    C   C51   0.500487  0.999671  0.264715  0.099070
    C   C52   0.999577  0.499599  0.264712  0.099872
    C   C53   0.999512  0.499671  0.235286  0.099262
    C   C54   0.500422  0.999598  0.235288  0.099937
    C   C55   0.000379  0.500266  0.764712  0.098696
    C   C56   0.499673  0.000336  0.764715  0.099432
    C   C57   0.452359  0.952705  0.735421  -0.042035
    C   C58   0.047851  0.453039  0.735190  -0.038286
    C   C59   0.546882  0.047824  0.735193  -0.039332
    C   C60   0.952800  0.547632  0.735419  -0.040628
    C   C61   0.453164  0.047174  0.264689  -0.041189
    C   C62   0.047115  0.546886  0.264701  -0.039655
    C   C63   0.547809  0.952166  0.264703  -0.039542
    C   C64   0.952039  0.452310  0.264686  -0.037752
    C   C65   0.952190  0.452167  0.235297  -0.039465
    C   C66   0.547960  0.952310  0.235314  -0.037740
    C   C67   0.046835  0.547174  0.235312  -0.041134
    C   C68   0.452884  0.046886  0.235300  -0.039622
    C   C69   0.953117  0.547825  0.764807  -0.039481
    C   C70   0.547199  0.047631  0.764582  -0.040842
    C   C71   0.047640  0.452706  0.764579  -0.041908
    C   C72   0.452148  0.953039  0.764810  -0.038380
    O   O33   0.544163  0.048168  0.676388  -0.509993
    O   O34   0.952242  0.545192  0.676607  -0.509583
    O   O35   0.454832  0.952115  0.676612  -0.510031
    O   O36   0.048229  0.455791  0.676387  -0.510036
    O   O37   0.545488  0.951996  0.323528  -0.511165
    O   O38   0.951854  0.454615  0.323511  -0.510861
    O   O39   0.455745  0.047632  0.323509  -0.511591
    O   O40   0.047556  0.544289  0.323520  -0.511566
    O   O41   0.044254  0.547633  0.176492  -0.511593
    O   O42   0.452443  0.044289  0.176480  -0.511556
    O   O43   0.954511  0.451996  0.176472  -0.511197
    O   O44   0.548145  0.954615  0.176489  -0.510832
    O   O45   0.045168  0.452116  0.823389  -0.510017
    O   O46   0.451770  0.955791  0.823613  -0.509977
    O   O47   0.955836  0.548168  0.823612  -0.510041
    O   O48   0.547757  0.045192  0.823393  -0.509544
    H   H1    0.433557  0.933736  0.724419  0.137600
    H   H2    0.066761  0.434271  0.724097  0.136296
    H   H3    0.565643  0.066742  0.724099  0.136510
    H   H4    0.933852  0.566454  0.724416  0.137290
    H   H5    0.434378  0.066114  0.275735  0.137301
    H   H6    0.066066  0.565656  0.275753  0.137171
    H   H7    0.566644  0.933280  0.275756  0.136761
    H   H8    0.933136  0.433486  0.275733  0.136311
    H   H9    0.933355  0.433280  0.224245  0.136734
    H   H10   0.566863  0.933486  0.224267  0.136301
    H   H11   0.065621  0.566115  0.224265  0.137275
    H   H12   0.433933  0.065655  0.224248  0.137156
    H   H13   0.934356  0.566742  0.775901  0.136555
    H   H14   0.566147  0.066454  0.775584  0.137332
    H   H15   0.066442  0.433737  0.775582  0.137541
    H   H16   0.433238  0.934271  0.775903  0.136270
    C   C73   0.000186  0.073585  0.000666  0.661922
    C   C74   0.926412  0.000308  0.999413  0.660747
    C   C75   0.999756  0.926467  0.999366  0.665112
    C   C76   0.073531  0.999743  0.000618  0.664625
    C   C77   0.499813  0.573583  0.499334  0.661880
    C   C78   0.426468  0.499741  0.499382  0.664633
    C   C79   0.500242  0.426466  0.500635  0.665121
    C   C80   0.573587  0.500307  0.500587  0.660922
    C   C81   0.493143  0.033516  0.868552  -0.143535
    C   C82   0.967738  0.493436  0.868652  -0.145207
    C   C83   0.506482  0.967743  0.868659  -0.147137
    C   C84   0.033521  0.506727  0.868554  -0.142331
    C   C85   0.493084  0.966533  0.131484  -0.143418
    C   C86   0.966481  0.507056  0.131476  -0.144324
    C   C87   0.507304  0.032120  0.131360  -0.147519
    C   C88   0.032058  0.492788  0.131363  -0.146301
    C   C89   0.992695  0.532120  0.368640  -0.147510
    C   C90   0.467941  0.992787  0.368637  -0.146644
    C   C91   0.006915  0.466533  0.368516  -0.143411
    C   C92   0.533518  0.007055  0.368524  -0.144321
    C   C93   0.993517  0.467743  0.631342  -0.147212
    C   C94   0.466478  0.006726  0.631446  -0.142385
    C   C95   0.006856  0.533516  0.631448  -0.143595
    C   C96   0.532261  0.993435  0.631349  -0.145217
    H   H17   0.487358  0.059326  0.857166  0.140663
    H   H18   0.941857  0.487698  0.857345  0.141566
    H   H19   0.512242  0.941863  0.857355  0.141976
    H   H20   0.059338  0.512495  0.857171  0.140325
    H   H21   0.487022  0.940802  0.142890  0.139996
    H   H22   0.940751  0.513136  0.142878  0.140445
    H   H23   0.513411  0.057916  0.142669  0.141450
    H   H24   0.057845  0.486661  0.142676  0.141161
    H   H25   0.986588  0.557916  0.357332  0.141456
    H   H26   0.442154  0.986660  0.357324  0.141247
    H   H27   0.012977  0.440802  0.357110  0.139994
    H   H28   0.559248  0.013135  0.357122  0.140419
    H   H29   0.987757  0.441863  0.642645  0.141988
    H   H30   0.440661  0.012493  0.642829  0.140339
    H   H31   0.012640  0.559326  0.642834  0.140675
    H   H32   0.558142  0.987697  0.642655  0.141578
    C   C97   0.493454  0.033694  0.897954  -0.088852
    C   C98   0.967732  0.493684  0.898054  -0.087499
    C   C99   0.506233  0.967743  0.898061  -0.086031
    C   C100  0.033692  0.506415  0.897956  -0.088859
    C   C101  0.493256  0.966364  0.102082  -0.089660
    C   C102  0.966319  0.506880  0.102074  -0.090827
    C   C103  0.507021  0.032121  0.101958  -0.086924
    C   C104  0.032066  0.493066  0.101961  -0.087962
    C   C105  0.992978  0.532121  0.398042  -0.086956
    C   C106  0.467933  0.993065  0.398039  -0.087832
    C   C107  0.006744  0.466364  0.397918  -0.089701
    C   C108  0.533680  0.006879  0.397927  -0.090963
    C   C109  0.993766  0.467743  0.601939  -0.085750
    C   C110  0.466307  0.006413  0.602045  -0.088749
    C   C111  0.006545  0.533694  0.602046  -0.088660
    C   C112  0.532267  0.993683  0.601946  -0.087451
    H   H33   0.488074  0.059805  0.909033  0.113811
    H   H34   0.941682  0.488301  0.909214  0.113481
    H   H35   0.511639  0.941700  0.909224  0.113003
    H   H36   0.059804  0.511778  0.909037  0.113583
    H   H37   0.487485  0.940321  0.091025  0.115797
    H   H38   0.940283  0.512665  0.091012  0.116173
    H   H39   0.512749  0.058098  0.090801  0.114938
    H   H40   0.058042  0.487314  0.090809  0.114905
    H   H41   0.987250  0.558098  0.409199  0.114951
    H   H42   0.441957  0.987313  0.409191  0.114905
    H   H43   0.012514  0.440321  0.408975  0.115821
    H   H44   0.559716  0.012664  0.408988  0.116238
    H   H45   0.988361  0.441700  0.590777  0.112921
    H   H46   0.440195  0.011777  0.590963  0.113531
    H   H47   0.011925  0.559805  0.590968  0.113768
    H   H48   0.558317  0.988300  0.590786  0.113449
    C   C113  0.499860  0.000764  0.912868  0.032313
    C   C114  0.000754  0.500034  0.912866  0.031467
    C   C115  0.500111  0.999199  0.087154  0.027039
    C   C116  0.999153  0.499996  0.087152  0.029307
    C   C117  0.999887  0.499199  0.412846  0.027035
    C   C118  0.500846  0.999994  0.412849  0.029260
    C   C119  0.000139  0.500764  0.587132  0.032010
    C   C120  0.499245  0.000033  0.587135  0.031406
    C   C121  0.499797  0.000584  0.853750  0.170525
    C   C122  0.000588  0.500099  0.853748  0.169794
    C   C123  0.500224  0.999369  0.146269  0.174076
    C   C124  0.999307  0.499892  0.146266  0.174841
    C   C125  0.999775  0.499369  0.353731  0.174111
    C   C126  0.500692  0.999891  0.353734  0.175200
    C   C127  0.000202  0.500584  0.646250  0.170501
    C   C128  0.499411  0.000098  0.646252  0.169818
    C   C129  0.826858  0.001623  0.025084  0.612482
    C   C130  0.000354  0.826881  0.024977  0.614749
    C   C131  0.173303  0.000200  0.025809  0.611552
    C   C132  0.001442  0.173326  0.025913  0.611410
    C   C133  0.826640  0.999686  0.974225  0.611306
    C   C134  0.999442  0.173171  0.975056  0.605283
    C   C135  0.173085  0.998533  0.974945  0.615767
    C   C136  0.998623  0.826726  0.974115  0.618314
    C   C137  0.326913  0.498533  0.525055  0.615694
    C   C138  0.501376  0.326724  0.525885  0.618292
    C   C139  0.673359  0.499685  0.525775  0.611134
    C   C140  0.500558  0.673170  0.524944  0.605229
    C   C141  0.326696  0.500199  0.474191  0.611570
    C   C142  0.498557  0.673325  0.474087  0.611399
    C   C143  0.673141  0.501622  0.474917  0.612179
    C   C144  0.499645  0.326880  0.475023  0.614782
    C   C145  0.865646  0.001485  0.025041  -0.513697
    C   C146  0.000480  0.865669  0.024958  -0.515810
    C   C147  0.134516  0.000355  0.025953  -0.512641
    C   C148  0.001324  0.134539  0.026035  -0.512348
    C   C149  0.865427  0.999582  0.974081  -0.513544
    C   C150  0.999358  0.134383  0.975075  -0.509537
    C   C151  0.134297  0.998649  0.974988  -0.516582
    C   C152  0.998710  0.865513  0.973994  -0.517757
    C   C153  0.365702  0.498648  0.525012  -0.516548
    C   C154  0.501289  0.365512  0.526006  -0.517745
    C   C155  0.634572  0.499581  0.525920  -0.513382
    C   C156  0.500641  0.634381  0.524925  -0.509535
    C   C157  0.365483  0.500354  0.474047  -0.512672
    C   C158  0.498675  0.634537  0.473965  -0.512364
    C   C159  0.634353  0.501484  0.474959  -0.513315
    C   C160  0.499519  0.365668  0.475042  -0.515888
    H   H49   0.880334  0.002199  0.045214  0.192591
    H   H50   0.001216  0.880331  0.045141  0.192857
    H   H51   0.120003  0.001080  0.046198  0.191183
    H   H52   0.002075  0.120000  0.046269  0.191760
    H   H53   0.879940  0.998767  0.953837  0.191892
    H   H54   0.998529  0.119720  0.954895  0.192192
    H   H55   0.119609  0.998034  0.954814  0.193038
    H   H56   0.998055  0.880052  0.953758  0.192242
    H   H57   0.380390  0.498033  0.545186  0.193023
    H   H58   0.501943  0.380051  0.546242  0.192234
    H   H59   0.620059  0.498766  0.546163  0.191902
    H   H60   0.501470  0.619719  0.545105  0.192203
    H   H61   0.379996  0.501080  0.453802  0.191177
    H   H62   0.497924  0.619999  0.453731  0.191770
    H   H63   0.619665  0.502198  0.454786  0.192534
    H   H64   0.498783  0.380330  0.454860  0.192871
    C   C161  0.885162  0.000467  0.999514  0.238992
    C   C162  0.999648  0.885217  0.999440  0.239543
    C   C163  0.114781  0.999575  0.000518  0.238241
    C   C164  0.000290  0.114835  0.000591  0.236227
    C   C165  0.385218  0.499574  0.499482  0.238245
    C   C166  0.500350  0.385216  0.500560  0.239590
    C   C167  0.614837  0.500466  0.500487  0.238668
    C   C168  0.499709  0.614833  0.499409  0.236290
    O   O49   0.999288  0.055882  0.976106  -0.687715
    O   O50   0.943922  0.999383  0.974791  -0.670886
    O   O51   0.998934  0.944010  0.974754  -0.672631
    O   O52   0.055796  0.999001  0.976068  -0.688529
    O   O53   0.000645  0.944170  0.023926  -0.689244
    O   O54   0.944147  0.001060  0.023963  -0.687895
    O   O55   0.001019  0.056042  0.025277  -0.671833
    O   O56   0.056021  0.000658  0.025241  -0.672708
    O   O57   0.498980  0.556040  0.474723  -0.671836
    O   O58   0.443978  0.500656  0.474759  -0.672650
    O   O59   0.499354  0.444169  0.476074  -0.689254
    O   O60   0.555852  0.501059  0.476037  -0.687956
    O   O61   0.501065  0.444009  0.525246  -0.672678
    O   O62   0.444203  0.499000  0.523932  -0.688579
    O   O63   0.500711  0.555880  0.523895  -0.687744
    O   O64   0.556076  0.499382  0.525210  -0.670951
    C   C169  0.807358  0.000712  0.999701  -0.428330
    C   C170  0.999434  0.807412  0.999581  -0.434097
    C   C171  0.192585  0.999301  0.000331  -0.430840
    C   C172  0.000493  0.192639  0.000449  -0.423596
    C   C173  0.307414  0.499301  0.499669  -0.430804
    C   C174  0.500565  0.307411  0.500419  -0.434101
    C   C175  0.692641  0.500711  0.500299  -0.428094
    C   C176  0.499506  0.692638  0.499551  -0.423624
    C   C177  0.766997  0.000802  0.999795  0.189127
    C   C178  0.999332  0.767051  0.999653  0.190458
    C   C179  0.232947  0.999197  0.000237  0.189244
    C   C180  0.000590  0.233001  0.000377  0.187547
    C   C181  0.267052  0.499197  0.499763  0.189243
    C   C182  0.500667  0.267050  0.500347  0.190423
    C   C183  0.733002  0.500801  0.500205  0.189068
    C   C184  0.499410  0.733000  0.499623  0.187656
    C   C185  0.733106  0.000859  0.999863  -0.388914
    C   C186  0.999256  0.733161  0.999711  -0.390210
    C   C187  0.266837  0.999129  0.000168  -0.389425
    C   C188  0.000661  0.266892  0.000318  -0.388443
    C   C189  0.233162  0.499129  0.499832  -0.389458
    C   C190  0.500743  0.233159  0.500289  -0.390186
    C   C191  0.766893  0.500859  0.500137  -0.388868
    C   C192  0.499338  0.766890  0.499682  -0.388589
    C   C193  0.673399  0.034454  0.999197  -0.239081
    C   C194  0.965614  0.673482  0.000421  -0.236174
    C   C195  0.326540  0.965520  0.000696  -0.237399
    C   C196  0.034295  0.326572  0.999468  -0.236626
    C   C197  0.673345  0.967388  0.000708  -0.239889
    C   C198  0.967228  0.326680  0.000971  -0.238557
    C   C199  0.326603  0.032596  0.999456  -0.238358
    C   C200  0.032690  0.673371  0.999189  -0.236516
    C   C201  0.173396  0.532596  0.500544  -0.238358
    C   C202  0.467309  0.173370  0.500811  -0.236496
    C   C203  0.826654  0.467387  0.499292  -0.239920
    C   C204  0.532771  0.826679  0.499029  -0.238643
    C   C205  0.173459  0.465520  0.499304  -0.237404
    C   C206  0.465705  0.826571  0.500532  -0.236654
    C   C207  0.826600  0.534453  0.500804  -0.239075
    C   C208  0.534385  0.173480  0.499579  -0.236065
    H   H65   0.688657  0.060750  0.998585  0.157850
    H   H66   0.939325  0.688762  0.000882  0.158033
    H   H67   0.311278  0.939222  0.001204  0.158276
    H   H68   0.060581  0.311293  0.998904  0.157455
    H   H69   0.688561  0.941065  0.001281  0.158038
    H   H70   0.940895  0.311485  0.001586  0.157632
    H   H71   0.311391  0.058924  0.998989  0.158058
    H   H72   0.059028  0.688565  0.998681  0.157911
    H   H73   0.188608  0.558924  0.501011  0.158058
    H   H74   0.440971  0.188563  0.501319  0.157913
    H   H75   0.811439  0.441065  0.498719  0.158062
    H   H76   0.559104  0.811484  0.498415  0.157664
    H   H77   0.188720  0.439222  0.498796  0.158277
    H   H78   0.439418  0.811291  0.501097  0.157460
    H   H79   0.811342  0.560750  0.501416  0.157845
    H   H80   0.560674  0.188761  0.499118  0.157988
    C   C209  0.634607  0.034562  0.999229  -0.153900
    C   C210  0.965475  0.634691  0.000478  -0.157962
    C   C211  0.365332  0.965407  0.000659  -0.156920
    C   C212  0.034431  0.365363  0.999405  -0.155621
    C   C213  0.634556  0.967343  0.000745  -0.152808
    C   C214  0.967212  0.365469  0.000913  -0.153442
    C   C215  0.365392  0.032635  0.999418  -0.155374
    C   C216  0.032704  0.634582  0.999246  -0.157489
    C   C217  0.134607  0.532635  0.500582  -0.155401
    C   C218  0.467295  0.134581  0.500754  -0.157489
    C   C219  0.865444  0.467343  0.499255  -0.152799
    C   C220  0.532787  0.865468  0.499087  -0.153622
    C   C221  0.134667  0.465407  0.499341  -0.156932
    C   C222  0.465568  0.865362  0.500595  -0.155734
    C   C223  0.865391  0.534562  0.500771  -0.153865
    C   C224  0.534524  0.134689  0.499522  -0.158028
    H   H81   0.620030  0.061227  0.998637  0.138957
    H   H82   0.938796  0.620135  0.000990  0.139266
    H   H83   0.379907  0.938737  0.001144  0.139166
    H   H84   0.061106  0.379919  0.998786  0.138830
    H   H85   0.619939  0.940701  0.001355  0.139097
    H   H86   0.940580  0.380107  0.001489  0.139158
    H   H87   0.380011  0.059280  0.998913  0.139506
    H   H88   0.059339  0.619943  0.998774  0.139751
    H   H89   0.119988  0.559280  0.501087  0.139512
    H   H90   0.440660  0.119942  0.501226  0.139756
    H   H91   0.880060  0.440701  0.498646  0.139085
    H   H92   0.559419  0.880105  0.498511  0.139207
    H   H93   0.120092  0.438737  0.498856  0.139184
    H   H94   0.438893  0.879918  0.501215  0.138832
    H   H95   0.879969  0.561226  0.501364  0.138934
    H   H96   0.561203  0.120134  0.499010  0.139284
    C   C225  0.614952  0.000968  0.999999  0.088516
    C   C226  0.999059  0.615007  0.999890  0.092538
    C   C227  0.384991  0.999003  0.000024  0.091736
    C   C228  0.000851  0.385045  0.000129  0.090444
    C   C229  0.115008  0.499003  0.499976  0.091737
    C   C230  0.500940  0.115006  0.500110  0.092556
    C   C231  0.885047  0.500968  0.500001  0.088527
    C   C232  0.499148  0.885044  0.499871  0.090728
    C   C233  0.692756  0.000903  0.999931  0.420153
    C   C234  0.999184  0.692811  0.999776  0.417919
    C   C235  0.307187  0.999078  0.000099  0.418694
    C   C236  0.000731  0.307242  0.000251  0.418155
    C   C237  0.192812  0.499078  0.499901  0.418722
    C   C238  0.500815  0.192809  0.500224  0.417854
    C   C239  0.807243  0.500903  0.500069  0.420132
    C   C240  0.499268  0.807240  0.499750  0.418337
    Zn  Zn9   0.000007  0.000096  0.967740  1.302202
    Zn  Zn10  0.999936  0.999955  0.032292  1.303418
    Zn  Zn11  0.500063  0.499954  0.467708  1.303406
    Zn  Zn12  0.499992  0.500095  0.532261  1.302292
    O   O65   0.807742  0.002668  0.050352  -0.554422
    H   H97   0.805782  0.029785  0.054955  0.356965
    O   O66   0.001131  0.807734  0.050237  -0.553342
    H   H98   0.974385  0.805766  0.055955  0.356645
    O   O67   0.192636  0.000937  0.050989  -0.552856
    H   H99   0.194631  0.974184  0.056680  0.357257
    O   O68   0.002514  0.192628  0.051099  -0.554781
    H   H100  0.029637  0.194629  0.055674  0.357535
    O   O69   0.807307  0.998743  0.949050  -0.553584
    H   H101  0.805155  0.971636  0.944461  0.357035
    O   O70   0.998463  0.192318  0.949800  -0.553031
    H   H102  0.971350  0.194428  0.945221  0.357374
    O   O71   0.192201  0.997681  0.949673  -0.554031
    H   H103  0.194322  0.024422  0.943977  0.356643
    O   O72   0.997747  0.807424  0.948924  -0.554171
    H   H104  0.024483  0.805277  0.943217  0.356864
    O   O73   0.307797  0.497680  0.550327  -0.553990
    H   H105  0.305677  0.524422  0.556023  0.356638
    O   O74   0.502251  0.307423  0.551076  -0.554132
    H   H106  0.475516  0.305276  0.556783  0.356849
    O   O75   0.692692  0.498742  0.550950  -0.553575
    H   H107  0.694843  0.471635  0.555539  0.357036
    O   O76   0.501537  0.692317  0.550200  -0.553008
    H   H108  0.528650  0.694427  0.554779  0.357370
    O   O77   0.307363  0.500937  0.449012  -0.552868
    H   H109  0.305368  0.474184  0.443320  0.357275
    O   O78   0.497485  0.692626  0.448901  -0.554781
    H   H110  0.470362  0.694628  0.444326  0.357545
    O   O79   0.692257  0.502667  0.449649  -0.554387
    H   H111  0.694217  0.529784  0.445046  0.356964
    O   O80   0.498868  0.307732  0.449763  -0.553317
    H   H112  0.525614  0.305765  0.444045  0.356627
