# Generated by REPEAT Assigner based on pymatgen
data_DB0-m3_o16_o46_f0_fsc.sym.4
_audit_creation_date              2022-05-24
_audit_creation_method            REPEAT_Assigner
_cell_length_a                    8.516299
_cell_length_b                    8.820051
_cell_length_c                    12.196845
_cell_angle_alpha                 106.680765
_cell_angle_beta                  90.600135
_cell_angle_gamma                 97.024994
_cell_volume                      870.013523
_symmetry_space_group_name_H-M    P1
_symmetry_Int_Tables_number       1
loop_
    _symmetry_equiv_pos_site_id
    _symmetry_equiv_pos_as_xyz
    1  x,y,z
loop_
    _atom_site_type_symbol
    _atom_site_label
    _atom_site_fract_x
    _atom_site_fract_y
    _atom_site_fract_z
    _atom_type_partial_charge
    C   C1   0.899322  0.810523  0.015399  -0.446879
    C   C2   0.030750  0.746200  0.037025  0.358667
    C   C3   0.179302  0.811463  0.018736  -0.201939
    C   C4   0.201755  0.958207  0.998930  -0.281947
    H   H1   0.319677  0.009519  0.986511  0.141828
    C   C5   0.072676  0.037404  0.994803  0.127957
    C   C6   0.919967  0.960883  0.998874  0.231013
    H   H2   0.672840  0.988531  0.006903  0.104251
    C   C7   0.790759  0.039964  0.994593  -0.281253
    C   C8   0.813253  0.187361  0.975752  0.009869
    H   H3   0.976312  0.363296  0.936283  0.156563
    C   C9   0.962082  0.253434  0.958716  -0.195376
    C   C10  0.093525  0.188249  0.979143  -0.163874
    O   O1   0.692578  0.682499  0.100762  -0.780593
    O   O2   0.677519  0.635101  0.905021  -0.701804
    C   C11  0.744459  0.711470  0.007110  0.996042
    O   O3   0.638075  0.312583  0.890073  -0.734114
    O   O4   0.643546  0.360047  0.086658  -0.722834
    C   C12  0.685527  0.284600  0.983952  0.838343
    O   O5   0.299957  0.316564  0.893793  -0.700737
    O   O6   0.316050  0.362765  0.089770  -0.718157
    C   C13  0.248552  0.287170  0.987547  0.868570
    O   O7   0.353917  0.685671  0.104217  -0.793326
    O   O8   0.349225  0.639029  0.908191  -0.702240
    C   C14  0.306886  0.714202  0.010649  0.915139
    Zn  Zn1  0.488554  0.463739  0.870003  1.027662
    Zn  Zn2  0.504041  0.535186  0.124410  1.059878
    C   C15  0.567249  0.803661  0.440591  -0.181614
    H   H4   0.567844  0.824132  0.272455  0.158178
    H   H5   0.576016  0.896371  0.661991  0.141776
    H   H6   0.600163  0.930354  0.478743  0.117510
    N   N1   0.515363  0.585015  0.274374  0.165244
    C   C16  0.441547  0.254948  0.674671  -0.067764
    C   C17  0.416136  0.186636  0.559116  -0.075764
    C   C18  0.435508  0.278918  0.486219  -0.125440
    C   C19  0.478036  0.442391  0.530151  0.047694
    C   C20  0.493459  0.509127  0.649299  0.128899
    C   C21  0.502778  0.540956  0.458268  0.064216
    C   C22  0.540488  0.703564  0.507861  0.194287
    C   C23  0.549861  0.768618  0.624608  -0.196659
    C   C24  0.525058  0.672738  0.694832  -0.161550
    C   C25  0.492748  0.483080  0.338288  -0.241713
    C   C26  0.551448  0.742951  0.324087  -0.105906
    N   N2   0.476891  0.414301  0.719763  0.006575
    H   H7   0.467197  0.358608  0.292598  0.187964
    H   H8   0.430369  0.177754  0.729324  0.146683
    H   H9   0.414182  0.217458  0.396715  0.129988
    H   H10  0.380523  0.059592  0.525523  0.104501
    H   H11  0.529786  0.730073  0.785188  0.182025
    O   O9   0.013162  0.610912  0.070725  -0.331274
    H   H12  0.017178  0.649673  0.155478  0.301434
