# Generated by REPEAT Assigner based on pymatgen
data_DB0-m3_o104_o159_f0_fsc.sym.11_sqe
_audit_creation_date              2022-05-24
_audit_creation_method            REPEAT_Assigner
_cell_length_a                    12.284436
_cell_length_b                    13.371542
_cell_length_c                    7.051630
_cell_angle_alpha                 90.000000
_cell_angle_beta                  80.887553
_cell_angle_gamma                 90.000000
_cell_volume                      1143.695288
_symmetry_space_group_name_H-M    P1
_symmetry_Int_Tables_number       1
loop_
    _symmetry_equiv_pos_site_id
    _symmetry_equiv_pos_as_xyz
    1  x,y,z
loop_
    _atom_site_type_symbol
    _atom_site_label
    _atom_site_fract_x
    _atom_site_fract_y
    _atom_site_fract_z
    _atom_type_partial_charge
    C   C1   0.256355  0.006839  0.166544  0.179768
    C   C2   0.157426  0.028501  0.280675  -0.015663
    C   C3   0.056690  0.025189  0.216945  -0.146299
    C   C4   0.950303  0.015388  0.349612  0.110922
    C   C5   0.854889  0.058387  0.271078  -0.465594
    C   C6   0.253980  0.991050  0.969798  0.094315
    C   C7   0.152630  0.992070  0.908725  -0.429577
    C   C8   0.054871  0.008158  0.029273  0.200006
    C   C9   0.948910  0.004000  0.962493  -0.166263
    C   C10  0.851187  0.013745  0.085646  0.385476
    C   C11  0.749331  0.997446  0.033346  -0.367567
    C   C12  0.160581  0.007470  0.704335  0.587603
    C   C13  0.049237  0.018079  0.639332  -0.197621
    C   C14  0.946886  0.993224  0.774596  0.037743
    C   C15  0.844979  0.981499  0.714105  -0.317609
    C   C16  0.746467  0.982778  0.836603  0.070393
    H   H1   0.162165  0.048246  0.422699  -0.081396
    H   H2   0.938569  0.933046  0.367145  0.020793
    H   H3   0.946268  0.063141  0.474280  0.099877
    H   H4   0.776263  0.043997  0.368107  0.235442
    H   H5   0.867126  0.140215  0.253016  0.096455
    H   H6   0.048712  0.963977  0.519790  0.136818
    H   H7   0.050490  0.100828  0.615601  0.107994
    H   H8   0.834088  0.974073  0.568450  0.157090
    O   O1   0.384480  0.913031  0.327858  -0.619998
    O   O2   0.388825  0.084011  0.339643  -0.548761
    C   C17  0.352867  0.000920  0.271482  0.533924
    O   O3   0.385311  0.078935  0.734983  -0.325019
    O   O4   0.381798  0.907198  0.723143  -0.380125
    C   C18  0.349409  0.992125  0.809186  0.247204
    O   O5   0.619380  0.074967  0.676518  -0.803752
    O   O6   0.616431  0.903560  0.662320  -0.812054
    C   C19  0.650110  0.986970  0.733496  0.899954
    O   O7   0.619040  0.909058  0.268396  -0.610620
    O   O8   0.623832  0.080621  0.282239  -0.578728
    C   C20  0.655240  0.995909  0.195308  0.693314
    Zn  Zn1  0.504669  0.105430  0.508740  0.921204
    Zn  Zn2  0.499780  0.882435  0.494041  1.039796
    C   C21  0.464640  0.701597  0.653798  -0.111472
    C   C22  0.472923  0.289391  0.674771  -0.208576
    N   N1   0.497402  0.751392  0.488782  0.102718
    N   N2   0.507197  0.236466  0.514142  0.167871
    C   C23  0.532339  0.701573  0.324744  -0.103858
    C   C24  0.541485  0.283135  0.346298  -0.117246
    C   C25  0.535374  0.598438  0.323299  -0.126206
    C   C26  0.541359  0.385934  0.334971  -0.132417
    C   C27  0.502721  0.545746  0.491595  0.042155
    C   C28  0.505535  0.441968  0.497320  0.029436
    C   C29  0.466723  0.598552  0.657630  0.136244
    C   C30  0.471662  0.392610  0.668564  0.206455
    C   C31  0.435692  0.446012  0.833671  -0.215897
    C   C32  0.433419  0.548911  0.828247  -0.148188
    H   H9   0.559226  0.742575  0.193568  0.118814
    H   H10  0.568268  0.239495  0.218365  0.126605
    H   H11  0.445038  0.251024  0.808580  0.189668
    H   H12  0.437605  0.742686  0.784815  0.163955
    H   H13  0.409245  0.407134  0.967437  0.152400
    H   H14  0.405396  0.590796  0.957908  0.133179
    H   H15  0.564183  0.561212  0.189378  0.114038
    H   H16  0.568904  0.420237  0.197637  0.120090
    N   N3   0.220163  0.924109  0.604464  0.422292
    O   O9   0.225413  0.915643  0.419624  -0.322427
    O   O10  0.239188  0.845776  0.703416  -0.381263
    N   N4   0.224168  0.100766  0.675350  0.353150
    O   O11  0.261844  0.139309  0.508657  -0.307105
    O   O12  0.244811  0.147079  0.827820  -0.393861
