# Generated by REPEAT Assigner based on pymatgen
data_DB0-m9_o18_o25_f0_sra.sym.79_sqe
_audit_creation_date              2022-05-24
_audit_creation_method            REPEAT_Assigner
_cell_length_a                    6.319236
_cell_length_b                    19.318523
_cell_length_c                    23.452610
_cell_angle_alpha                 91.029541
_cell_angle_beta                  90.668240
_cell_angle_gamma                 89.176846
_cell_volume                      2862.110893
_symmetry_space_group_name_H-M    P1
_symmetry_Int_Tables_number       1
loop_
    _symmetry_equiv_pos_site_id
    _symmetry_equiv_pos_as_xyz
    1  x,y,z
loop_
    _atom_site_type_symbol
    _atom_site_label
    _atom_site_fract_x
    _atom_site_fract_y
    _atom_site_fract_z
    _atom_type_partial_charge
    O   O1   0.478179  0.443386  0.443590  -0.416042
    O   O2   0.273329  0.521566  0.425835  -0.477852
    O   O3   0.055887  0.597264  0.506868  -0.553892
    C   C1   0.386057  0.579241  0.427821  0.753966
    O   O4   0.191590  0.399682  0.486558  -0.627050
    O   O5   0.981626  0.475582  0.567069  -0.418631
    C   C2   0.358937  0.390759  0.455622  0.726371
    O   O6   0.556332  0.585088  0.460659  -0.571488
    O   O7   0.374957  0.512064  0.541885  -0.597730
    V   V1   0.099337  0.497580  0.492099  1.383950
    O   O8   0.691999  0.414113  0.541949  -0.615629
    C   C3   0.868886  0.419595  0.570419  0.766550
    O   O9   0.776804  0.556293  0.559464  -0.458782
    C   C4   0.900722  0.607403  0.543170  0.630308
    V   V2   0.599808  0.501101  0.505751  1.360348
    O   O10  0.872598  0.489003  0.455559  -0.601481
    C   C5   0.895712  0.830506  0.918891  -0.091989
    C   C6   0.923826  0.668547  0.580146  -0.095055
    C   C7   0.751139  0.718342  0.904953  -0.259537
    C   C8   0.795119  0.773984  0.940105  -0.053452
    C   C9   0.950803  0.831714  0.862086  -0.158486
    C   C10  0.899141  0.776601  0.825529  0.045816
    C   C11  0.800179  0.720012  0.847971  0.273390
    C   C12  0.939190  0.777452  0.767023  0.040745
    C   C13  0.880177  0.721621  0.732006  0.053743
    C   C14  0.783417  0.665461  0.756114  -0.157469
    C   C15  0.744626  0.664898  0.813546  -0.297163
    C   C16  0.035912  0.833619  0.742913  -0.149831
    C   C17  0.074686  0.834185  0.685482  -0.302216
    C   C18  0.019185  0.779064  0.651059  0.277942
    C   C19  0.920254  0.722469  0.673502  0.038446
    C   C20  0.068259  0.780732  0.594079  -0.263311
    C   C21  0.024370  0.725079  0.558932  -0.050043
    C   C22  0.868677  0.667343  0.636947  -0.153710
    H   H1   0.667171  0.621031  0.831696  0.150592
    H   H2   0.795575  0.621121  0.651537  0.122910
    H   H3   0.070804  0.725391  0.514726  0.102523
    H   H4   0.152110  0.878057  0.667330  0.151602
    H   H5   0.671839  0.673977  0.921687  0.121608
    H   H6   0.748732  0.773668  0.984315  0.103154
    H   H7   0.023974  0.877926  0.847500  0.123725
    H   H8   0.734264  0.621046  0.731433  0.143058
    H   H9   0.085027  0.878041  0.767591  0.141960
    H   H10  0.147533  0.825102  0.577346  0.122509
    C   C23  0.815304  0.308499  0.765083  -0.191756
    C   C24  0.011490  0.276748  0.792243  -0.044489
    H   H11  0.740534  0.358621  0.777838  0.074873
    H   H12  0.273886  0.272927  0.722566  0.057398
    C   C25  0.926038  0.122737  0.879946  -0.169560
    C   C26  0.894467  0.376179  0.618980  -0.169968
    C   C27  0.711602  0.237474  0.764245  -0.152816
    C   C28  0.909508  0.207048  0.791329  0.653637
    C   C29  0.809234  0.222108  0.706642  -0.055895
    C   C30  0.911215  0.291809  0.707556  0.664876
    C   C31  0.005420  0.190356  0.733803  -0.178033
    C   C32  0.109122  0.261383  0.734640  -0.165567
    C   C33  0.914466  0.160309  0.839602  -0.386839
    C   C34  0.906179  0.338569  0.659298  -0.388401
    H   H13  0.080186  0.140234  0.721048  0.072137
    H   H14  0.546839  0.225928  0.776320  0.054347
    C   C35  0.526407  0.719876  0.209090  -0.166650
    C   C36  0.320372  0.691570  0.231396  -0.185929
    H   H15  0.245051  0.642433  0.217645  0.068863
    H   H16  0.623546  0.696645  0.174423  0.072718
    H   H17  0.060751  0.776290  0.211118  0.038102
    C   C37  0.379205  0.623190  0.379252  -0.141492
    C   C38  0.441274  0.875778  0.119734  -0.143910
    C   C39  0.601573  0.735514  0.269742  -0.099098
    C   C40  0.395728  0.708054  0.291177  0.682667
    C   C41  0.500283  0.807336  0.267552  -0.183795
    C   C42  0.424926  0.790852  0.207771  0.677161
    C   C43  0.294249  0.779030  0.289858  -0.168466
    C   C44  0.219083  0.763392  0.229207  -0.096413
    C   C45  0.382901  0.661150  0.339143  -0.377007
    C   C46  0.437689  0.837778  0.159818  -0.372395
    H   H18  0.197112  0.802261  0.324525  0.073085
    H   H19  0.575601  0.856474  0.281302  0.068438
    H   H20  0.759905  0.722617  0.287831  0.038556
    C   C47  0.461021  0.170154  0.080282  -0.218520
    C   C48  0.359198  0.328916  0.418856  -0.214514
    C   C49  0.573505  0.286127  0.095409  -0.509002
    C   C50  0.548666  0.229461  0.059947  0.174847
    C   C51  0.400323  0.167181  0.136581  -0.153877
    C   C52  0.433871  0.223397  0.173587  -0.011040
    C   C53  0.519467  0.282787  0.151968  0.437396
    C   C54  0.389508  0.220983  0.231802  0.048946
    C   C55  0.430762  0.278081  0.267340  0.052217
    C   C56  0.514018  0.337043  0.244015  -0.123940
    C   C57  0.557132  0.339123  0.186869  -0.398731
    C   C58  0.306268  0.162019  0.255129  -0.120532
    C   C59  0.263162  0.159938  0.312275  -0.400202
    C   C60  0.300808  0.216276  0.347175  0.435086
    C   C61  0.386389  0.275668  0.325555  -0.011195
    C   C62  0.246770  0.212937  0.403734  -0.505775
    C   C63  0.271576  0.269607  0.439193  0.172289
    C   C64  0.419908  0.331888  0.362558  -0.156433
    H   H21  0.624243  0.385193  0.169359  0.190830
    H   H22  0.481404  0.380195  0.348548  0.139301
    H   H23  0.220072  0.267873  0.482927  0.049075
    H   H24  0.196066  0.113866  0.329785  0.191106
    H   H25  0.642568  0.332692  0.079356  0.223407
    H   H26  0.600156  0.231195  0.016211  0.049264
    H   H27  0.338796  0.118878  0.150589  0.137385
    H   H28  0.549221  0.382561  0.269118  0.136262
    H   H29  0.271082  0.116499  0.230026  0.135715
    H   H30  0.177724  0.166369  0.419787  0.223084
    O   O11  0.263612  0.914067  0.038491  -0.567885
    O   O12  0.628477  0.099394  0.012548  -0.625792
    O   O13  0.838209  0.023493  0.932003  -0.419854
    C   C65  0.461205  0.108319  0.043508  0.725150
    O   O14  0.546727  0.977500  0.073266  -0.475677
    O   O15  0.763951  0.901801  0.992201  -0.552466
    C   C66  0.434221  0.919798  0.071208  0.751347
    O   O16  0.341983  0.055692  0.055545  -0.409391
    O   O17  0.444949  0.987043  0.957229  -0.592649
    V   V3   0.720634  0.001488  0.006991  1.382486
    O   O18  0.042805  0.942746  0.939559  -0.454547
    C   C67  0.918988  0.891636  0.955875  0.627394
    O   O19  0.127969  0.084926  0.957138  -0.610460
    C   C68  0.951360  0.079387  0.928555  0.764158
    V   V4   0.220014  0.997878  0.993261  1.341629
    O   O20  0.947414  0.010032  0.043511  -0.600336
    C   C69  0.127292  0.307753  0.841834  0.219821
    C   C70  0.214130  0.372512  0.837429  -0.231107
    C   C71  0.321690  0.401639  0.883176  -0.052717
    C   C72  0.342551  0.366017  0.933397  -0.024584
    Br  Br1  0.491274  0.406149  0.996662  -0.105212
    C   C73  0.255812  0.301299  0.937855  0.101459
    C   C74  0.148250  0.272166  0.892126  -0.427723
    H   H31  0.197854  0.400472  0.798071  0.121215
    H   H32  0.389676  0.452398  0.879658  0.099379
    H   H33  0.272130  0.273367  0.977225  0.052573
    H   H34  0.080716  0.221462  0.895931  0.257098
    C   C75  0.693459  0.191102  0.657047  0.218080
    C   C76  0.606628  0.126342  0.661447  -0.231070
    C   C77  0.499116  0.097210  0.615694  -0.050355
    C   C78  0.478299  0.132829  0.565471  -0.025710
    Br  Br2  0.329697  0.092682  0.502192  -0.104753
    C   C79  0.565025  0.197549  0.561017  0.100165
    C   C80  0.672539  0.226687  0.606752  -0.425187
    H   H35  0.622877  0.098384  0.700807  0.121413
    H   H36  0.431142  0.046449  0.619209  0.098453
    H   H37  0.548741  0.225478  0.521645  0.053090
    H   H38  0.740074  0.277390  0.602951  0.257357
