# Generated by REPEAT Assigner based on pymatgen
data_DB0-m3_o24_o148_f0_fsc.sym.3_sqe
_audit_creation_date              2022-05-24
_audit_creation_method            REPEAT_Assigner
_cell_length_a                    8.532622
_cell_length_b                    9.143375
_cell_length_c                    10.806636
_cell_angle_alpha                 90.544997
_cell_angle_beta                  89.998268
_cell_angle_gamma                 90.081009
_cell_volume                      843.061981
_symmetry_space_group_name_H-M    P1
_symmetry_Int_Tables_number       1
loop_
    _symmetry_equiv_pos_site_id
    _symmetry_equiv_pos_as_xyz
    1  x,y,z
loop_
    _atom_site_type_symbol
    _atom_site_label
    _atom_site_fract_x
    _atom_site_fract_y
    _atom_site_fract_z
    _atom_type_partial_charge
    C   C1   0.003423  0.954270  0.310986  -0.100278
    C   C2   0.143818  0.974740  0.252461  -0.007194
    C   C3   0.147555  0.998083  0.127394  -0.339741
    C   C4   0.864905  0.971972  0.248677  -0.082040
    C   C5   0.866811  0.987036  0.120808  -0.173167
    C   C6   0.009289  0.994047  0.058811  0.376664
    C   C7   0.009417  0.002471  0.930043  -0.313495
    C   C8   0.147899  0.999654  0.861767  -0.081407
    C   C9   0.144317  0.022503  0.736613  -0.085564
    C   C10  0.728499  0.991943  0.054256  0.285643
    N   N1   0.731161  0.002003  0.930021  -0.651026
    C   C11  0.867279  0.007946  0.867303  0.670067
    C   C12  0.865731  0.022631  0.739732  -0.357061
    C   C13  0.004110  0.041375  0.677575  -0.016152
    H   H1   0.616775  0.986180  0.101012  0.045004
    H   H2   0.001520  0.934913  0.408887  0.115654
    H   H3   0.002442  0.060423  0.579627  0.111796
    H   H4   0.260867  0.019524  0.088166  0.174836
    H   H5   0.261234  0.979220  0.901219  0.097363
    O   O1   0.336143  0.135042  0.610640  -0.649965
    O   O2   0.341700  0.884252  0.634723  -0.610916
    C   C14  0.286177  0.014422  0.662108  0.695193
    O   O3   0.335084  0.862004  0.378694  -0.704033
    O   O4   0.342357  0.112600  0.354595  -0.659282
    C   C15  0.285728  0.982680  0.327242  0.786891
    O   O5   0.673869  0.861205  0.377775  -0.662564
    O   O6   0.669270  0.111414  0.354421  -0.639591
    C   C16  0.722987  0.981068  0.324628  0.746666
    O   O7   0.674866  0.133818  0.611420  -0.657705
    O   O8   0.668648  0.883442  0.634800  -0.672443
    C   C17  0.723128  0.013759  0.664659  0.817058
    Zn  Zn1  0.504857  0.835611  0.506044  0.980094
    Zn  Zn2  0.506073  0.160391  0.483195  0.969779
    C   C18  0.625040  0.540712  0.555851  -0.157560
    C   C19  0.624022  0.459698  0.435156  0.217244
    H   H6   0.729053  0.577538  0.609276  0.098974
    N   N2   0.507193  0.352119  0.472837  0.058771
    C   C20  0.506425  0.427035  0.594067  -0.010069
    C   C21  0.387227  0.536832  0.554279  0.170903
    C   C22  0.388106  0.456883  0.434407  0.129313
    C   C23  0.505022  0.569550  0.395020  -0.027696
    N   N3   0.504051  0.643964  0.516275  0.122963
    H   H7   0.505329  0.365324  0.681885  0.064539
    H   H8   0.504917  0.631151  0.307141  0.048134
    C   C24  0.243700  0.412711  0.361542  -0.300142
    H   H9   0.171079  0.511081  0.344927  0.073441
    H   H10  0.278958  0.364970  0.271064  0.082690
    H   H11  0.173917  0.332847  0.415088  0.111806
    C   C25  0.768067  0.417251  0.361316  -0.312797
    H   H12  0.839664  0.516330  0.344165  0.076032
    H   H13  0.838835  0.337788  0.414300  0.106033
    H   H14  0.732130  0.368734  0.271257  0.082068
    C   C26  0.242358  0.579214  0.627138  -0.293989
    H   H15  0.170577  0.480112  0.643729  0.057140
    H   H16  0.277272  0.627616  0.717490  0.089785
    H   H17  0.172160  0.658703  0.573716  0.103331
