# Generated by REPEAT Assigner based on pymatgen
data_DB0-m3_o47_o23_f0_fsc.sym.51
_audit_creation_date              2022-05-24
_audit_creation_method            REPEAT_Assigner
_cell_length_a                    8.558764
_cell_length_b                    11.072798
_cell_length_c                    14.178510
_cell_angle_alpha                 90.572478
_cell_angle_beta                  92.683326
_cell_angle_gamma                 80.597917
_cell_volume                      1324.181737
_symmetry_space_group_name_H-M    P1
_symmetry_Int_Tables_number       1
loop_
    _symmetry_equiv_pos_site_id
    _symmetry_equiv_pos_as_xyz
    1  x,y,z
loop_
    _atom_site_type_symbol
    _atom_site_label
    _atom_site_fract_x
    _atom_site_fract_y
    _atom_site_fract_z
    _atom_type_partial_charge
    C   C1   0.093675  0.758045  0.970500  -0.148643
    C   C2   0.974261  0.689206  0.959728  -0.158494
    C   C3   0.818961  0.741148  0.970922  -0.073305
    C   C4   0.777179  0.864032  0.984155  -0.312886
    C   C5   0.891557  0.936851  0.986539  0.314920
    C   C6   0.050513  0.884462  0.982544  0.115849
    C   C7   0.844440  0.061741  0.995642  -0.391091
    C   C8   0.955876  0.137535  0.001523  0.020123
    C   C9   0.114833  0.085148  0.997527  0.378717
    C   C10  0.161950  0.960257  0.988423  -0.430557
    C   C11  0.912707  0.263950  0.013565  -0.058699
    C   C12  0.032115  0.332796  0.024335  -0.163778
    C   C13  0.187418  0.280860  0.013142  -0.042132
    C   C14  0.229206  0.157973  0.999909  -0.347579
    H   H1   0.004285  0.592044  0.948809  0.165582
    H   H2   0.654187  0.902794  0.992327  0.141213
    H   H3   0.002084  0.429958  0.035253  0.129387
    H   H4   0.352199  0.119216  0.991738  0.160554
    H   H5   0.286171  0.922439  0.984622  0.157689
    H   H6   0.720219  0.099558  0.999442  0.160635
    O   O1   0.353551  0.409323  0.082918  -0.727303
    O   O2   0.353801  0.376582  0.921699  -0.677787
    C   C15  0.306225  0.357879  0.005930  0.850664
    O   O3   0.312011  0.629143  0.900650  -0.759672
    O   O4   0.323471  0.661017  0.061392  -0.715796
    C   C16  0.257795  0.688364  0.976648  0.889097
    O   O5   0.652836  0.612674  0.901175  -0.717623
    O   O6   0.652568  0.645420  0.062344  -0.701031
    C   C17  0.700149  0.664139  0.978135  0.872035
    O   O7   0.694373  0.392863  0.083399  -0.731282
    O   O8   0.682904  0.360984  0.922692  -0.644773
    C   C18  0.748580  0.333621  0.007421  0.787890
    Zn  Zn1  0.498780  0.493754  0.887644  1.059700
    Zn  Zn2  0.507609  0.528249  0.096425  1.105272
    C   C19  0.620852  0.394137  0.538731  -0.034708
    C   C20  0.555323  0.620802  0.556823  0.027602
    C   C21  0.521712  0.644989  0.452318  -0.221454
    H   H7   0.759685  0.467647  0.436743  0.040064
    H   H8   0.487159  0.695572  0.597944  0.008029
    H   H9   0.683491  0.619288  0.571683  -0.038022
    H   H10  0.619117  0.686243  0.423550  0.072209
    H   H11  0.408014  0.708389  0.441064  0.029810
    N   N1   0.513729  0.543526  0.219802  0.002157
    C   C22  0.506962  0.498627  0.580947  0.648653
    C   C23  0.648194  0.429019  0.438414  -0.206225
    C   C24  0.510265  0.524431  0.403701  0.710225
    C   C25  0.357108  0.484208  0.429508  -0.084225
    C   C26  0.343538  0.496206  0.535427  -0.153259
    C   C27  0.512764  0.537276  0.301182  -0.268520
    C   C28  0.497769  0.485133  0.683097  -0.282080
    N   N2   0.492795  0.478492  0.764265  0.012730
    H   H12  0.293446  0.417734  0.562532  0.033618
    H   H13  0.264306  0.582599  0.552147  0.028427
    H   H14  0.358618  0.387537  0.407821  -0.001380
    H   H15  0.560105  0.312980  0.535951  0.049440
    H   H16  0.656796  0.346743  0.392500  0.064187
    H   H17  0.254637  0.542734  0.393402  0.043422
    C   C29  0.778527  0.356773  0.590757  -0.063203
    C   C30  0.837520  0.421940  0.664785  0.014867
    C   C31  0.983910  0.379168  0.707585  -0.414031
    C   C32  0.073892  0.272152  0.677898  0.529290
    O   O9   0.216277  0.233736  0.721785  -0.287813
    C   C33  0.313679  0.128476  0.696753  0.101511
    C   C34  0.016274  0.207304  0.603943  -0.300807
    C   C35  0.870060  0.249942  0.561045  -0.167510
    H   H18  0.775702  0.507068  0.690926  0.107656
    H   H19  0.028880  0.430608  0.765014  0.171202
    H   H20  0.423172  0.116813  0.743025  0.049345
    H   H21  0.346441  0.134919  0.622421  -0.017035
    H   H22  0.252832  0.048556  0.705867  0.019954
    H   H23  0.082634  0.123128  0.578094  0.139429
    H   H24  0.826358  0.198300  0.503333  0.129553
