# Generated by REPEAT Assigner based on pymatgen
data_DB0-m29_o88_o46_f0_pts.sym.108
_audit_creation_date              2022-05-24
_audit_creation_method            REPEAT_Assigner
_cell_length_a                    15.541424
_cell_length_b                    10.080264
_cell_length_c                    13.373263
_cell_angle_alpha                 97.306197
_cell_angle_beta                  102.114158
_cell_angle_gamma                 109.422574
_cell_volume                      1887.266531
_symmetry_space_group_name_H-M    P1
_symmetry_Int_Tables_number       1
loop_
    _symmetry_equiv_pos_site_id
    _symmetry_equiv_pos_as_xyz
    1  x,y,z
loop_
    _atom_site_type_symbol
    _atom_site_label
    _atom_site_fract_x
    _atom_site_fract_y
    _atom_site_fract_z
    _atom_type_partial_charge
    C   C1   0.796486  0.007102  0.164771  -0.094726
    H   H1   0.785106  0.998777  0.241106  0.184015
    C   C2   0.884570  0.027138  0.151956  -0.247396
    H   H2   0.941079  0.034194  0.217741  0.158044
    C   C3   0.900159  0.031123  0.055129  0.342940
    C   C4   0.827785  0.025742  0.970682  -0.309260
    C   C5   0.737291  0.009215  0.983475  0.077458
    C   C6   0.722231  0.993658  0.081908  -0.072467
    C   C7   0.995591  0.044342  0.046903  -0.309150
    C   C8   0.008551  0.957098  0.972715  -0.075402
    H   H3   0.056383  0.121653  0.106710  0.147807
    H   H4   0.947865  0.877169  0.914481  0.106590
    C   C9   0.112737  0.957732  0.860641  -0.156711
    H   H5   0.052463  0.935457  0.794703  0.118432
    C   C10  0.199513  0.975407  0.844153  -0.114447
    H   H6   0.206094  0.967952  0.764958  0.162089
    C   C11  0.277817  0.005208  0.926895  -0.008497
    C   C12  0.268042  0.011057  0.028667  -0.064263
    C   C13  0.180415  0.000133  0.044749  -0.160879
    H   H7   0.170608  0.004260  0.122528  0.142541
    C   C14  0.103116  0.974333  0.960607  0.176139
    O   O1   0.542975  0.182228  0.741447  -0.603789
    C   C15  0.478123  0.229890  0.697805  0.649624
    O   O2   0.443677  0.138026  0.946776  -0.460107
    O   O3   0.389159  0.160568  0.694066  -0.517729
    O   O4   0.364244  0.938429  0.816179  -0.642036
    C   C16  0.366913  0.024360  0.899852  0.763467
    Fe  Fe1  0.484490  0.992795  0.775331  1.452317
    O   O5   0.573834  0.982680  0.903872  -0.521950
    O   O6   0.681289  0.066432  0.815169  -0.383192
    C   C17  0.661549  0.018091  0.897413  0.494118
    O   O7   0.458820  0.860047  0.638287  -0.648544
    O   O8   0.536303  0.746564  0.737176  -0.436876
    C   C18  0.486610  0.751496  0.646403  0.608146
    O   O9   0.533349  0.119592  0.368394  -0.604919
    O   O10  0.506849  0.273121  0.268170  -0.456145
    C   C19  0.529588  0.246026  0.361362  0.584290
    O   O11  0.421624  0.998692  0.101722  -0.589052
    O   O12  0.331922  0.020322  0.211833  -0.517909
    C   C20  0.344618  0.014826  0.117653  0.661937
    O   O13  0.610020  0.815757  0.298250  -0.552758
    O   O14  0.632995  0.054754  0.191612  -0.684135
    C   C21  0.632048  0.971808  0.107218  0.817042
    O   O15  0.456976  0.799351  0.262264  -0.666739
    C   C22  0.522567  0.750863  0.301712  0.717205
    O   O16  0.557780  0.853791  0.062025  -0.459316
    Fe  Fe2  0.511956  0.991416  0.230621  1.505838
    C   C23  0.529741  0.337527  0.457147  -0.009942
    C   C24  0.531927  0.278818  0.545149  -0.166036
    H   H8   0.545706  0.180891  0.546708  0.178855
    C   C25  0.499858  0.326192  0.625248  0.122931
    C   C26  0.471027  0.441916  0.621646  -0.262548
    C   C27  0.489586  0.523286  0.545355  0.148235
    C   C28  0.516022  0.467865  0.460462  0.108662
    H   H9   0.562586  0.518712  0.322968  0.145135
    C   C29  0.530393  0.545530  0.382353  -0.200940
    C   C30  0.505636  0.663892  0.380110  0.097916
    H   H10  0.470818  0.819795  0.463770  0.184389
    C   C31  0.479313  0.717633  0.462689  -0.179943
    C   C32  0.480322  0.657280  0.549646  -0.067236
    C   C33  0.412995  0.464777  0.691465  0.700816
    O   O17  0.439971  0.470506  0.784967  -0.413359
    N   N1   0.321939  0.470028  0.649607  -0.667368
    H   H11  0.322424  0.569912  0.682633  0.301384
    H   H12  0.309253  0.459469  0.568680  0.265803
    C   C34  0.849011  0.040616  0.869720  0.806978
    O   O18  0.808161  0.941254  0.793641  -0.475703
    N   N2   0.916545  0.171360  0.859762  -0.715571
    H   H13  0.972022  0.148058  0.839410  0.308738
    H   H14  0.943237  0.242945  0.932385  0.277160
