# Generated by REPEAT Assigner based on pymatgen
data_DB0-m9_o11_o12_f0_sra.sym.26
_audit_creation_date              2022-05-24
_audit_creation_method            REPEAT_Assigner
_cell_length_a                    13.226002
_cell_length_b                    15.771916
_cell_length_c                    6.307986
_cell_angle_alpha                 90.000000
_cell_angle_beta                  99.661341
_cell_angle_gamma                 90.000000
_cell_volume                      1297.179354
_symmetry_space_group_name_H-M    P1
_symmetry_Int_Tables_number       1
loop_
    _symmetry_equiv_pos_site_id
    _symmetry_equiv_pos_as_xyz
    1  x,y,z
loop_
    _atom_site_type_symbol
    _atom_site_label
    _atom_site_fract_x
    _atom_site_fract_y
    _atom_site_fract_z
    _atom_type_partial_charge
    O  O1   0.529777  0.382291  0.510876  -0.627366
    O  O2   0.615853  0.541130  0.455076  -0.507965
    O  O3   0.560372  0.612537  0.146933  -0.528312
    O  O4   0.616726  0.442848  0.257704  -0.255270
    O  O5   0.391179  0.556282  0.876745  -0.296430
    O  O6   0.446829  0.387928  0.980997  -0.641556
    C  C1   0.610601  0.610663  0.342165  0.729959
    C  C2   0.596217  0.377191  0.376627  0.731961
    O  O7   0.419447  0.503229  0.283765  -0.504155
    V  V1   0.511587  0.499179  0.042142  1.167153
    O  O8   0.371969  0.458820  0.672724  -0.616893
    O  O9   0.459460  0.619171  0.610435  -0.635711
    C  C3   0.382314  0.390666  0.797945  0.935000
    C  C4   0.408468  0.624493  0.769637  0.901677
    V  V2   0.486244  0.500584  0.533248  1.347420
    O  O10  0.578129  0.493505  0.839748  -0.565832
    H  H1   0.238007  0.842073  0.841680  0.146473
    H  H2   0.146853  0.219201  0.799098  0.142906
    C  C5   0.349612  0.702513  0.788100  -0.680339
    C  C6   0.297019  0.331611  0.780017  -0.587451
    C  C7   0.288718  0.710641  0.935078  0.593692
    C  C8   0.293517  0.279023  0.942602  0.467769
    H  H3   0.164740  0.743338  0.203519  0.115670
    H  H4   0.266803  0.169369  0.239061  0.079089
    C  C9   0.170513  0.796664  0.097841  -0.285258
    C  C10  0.205275  0.168932  0.101876  -0.212920
    C  C11  0.231370  0.789932  0.950439  -0.282645
    C  C12  0.207494  0.221082  0.937872  -0.238754
    H  H5   0.356721  0.754951  0.680496  0.225327
    H  H6   0.235762  0.332938  0.642327  0.183255
    C  C13  0.766671  0.808972  0.326213  -0.222866
    C  C14  0.831482  0.239346  0.352579  -0.078451
    C  C15  0.834813  0.806808  0.506435  -0.307398
    C  C16  0.829592  0.177190  0.495642  -0.297752
    H  H7   0.766165  0.862397  0.217947  0.126714
    H  H8   0.893496  0.240625  0.260000  0.107088
    H  H9   0.839340  0.754874  0.618792  0.155155
    H  H10  0.768924  0.173945  0.590986  0.149280
    C  C17  0.692005  0.740730  0.271004  0.479278
    C  C18  0.752709  0.306745  0.314546  0.338808
    C  C19  0.685022  0.677107  0.406168  -0.534738
    C  C20  0.671145  0.307534  0.413781  -0.531278
    H  H11  0.732670  0.672517  0.562202  0.176807
    H  H12  0.660104  0.258015  0.526333  0.221155
    O  O11  0.896281  0.943605  0.435782  -0.350418
    O  O12  0.974146  0.110238  0.385000  -0.569138
    O  O13  0.891939  0.041509  0.632541  -0.512848
    O  O14  0.956699  0.879384  0.753113  -0.661082
    O  O15  0.058227  0.106242  0.904057  -0.558648
    O  O16  0.122804  0.943022  0.018416  -0.379060
    C  C21  0.908687  0.110601  0.522117  0.669129
    C  C22  0.905596  0.876681  0.558789  0.764342
    O  O17  0.091340  0.990514  0.608245  -0.575958
    V  V3   0.999505  0.993284  0.850442  1.374620
    O  O18  0.057632  0.874598  0.278675  -0.682538
    O  O19  0.136709  0.041261  0.220515  -0.527585
    C  C23  0.108909  0.872793  0.120189  0.794733
    C  C24  0.122875  0.107234  0.087561  0.660820
    V  V4   0.024739  0.992283  0.359011  1.386449
    O  O20  0.932724  0.998291  0.052613  -0.600414
    N  N1   0.279027  0.642334  0.078392  -0.778500
    H  H13  0.300868  0.665011  0.234881  0.320604
    H  H14  0.201507  0.625990  0.058301  0.302618
    N  N2   0.373752  0.280009  0.124419  -0.444932
    H  H15  0.404732  0.219023  0.141798  0.222488
    H  H16  0.340481  0.293157  0.259625  0.223750
    N  N3   0.625147  0.742776  0.068649  -0.619320
    H  H17  0.643857  0.796446  0.986392  0.282622
    H  H18  0.641112  0.689406  0.982074  0.264346
    N  N4   0.764502  0.373124  0.167161  -0.591299
    H  H19  0.833393  0.362599  0.111256  0.256296
    H  H20  0.771232  0.429965  0.253210  0.246627
