# Generated by REPEAT Assigner based on pymatgen
data_DB0-m29_o89_o430_f0_pts.sym.53
_audit_creation_date              2022-05-24
_audit_creation_method            REPEAT_Assigner
_cell_length_a                    14.163844
_cell_length_b                    16.043264
_cell_length_c                    13.206152
_cell_angle_alpha                 94.509274
_cell_angle_beta                  93.140863
_cell_angle_gamma                 65.555903
_cell_volume                      2722.631684
_symmetry_space_group_name_H-M    P1
_symmetry_Int_Tables_number       1
loop_
    _symmetry_equiv_pos_site_id
    _symmetry_equiv_pos_as_xyz
    1  x,y,z
loop_
    _atom_site_type_symbol
    _atom_site_label
    _atom_site_fract_x
    _atom_site_fract_y
    _atom_site_fract_z
    _atom_type_partial_charge
    C   C1   0.857164  0.992292  0.128565  -0.214000
    C   C2   0.766026  0.990444  0.086841  0.028994
    C   C3   0.749805  0.993840  0.981439  -0.115530
    C   C4   0.822947  0.001795  0.922511  -0.118809
    C   C5   0.913585  0.002652  0.964835  0.129273
    C   C6   0.931867  0.997119  0.068093  0.200907
    C   C7   0.985927  0.008376  0.902924  -0.343777
    C   C8   0.077462  0.008829  0.943702  0.292827
    C   C9   0.096618  0.003541  0.046870  0.085914
    C   C10  0.023931  0.997803  0.109751  -0.227820
    C   C11  0.149858  0.013839  0.880724  -0.232684
    C   C12  0.242680  0.014403  0.919621  -0.016841
    C   C13  0.260804  0.010602  0.024683  -0.030878
    C   C14  0.188920  0.003786  0.086116  -0.223258
    H   H1   0.868328  0.990754  0.209813  0.126030
    H   H2   0.810549  0.004287  0.841124  0.172921
    H   H3   0.970791  0.012377  0.821930  0.187232
    H   H4   0.133270  0.016467  0.799930  0.161307
    H   H5   0.206238  0.001353  0.166589  0.228220
    N   N1   0.032244  0.064976  0.284044  -0.432530
    C   C15  0.058898  0.033111  0.377264  0.165037
    C   C16  0.088600  0.939451  0.372620  -0.196700
    C   C17  0.079512  0.913237  0.271734  -0.284121
    C   C18  0.044578  0.992246  0.219558  0.402106
    H   H6   0.006839  0.132897  0.265100  0.347789
    H   H7   0.113925  0.895322  0.435479  0.185563
    H   H8   0.096397  0.844540  0.239914  0.172013
    O   O1   0.596787  0.997394  0.123250  -0.597017
    C   C19  0.688457  0.989608  0.157281  0.654040
    O   O2   0.678764  0.807394  0.236766  -0.497450
    O   O3   0.709359  0.984953  0.255262  -0.522240
    O   O4   0.548058  0.908422  0.335732  -0.598722
    C   C20  0.630344  0.830730  0.323260  0.590713
    Fe  Fe1  0.502240  0.996880  0.227839  1.515787
    O   O5   0.392690  0.964519  0.155174  -0.700877
    O   O6   0.378867  0.082592  0.062702  -0.478817
    C   C21  0.352280  0.015256  0.077404  0.809718
    O   O7   0.463863  0.121706  0.298002  -0.658516
    O   O8   0.299999  0.132012  0.268909  -0.587984
    C   C22  0.363889  0.163627  0.314795  0.726101
    O   O9   0.546933  0.881268  0.707000  -0.647765
    O   O10  0.710187  0.872993  0.734128  -0.539317
    C   C23  0.646830  0.840156  0.689484  0.692645
    O   O11  0.617111  0.038910  0.850422  -0.692035
    O   O12  0.634423  0.919026  0.941639  -0.482065
    C   C24  0.659668  0.987180  0.927106  0.837348
    O   O13  0.297329  0.019329  0.750138  -0.516193
    O   O14  0.463061  0.094462  0.668631  -0.595697
    C   C25  0.380682  0.172096  0.681096  0.575258
    O   O15  0.412411  0.006036  0.880703  -0.590795
    C   C26  0.319856  0.014433  0.847816  0.661377
    O   O16  0.332203  0.195247  0.767556  -0.511865
    Fe  Fe2  0.507938  0.006358  0.776868  1.500882
    H   H9   0.449341  0.122807  0.493173  0.141457
    C   C27  0.329902  0.220577  0.408574  0.004424
    C   C28  0.237167  0.296683  0.410925  -0.187643
    H   H10  0.198617  0.322224  0.339819  0.111511
    C   C29  0.195244  0.339963  0.502927  0.140796
    C   C30  0.244294  0.302663  0.593038  -0.220705
    H   H11  0.208382  0.332266  0.664923  0.132480
    C   C31  0.335816  0.223922  0.590388  0.085920
    C   C32  0.380185  0.185973  0.497798  -0.160476
    C   C33  0.083098  0.495483  0.572902  -0.145755
    H   H12  0.144244  0.492989  0.626878  0.119338
    C   C34  0.992361  0.574065  0.571396  -0.137222
    H   H13  0.984996  0.631013  0.624587  0.120089
    C   C35  0.913747  0.580648  0.501117  0.096975
    C   C36  0.927533  0.507504  0.432159  -0.157482
    H   H14  0.866399  0.509993  0.378170  0.102792
    C   C37  0.018264  0.428927  0.433668  -0.140951
    H   H15  0.025640  0.371977  0.380471  0.127392
    C   C38  0.096899  0.422364  0.503903  0.060075
    C   C39  0.766577  0.700267  0.411666  -0.166727
    H   H16  0.802555  0.670502  0.339848  0.135869
    C   C40  0.675117  0.779059  0.414094  0.024106
    C   C41  0.630649  0.817224  0.506602  -0.113944
    H   H17  0.561541  0.880436  0.511123  0.127957
    C   C42  0.680774  0.782811  0.595939  0.028925
    C   C43  0.773474  0.706652  0.593806  -0.215516
    H   H18  0.811946  0.681292  0.665000  0.124596
    C   C44  0.815471  0.663126  0.501904  0.114241
    C   C45  0.056138  0.091625  0.471115  0.234891
    O   O17  0.155461  0.062769  0.515006  -0.525212
    H   H19  0.002567  0.086005  0.525679  -0.000946
    H   H20  0.028709  0.164092  0.451787  -0.027390
    H   H21  0.165072  0.120084  0.531438  0.370438
