data_DB0-m3_o11_o29_f0_pcu.sym.98_repeat
_audit_creation_date              2024-02-20
_audit_creation_method            'Materials Studio'
_symmetry_space_group_name_H-M    'P1'
_symmetry_Int_Tables_number       1
_symmetry_cell_setting            triclinic
loop_
_symmetry_equiv_pos_as_xyz
  x,y,z
_cell_length_a                    27.6352
_cell_length_b                    11.1364
_cell_length_c                    9.9237
_cell_angle_alpha                 89.9974
_cell_angle_beta                  89.9930
_cell_angle_gamma                 89.9936
loop_
_atom_site_label
_atom_site_type_symbol
_atom_site_fract_x
_atom_site_fract_y
_atom_site_fract_z
_atom_site_U_iso_or_equiv
_atom_site_adp_type
_atom_site_occupancy
O1     O     0.50437   0.31838   0.60935   0.00000  Uiso   1.00
O2     O     0.50121   0.31833   0.37685   0.00000  Uiso   1.00
C1     C     0.50293   0.26239   0.49331   0.00000  Uiso   1.00
O3     O     0.43173   0.49454   0.62165   0.00000  Uiso   1.00
O4     O     0.42839   0.49643   0.38924   0.00000  Uiso   1.00
C2     C     0.40742   0.49479   0.50783   0.00000  Uiso   1.00
Zn1    Zn    0.50451   0.49709   0.64684   0.00000  Uiso   1.00
Zn2    Zn    0.49955   0.49741   0.34039   0.00000  Uiso   1.00
O5     O     0.50254   0.67590   0.61012   0.00000  Uiso   1.00
O6     O     0.49996   0.67637   0.37764   0.00000  Uiso   1.00
O7     O     0.57565   0.49853   0.59777   0.00000  Uiso   1.00
O8     O     0.57232   0.49947   0.36566   0.00000  Uiso   1.00
C3     C     0.50093   0.73212   0.49421   0.00000  Uiso   1.00
C4     C     0.59666   0.49935   0.47932   0.00000  Uiso   1.00
C5     C     0.17852   0.40060   0.45010   0.00000  Uiso   1.00
O9     O     0.20364   0.31228   0.38985   0.00000  Uiso   1.00
N1     N     0.20232   0.48746   0.51753   0.00000  Uiso   1.00
C6     C     0.17756   0.57479   0.58142   0.00000  Uiso   1.00
C7     C     0.27847   0.49619   0.39551   0.00000  Uiso   1.00
C8     C     0.32827   0.49800   0.39312   0.00000  Uiso   1.00
C9     C     0.32985   0.48707   0.63340   0.00000  Uiso   1.00
C10    C     0.27988   0.48512   0.63549   0.00000  Uiso   1.00
C11    C     0.25399   0.48940   0.51645   0.00000  Uiso   1.00
C12    C     0.10251   0.48986   0.50761   0.00000  Uiso   1.00
C13    C     0.12849   0.40089   0.44426   0.00000  Uiso   1.00
C14    C     0.10444   0.31338   0.37346   0.00000  Uiso   1.00
C15    C     0.12749   0.57688   0.57731   0.00000  Uiso   1.00
C16    C     0.35434   0.49333   0.51200   0.00000  Uiso   1.00
H1     H     0.34933   0.48301   0.72770   0.00000  Uiso   1.00
H2     H     0.26115   0.47880   0.73088   0.00000  Uiso   1.00
H3     H     0.12384   0.24358   0.32053   0.00000  Uiso   1.00
C17    C     0.64974   0.50053   0.47504   0.00000  Uiso   1.00
C18    C     0.97697   0.40097   0.43144   0.00000  Uiso   1.00
C19    C     0.97641   0.59114   0.54781   0.00000  Uiso   1.00
C20    C     0.95177   0.49737   0.48599   0.00000  Uiso   1.00
C21    C     0.95051   0.30582   0.37744   0.00000  Uiso   1.00
C22    C     0.90089   0.30884   0.37282   0.00000  Uiso   1.00
C23    C     0.87613   0.40624   0.42227   0.00000  Uiso   1.00
C24    C     0.90145   0.49989   0.47902   0.00000  Uiso   1.00
C25    C     0.87580   0.59586   0.52931   0.00000  Uiso   1.00
C26    C     0.82578   0.59661   0.52341   0.00000  Uiso   1.00
N2     N     0.80169   0.50340   0.46881   0.00000  Uiso   1.00
C27    C     0.82606   0.40896   0.41800   0.00000  Uiso   1.00
C28    C     0.72563   0.50610   0.59128   0.00000  Uiso   1.00
C29    C     0.67582   0.50471   0.59392   0.00000  Uiso   1.00
C30    C     0.67420   0.49722   0.35344   0.00000  Uiso   1.00
C31    C     0.72417   0.49787   0.35115   0.00000  Uiso   1.00
C32    C     0.75005   0.50270   0.47013   0.00000  Uiso   1.00
O10    O     0.80145   0.31549   0.36668   0.00000  Uiso   1.00
C33    C     0.02769   0.40136   0.43304   0.00000  Uiso   1.00
C34    C     0.05218   0.49210   0.50076   0.00000  Uiso   1.00
C35    C     0.02683   0.58533   0.56133   0.00000  Uiso   1.00
C36    C     0.05485   0.31351   0.36739   0.00000  Uiso   1.00
H4     H     0.65782   0.50693   0.69052   0.00000  Uiso   1.00
H5     H     0.74551   0.50838   0.68508   0.00000  Uiso   1.00
H6     H     0.88206   0.23284   0.33013   0.00000  Uiso   1.00
H7     H     0.96657   0.22444   0.34043   0.00000  Uiso   1.00
H8     H     0.03936   0.24404   0.30600   0.00000  Uiso   1.00
O11    O     0.20177   0.66245   0.64556   0.00000  Uiso   1.00
C37    C     0.10233   0.66595   0.64249   0.00000  Uiso   1.00
H9     H     0.34630   0.50357   0.29670   0.00000  Uiso   1.00
H10    H     0.25866   0.50138   0.30174   0.00000  Uiso   1.00
H11    H     0.12080   0.73404   0.70052   0.00000  Uiso   1.00
C38    C     0.94978   0.68939   0.59345   0.00000  Uiso   1.00
C39    C     0.90024   0.69124   0.58459   0.00000  Uiso   1.00
O12    O     0.80093   0.69129   0.57102   0.00000  Uiso   1.00
C40    C     0.05277   0.67011   0.63528   0.00000  Uiso   1.00
H12    H     0.96581   0.76937   0.63422   0.00000  Uiso   1.00
H13    H     0.65472   0.49387   0.25912   0.00000  Uiso   1.00
H14    H     0.88122   0.76912   0.62211   0.00000  Uiso   1.00
H15    H     0.74294   0.49591   0.25559   0.00000  Uiso   1.00
H16    H     0.03616   0.74057   0.69292   0.00000  Uiso   1.00
C41    C     0.50059   0.93058   0.38617   0.00000  Uiso   1.00
C42    C     0.50041   0.86364   0.49835   0.00000  Uiso   1.00
H17    H     0.50059   0.88638   0.28892   0.00000  Uiso   1.00
H18    H     0.49976   0.90317   0.59755   0.00000  Uiso   1.00
C43    C     0.50034   0.06370   0.38588   0.00000  Uiso   1.00
C44    C     0.50353   0.13089   0.49745   0.00000  Uiso   1.00
H19    H     0.49772   0.10763   0.28874   0.00000  Uiso   1.00
H20    H     0.50680   0.09149   0.59631   0.00000  Uiso   1.00
C45    C     0.52769   0.57721   0.92792   0.00000  Uiso   1.00
N3     N     0.50933   0.49759   0.84820   0.00000  Uiso   1.00
H21    H     0.49721   0.42063   0.89408   0.00000  Uiso   1.00
C46    C     0.52809   0.55975   0.07576   0.00000  Uiso   1.00
N4     N     0.49576   0.49912   0.13908   0.00000  Uiso   1.00
H22    H     0.55621   0.60402   0.13329   0.00000  Uiso   1.00
H23    H     0.46618   0.47061   0.08513   0.00000  Uiso   1.00
C47    C     0.55308   0.68360   0.87645   0.00000  Uiso   1.00
C48    C     0.55444   0.79183   0.94300   0.00000  Uiso   1.00
C49    C     0.58378   0.86317   0.86811   0.00000  Uiso   1.00
C50    C     0.59874   0.79328   0.76204   0.00000  Uiso   1.00
O13    O     0.58049   0.68339   0.76721   0.00000  Uiso   1.00
H24    H     0.53613   0.81587   0.03540   0.00000  Uiso   1.00
H25    H     0.59359   0.95539   0.88827   0.00000  Uiso   1.00
H26    H     0.62297   0.82322   0.68341   0.00000  Uiso   1.00
