data_DB0-m3_o11_o28_f0_pcu.sym.27_repeat
_audit_creation_date              2024-02-23
_audit_creation_method            'Materials Studio'
_symmetry_space_group_name_H-M    'P1'
_symmetry_Int_Tables_number       1
_symmetry_cell_setting            triclinic
loop_
_symmetry_equiv_pos_as_xyz
  x,y,z
_cell_length_a                    23.4033
_cell_length_b                    11.1254
_cell_length_c                    9.9211
_cell_angle_alpha                 89.9974
_cell_angle_beta                  89.9814
_cell_angle_gamma                 90.0113
loop_
_atom_site_label
_atom_site_type_symbol
_atom_site_fract_x
_atom_site_fract_y
_atom_site_fract_z
_atom_site_U_iso_or_equiv
_atom_site_adp_type
_atom_site_occupancy
O1     O     0.49621   0.31894   0.62375   0.00000  Uiso   1.00
O2     O     0.49940   0.31837   0.39109   0.00000  Uiso   1.00
C1     C     0.49700   0.26265   0.50766   0.00000  Uiso   1.00
O3     O     0.41356   0.50389   0.61163   0.00000  Uiso   1.00
O4     O     0.41718   0.50235   0.37916   0.00000  Uiso   1.00
C2     C     0.38864   0.50460   0.49327   0.00000  Uiso   1.00
Zn1    Zn    0.49753   0.49799   0.66037   0.00000  Uiso   1.00
Zn2    Zn    0.50310   0.49732   0.35376   0.00000  Uiso   1.00
O5     O     0.50140   0.67675   0.62316   0.00000  Uiso   1.00
O6     O     0.50443   0.67656   0.39059   0.00000  Uiso   1.00
O7     O     0.58344   0.49309   0.63505   0.00000  Uiso   1.00
O8     O     0.58707   0.49115   0.40260   0.00000  Uiso   1.00
C3     C     0.50350   0.73267   0.50707   0.00000  Uiso   1.00
C4     C     0.61190   0.48885   0.52105   0.00000  Uiso   1.00
C5     C     0.88077   0.59831   0.48878   0.00000  Uiso   1.00
N1     N     0.85367   0.49563   0.52254   0.00000  Uiso   1.00
C6     C     0.88345   0.39489   0.55028   0.00000  Uiso   1.00
C7     C     0.94247   0.39526   0.54423   0.00000  Uiso   1.00
C8     C     0.97072   0.49904   0.50849   0.00000  Uiso   1.00
C9     C     0.93981   0.60135   0.48065   0.00000  Uiso   1.00
C10    C     0.97339   0.29260   0.57317   0.00000  Uiso   1.00
C11    C     0.03219   0.29426   0.56642   0.00000  Uiso   1.00
C12    C     0.06047   0.39842   0.52999   0.00000  Uiso   1.00
C13    C     0.02960   0.50040   0.50053   0.00000  Uiso   1.00
C14    C     0.05791   0.60376   0.46341   0.00000  Uiso   1.00
C15    C     0.02694   0.70651   0.43487   0.00000  Uiso   1.00
C16    C     0.96813   0.70538   0.44373   0.00000  Uiso   1.00
C17    C     0.11945   0.40161   0.52342   0.00000  Uiso   1.00
N2     N     0.14668   0.50346   0.48725   0.00000  Uiso   1.00
C18    C     0.11700   0.60371   0.45661   0.00000  Uiso   1.00
O9     O     0.85003   0.69692   0.45951   0.00000  Uiso   1.00
O10    O     0.85545   0.29421   0.58551   0.00000  Uiso   1.00
H1     H     0.95232   0.20997   0.60155   0.00000  Uiso   1.00
H2     H     0.05535   0.21293   0.58996   0.00000  Uiso   1.00
O11    O     0.15000   0.30249   0.55167   0.00000  Uiso   1.00
O12    O     0.14518   0.70464   0.42317   0.00000  Uiso   1.00
H3     H     0.04802   0.78893   0.40574   0.00000  Uiso   1.00
H4     H     0.94496   0.78690   0.42107   0.00000  Uiso   1.00
C19    C     0.23677   0.49043   0.60686   0.00000  Uiso   1.00
H5     H     0.21355   0.47807   0.70005   0.00000  Uiso   1.00
C20    C     0.29558   0.49130   0.60844   0.00000  Uiso   1.00
H6     H     0.31717   0.47846   0.70358   0.00000  Uiso   1.00
C21    C     0.32597   0.50637   0.49002   0.00000  Uiso   1.00
C22    C     0.29670   0.52215   0.37016   0.00000  Uiso   1.00
H7     H     0.31948   0.53442   0.27639   0.00000  Uiso   1.00
C23    C     0.23767   0.52291   0.36921   0.00000  Uiso   1.00
H8     H     0.21508   0.53464   0.27508   0.00000  Uiso   1.00
C24    C     0.20759   0.50613   0.48753   0.00000  Uiso   1.00
C25    C     0.76424   0.42074   0.43217   0.00000  Uiso   1.00
H9     H     0.78874   0.36832   0.36096   0.00000  Uiso   1.00
C26    C     0.70527   0.41426   0.43287   0.00000  Uiso   1.00
C27    C     0.67447   0.48235   0.52556   0.00000  Uiso   1.00
C28    C     0.70340   0.55166   0.61890   0.00000  Uiso   1.00
H10    H     0.67995   0.60538   0.69090   0.00000  Uiso   1.00
C29    C     0.76228   0.55698   0.61768   0.00000  Uiso   1.00
H11    H     0.78441   0.61222   0.69055   0.00000  Uiso   1.00
C30    C     0.79278   0.49186   0.52385   0.00000  Uiso   1.00
C31    C     0.50131   0.93127   0.39918   0.00000  Uiso   1.00
C32    C     0.50468   0.86431   0.51102   0.00000  Uiso   1.00
H12    H     0.49906   0.88719   0.30196   0.00000  Uiso   1.00
H13    H     0.50827   0.90423   0.60979   0.00000  Uiso   1.00
C33    C     0.50137   0.06442   0.39962   0.00000  Uiso   1.00
C34    C     0.49577   0.13100   0.51134   0.00000  Uiso   1.00
H14    H     0.50551   0.10883   0.30292   0.00000  Uiso   1.00
H15    H     0.49012   0.09082   0.60946   0.00000  Uiso   1.00
C35    C     0.53087   0.56156   0.92540   0.00000  Uiso   1.00
N3     N     0.49311   0.50002   0.86173   0.00000  Uiso   1.00
H16    H     0.56381   0.60715   0.86814   0.00000  Uiso   1.00
H17    H     0.45834   0.47031   0.91550   0.00000  Uiso   1.00
C36    C     0.53021   0.57786   0.07340   0.00000  Uiso   1.00
N4     N     0.50872   0.49735   0.15233   0.00000  Uiso   1.00
H18    H     0.49508   0.41993   0.10611   0.00000  Uiso   1.00
N5     N     0.67759   0.33287   0.34243   0.00000  Uiso   1.00
O13    O     0.63486   0.26809   0.38439   0.00000  Uiso   1.00
O14    O     0.70281   0.30338   0.23042   0.00000  Uiso   1.00
N6     N     0.55827   0.68163   0.12635   0.00000  Uiso   1.00
O15    O     0.56027   0.77838   0.05298   0.00000  Uiso   1.00
O16    O     0.59466   0.66965   0.22421   0.00000  Uiso   1.00
