# Generated by REPEAT Assigner based on pymatgen
data_DB0-m29_o90_o470_f0_pts.sym.46
_audit_creation_date              2022-05-24
_audit_creation_method            REPEAT_Assigner
_cell_length_a                    12.454783
_cell_length_b                    16.023729
_cell_length_c                    13.147973
_cell_angle_alpha                 100.083404
_cell_angle_beta                  80.722998
_cell_angle_gamma                 71.038839
_cell_volume                      2375.291365
_symmetry_space_group_name_H-M    P1
_symmetry_Int_Tables_number       1
loop_
    _symmetry_equiv_pos_site_id
    _symmetry_equiv_pos_as_xyz
    1  x,y,z
loop_
    _atom_site_type_symbol
    _atom_site_label
    _atom_site_fract_x
    _atom_site_fract_y
    _atom_site_fract_z
    _atom_type_partial_charge
    C   C1   0.727171  0.048165  0.056576  -0.158832
    C   C2   0.668536  0.054768  0.976189  -0.067009
    C   C3   0.727299  0.033033  0.872110  0.064327
    C   C4   0.845689  0.012038  0.847548  -0.078013
    C   C5   0.906763  0.013473  0.927301  0.001489
    C   C6   0.848017  0.030368  0.032543  0.253086
    C   C7   0.027820  0.989284  0.900656  -0.002827
    C   C8   0.090282  0.989899  0.980187  -0.214955
    C   C9   0.031405  0.006987  0.085511  0.376112
    C   C10  0.912407  0.023242  0.109499  -0.348492
    C   C11  0.210799  0.971929  0.957465  0.141696
    C   C12  0.270284  0.960668  0.036549  -0.124704
    C   C13  0.212361  0.980688  0.140607  0.018374
    C   C14  0.092159  0.006878  0.166505  -0.204727
    H   H1   0.575837  0.068726  0.994440  0.133210
    H   H2   0.887496  0.993880  0.764432  0.094298
    H   H3   0.362013  0.950769  0.019639  0.109888
    H   H4   0.869869  0.029408  0.189248  0.213047
    O   O1   0.579816  0.004269  0.144356  -0.619947
    C   C15  0.658223  0.041795  0.155600  0.729452
    O   O2   0.713756  0.856282  0.206422  -0.524110
    O   O3   0.669264  0.074050  0.250596  -0.523641
    O   O4   0.563246  0.896160  0.349478  -0.543598
    C   C16  0.672604  0.847442  0.300510  0.534251
    Fe  Fe1  0.489525  0.984884  0.270446  1.455944
    O   O5   0.375495  0.933223  0.219453  -0.635894
    O   O6   0.260318  0.082634  0.263334  -0.574897
    C   C17  0.277667  0.997790  0.219903  0.771500
    O   O7   0.431548  0.108764  0.369879  -0.571453
    O   O8   0.332502  0.042119  0.468142  -0.476037
    C   C18  0.362294  0.112297  0.458587  0.704312
    O   O9   0.583775  0.853531  0.618747  -0.605247
    O   O10  0.636078  0.944309  0.521921  -0.466999
    C   C19  0.644748  0.862621  0.532712  0.689816
    O   O11  0.552469  0.042281  0.814488  -0.540873
    O   O12  0.726548  0.958041  0.698137  -0.420379
    C   C20  0.666766  0.015756  0.788786  0.513706
    O   O13  0.236721  0.057744  0.829196  -0.489473
    O   O14  0.412165  0.057856  0.640878  -0.501484
    C   C21  0.364860  0.143939  0.693135  0.544475
    O   O15  0.385664  0.927037  0.820974  -0.582473
    C   C22  0.276897  0.982706  0.860618  0.562825
    O   O16  0.365802  0.166661  0.793654  -0.429347
    Fe  Fe2  0.481454  0.970937  0.723725  1.401914
    C   C23  0.300406  0.200158  0.535614  -0.016386
    C   C24  0.237975  0.271062  0.496838  -0.023545
    H   H5   0.235279  0.258124  0.414004  0.124263
    C   C25  0.179043  0.357091  0.562118  -0.347417
    C   C26  0.185607  0.373073  0.666864  0.035562
    H   H6   0.140228  0.439858  0.719743  0.072068
    C   C27  0.246297  0.302930  0.706917  -0.107940
    H   H7   0.247042  0.318138  0.790070  0.121230
    C   C28  0.303206  0.215399  0.643090  0.024150
    N   N1   0.083289  0.517748  0.569870  -0.251416
    N   N2   0.016460  0.583884  0.534962  -0.259515
    C   C29  0.970773  0.564362  0.451777  0.937384
    N   N3   0.995217  0.476778  0.403405  -0.277209
    N   N4   0.063308  0.410601  0.437511  -0.223021
    C   C30  0.107724  0.430341  0.521416  0.780026
    C   C31  0.913869  0.638427  0.306899  0.302273
    C   C32  0.838331  0.706527  0.273765  -0.179399
    H   H8   0.853009  0.704721  0.190102  0.158464
    C   C33  0.747598  0.778104  0.344919  0.063938
    C   C34  0.731186  0.781602  0.453336  -0.094032
    C   C35  0.802346  0.709150  0.486534  0.208181
    C   C36  0.894654  0.638273  0.413964  -0.658704
    C   C37  0.015595  0.570838  0.226256  0.470182
    O   O17  0.109390  0.538894  0.248567  -0.446467
    O   O18  0.007751  0.548887  0.121206  -0.554814
    H   H9   0.085583  0.504134  0.075560  0.441900
    C   C38  0.780717  0.705885  0.598695  0.660718
    O   O19  0.749072  0.646693  0.624960  -0.520103
    O   O20  0.800911  0.767596  0.674623  -0.583809
    H   H10  0.783557  0.754808  0.746969  0.422438
    C   C39  0.031858  0.036685  0.279865  0.643726
    O   O21  0.067091  0.991161  0.341222  -0.480853
    O   O22  0.938034  0.119115  0.318770  -0.544865
    H   H11  0.908578  0.129758  0.398058  0.419981
    C   C40  0.089801  0.949729  0.788220  0.695471
    O   O23  0.151599  0.869292  0.758785  -0.502496
    O   O24  0.080398  0.003918  0.715533  -0.534161
    H   H12  0.129031  0.966099  0.642607  0.415886
