# Generated by REPEAT Assigner based on pymatgen
data_DB0-m3_o23_o25_f0_pcu.sym.166
_audit_creation_date              2022-05-24
_audit_creation_method            REPEAT_Assigner
_cell_length_a                    16.026412
_cell_length_b                    15.963435
_cell_length_c                    14.806004
_cell_angle_alpha                 90.044630
_cell_angle_beta                  90.079107
_cell_angle_gamma                 90.005340
_cell_volume                      3787.912810
_symmetry_space_group_name_H-M    P1
_symmetry_Int_Tables_number       1
loop_
    _symmetry_equiv_pos_site_id
    _symmetry_equiv_pos_as_xyz
    1  x,y,z
loop_
    _atom_site_type_symbol
    _atom_site_label
    _atom_site_fract_x
    _atom_site_fract_y
    _atom_site_fract_z
    _atom_type_partial_charge
    O   O1   0.501288  0.375219  0.580888  -0.722955
    O   O2   0.501793  0.375301  0.424732  -0.701905
    C   C1   0.501472  0.336409  0.502750  0.938949
    O   O3   0.377522  0.500018  0.581142  -0.693006
    O   O4   0.377462  0.500515  0.424997  -0.682143
    C   C2   0.338784  0.500317  0.503029  0.886705
    Zn  Zn1  0.502023  0.500155  0.605028  1.096929
    Zn  Zn2  0.501581  0.499970  0.399229  1.089655
    O   O5   0.501768  0.624824  0.579509  -0.708468
    O   O6   0.502275  0.624905  0.423383  -0.698656
    O   O7   0.626143  0.499547  0.579258  -0.689980
    O   O8   0.626081  0.500042  0.423127  -0.694996
    C   C3   0.502063  0.663740  0.501502  0.910538
    C   C4   0.664835  0.499678  0.501233  0.875216
    C   C5   0.973817  0.421550  0.526411  -0.558465
    C   C6   0.028224  0.443074  0.445797  0.513465
    H   H1   0.949509  0.358774  0.544637  0.195864
    H   H2   0.949304  0.529519  0.351410  0.067166
    C   C7   0.249291  0.500143  0.502817  -0.215344
    C   C8   0.754354  0.498860  0.501413  -0.166462
    C   C9   0.028371  0.480489  0.581485  0.630237
    C   C10  0.082861  0.499567  0.501565  0.210862
    C   C11  0.973729  0.554887  0.559521  -0.253763
    C   C12  0.920768  0.497070  0.502119  0.673235
    C   C13  0.028301  0.573861  0.477629  -0.107851
    C   C14  0.973560  0.516335  0.420119  -0.227404
    C   C15  0.174138  0.499914  0.502323  -0.242627
    C   C16  0.829523  0.498037  0.501723  -0.366792
    H   H3   0.051167  0.636692  0.457542  0.060167
    H   H4   0.949532  0.600739  0.609305  0.079313
    C   C17  0.543856  0.046277  0.586098  0.451631
    C   C18  0.537051  0.047533  0.414289  -0.083224
    C   C19  0.536504  0.952444  0.413893  -0.155016
    H   H5   0.621731  0.934567  0.559565  0.071165
    H   H6   0.499311  0.069957  0.356347  0.009109
    H   H7   0.600367  0.072492  0.403589  0.055614
    H   H8   0.600827  0.928659  0.403839  0.043481
    H   H9   0.496924  0.929933  0.357382  0.038249
    C   C20  0.501853  0.753606  0.501719  -0.244409
    C   C21  0.498894  0.079505  0.501826  0.321828
    C   C22  0.557676  0.952114  0.578704  0.290883
    C   C23  0.501424  0.920695  0.502750  0.433873
    C   C24  0.411784  0.952395  0.512014  -0.340141
    C   C25  0.409269  0.047499  0.502537  0.355850
    C   C26  0.501628  0.829075  0.502137  -0.250371
    C   C27  0.499989  0.171126  0.502235  -0.262297
    C   C28  0.500832  0.246585  0.502526  -0.221350
    H   H10  0.379895  0.060390  0.436329  0.001041
    H   H11  0.383509  0.930502  0.575766  0.059803
    H   H12  0.499901  0.054539  0.642866  -0.088868
    H   H13  0.374015  0.925144  0.456500  0.084950
    C   C29  0.481229  0.413241  0.053470  -0.143609
    C   C30  0.587411  0.525764  0.052838  -0.129507
    C   C31  0.588643  0.519130  0.950841  -0.174914
    H   H14  0.515460  0.365279  0.922635  0.064080
    H   H15  0.531030  0.368989  0.074168  0.050554
    H   H16  0.600859  0.591243  0.073256  0.047901
    H   H17  0.635766  0.483915  0.081739  0.059398
    H   H18  0.631820  0.468341  0.930218  0.056090
    H   H19  0.610525  0.579193  0.921687  0.067508
    N   N1   0.501128  0.499328  0.740030  -0.028809
    C   C32  0.502093  0.500400  0.087315  0.595318
    C   C33  0.474656  0.414581  0.951464  -0.159959
    C   C34  0.501472  0.499756  0.916938  0.618195
    C   C35  0.441469  0.565942  0.951044  -0.130252
    C   C36  0.437268  0.561819  0.053094  -0.146521
    C   C37  0.501195  0.499439  0.818164  -0.230141
    C   C38  0.502398  0.500704  0.186092  -0.226378
    N   N2   0.502496  0.500802  0.264227  -0.025613
    H   H20  0.374240  0.540833  0.074040  0.047011
    H   H21  0.449451  0.624864  0.081711  0.060425
    H   H22  0.378467  0.554841  0.922382  0.048930
    H   H23  0.421016  0.392363  0.082596  0.063346
    H   H24  0.409203  0.402269  0.930999  0.049657
    H   H25  0.463510  0.628827  0.930061  0.039803
    N   N3   0.056817  0.385353  0.377568  -0.739527
    C   C39  0.104348  0.319340  0.402188  0.755264
    O   O9   0.127494  0.311548  0.480053  -0.443428
    C   C40  0.130009  0.255702  0.333830  -0.571083
    H   H26  0.035621  0.390541  0.312197  0.314115
    H   H27  0.104231  0.271440  0.266430  0.118895
    H   H28  0.106668  0.193242  0.354643  0.146941
    H   H29  0.199072  0.253934  0.329811  0.177367
    N   N4   0.361559  0.085717  0.574874  -0.654324
    C   C41  0.301957  0.142196  0.552129  0.730593
    O   O10  0.303363  0.177512  0.479119  -0.517945
    C   C42  0.235909  0.165591  0.618531  -0.607700
    H   H30  0.350143  0.051436  0.632304  0.281151
    H   H31  0.243839  0.130973  0.682845  0.110766
    H   H32  0.173756  0.150923  0.589548  0.171040
    H   H33  0.239708  0.233775  0.632355  0.225175
    N   N5   0.536939  0.911481  0.663071  -0.620102
    C   C43  0.594315  0.916835  0.730014  0.750754
    O   O11  0.666554  0.935080  0.713366  -0.594930
    C   C44  0.570139  0.898796  0.825357  -0.571798
    H   H34  0.475921  0.911789  0.684201  0.263866
    H   H35  0.503497  0.880687  0.829886  0.119794
    H   H36  0.581017  0.955415  0.867187  0.148622
    H   H37  0.609041  0.846710  0.851494  0.177048
    N   N6   0.059462  0.469535  0.672281  -0.836349
    C   C45  0.094725  0.395201  0.693193  0.843213
    O   O12  0.073964  0.331303  0.654257  -0.571293
    C   C46  0.156636  0.390469  0.768108  -0.450707
    H   H38  0.088726  0.520743  0.700267  0.317693
    H   H39  0.127735  0.413430  0.831480  0.103007
    H   H40  0.211680  0.429624  0.751453  0.109314
    H   H41  0.176731  0.324532  0.777166  0.112754
    N   N7   0.616725  0.095295  0.611552  -0.761425
    C   C47  0.693429  0.089504  0.573069  0.809247
    O   O13  0.706701  0.043937  0.508754  -0.615022
    C   C48  0.764123  0.139747  0.610304  -0.490330
    H   H42  0.611773  0.130312  0.669644  0.330886
    H   H43  0.743545  0.178876  0.668000  0.099170
    H   H44  0.789050  0.181084  0.556565  0.133125
    H   H45  0.814157  0.096757  0.633311  0.154362
