# Generated by REPEAT Assigner based on pymatgen
data_DB0-m3_o17_o17_f0_pcu.sym.6
_audit_creation_date              2022-05-24
_audit_creation_method            REPEAT_Assigner
_cell_length_a                    22.032602
_cell_length_b                    20.509916
_cell_length_c                    13.895832
_cell_angle_alpha                 90.000000
_cell_angle_beta                  90.000000
_cell_angle_gamma                 90.000000
_cell_volume                      6279.343366
_symmetry_space_group_name_H-M    P1
_symmetry_Int_Tables_number       1
loop_
    _symmetry_equiv_pos_site_id
    _symmetry_equiv_pos_as_xyz
    1  x,y,z
loop_
    _atom_site_type_symbol
    _atom_site_label
    _atom_site_fract_x
    _atom_site_fract_y
    _atom_site_fract_z
    _atom_type_partial_charge
    O   O1    0.064007  0.431299  0.583170  -0.757749
    O   O2    0.935993  0.568701  0.416830  -0.757734
    O   O3    0.935993  0.568701  0.583170  -0.757737
    O   O4    0.064007  0.431299  0.416830  -0.757744
    O   O5    0.935993  0.431299  0.416830  -0.757744
    O   O6    0.064007  0.568701  0.583170  -0.757737
    O   O7    0.064007  0.568701  0.416830  -0.757734
    O   O8    0.935993  0.431299  0.583170  -0.757749
    O   O9    0.564007  0.931299  0.583170  -0.757746
    O   O10   0.435993  0.068701  0.416830  -0.757744
    O   O11   0.435993  0.068701  0.583170  -0.757749
    O   O12   0.564007  0.931299  0.416830  -0.757741
    O   O13   0.435993  0.931299  0.416830  -0.757741
    O   O14   0.564007  0.068701  0.583170  -0.757749
    O   O15   0.564007  0.068701  0.416830  -0.757744
    O   O16   0.435993  0.931299  0.583170  -0.757746
    C   C1    0.083960  0.409899  0.500000  0.938159
    C   C2    0.916040  0.590101  0.500000  0.938156
    C   C3    0.916040  0.409899  0.500000  0.938158
    C   C4    0.083960  0.590101  0.500000  0.938156
    C   C5    0.583960  0.909899  0.500000  0.938148
    C   C6    0.416040  0.090101  0.500000  0.938152
    C   C7    0.416040  0.909899  0.500000  0.938148
    C   C8    0.583960  0.090101  0.500000  0.938152
    Zn  Zn1   0.000000  0.500000  0.609629  1.090954
    Zn  Zn2   0.000000  0.500000  0.390371  1.090942
    Zn  Zn3   0.500000  0.000000  0.609629  1.090959
    Zn  Zn4   0.500000  0.000000  0.390371  1.090944
    C   C9    0.119921  0.703759  0.500000  -0.362033
    C   C10   0.880079  0.296241  0.500000  -0.362150
    C   C11   0.880079  0.703759  0.500000  -0.362033
    C   C12   0.119921  0.296241  0.500000  -0.362150
    C   C13   0.619921  0.203759  0.500000  -0.362158
    C   C14   0.380079  0.796241  0.500000  -0.362128
    C   C15   0.380079  0.203759  0.500000  -0.362158
    C   C16   0.619921  0.796241  0.500000  -0.362128
    C   C17   0.132880  0.638039  0.500000  0.059532
    C   C18   0.867120  0.361961  0.500000  0.059664
    C   C19   0.867120  0.638039  0.500000  0.059532
    C   C20   0.132880  0.361961  0.500000  0.059664
    C   C21   0.632880  0.138039  0.500000  0.059676
    C   C22   0.367120  0.861961  0.500000  0.059674
    C   C23   0.367120  0.138039  0.500000  0.059676
    C   C24   0.632880  0.861961  0.500000  0.059674
    C   C25   0.192177  0.617166  0.500000  -0.385051
    C   C26   0.807823  0.382834  0.500000  -0.385161
    C   C27   0.807823  0.617166  0.500000  -0.385051
    C   C28   0.192177  0.382834  0.500000  -0.385161
    C   C29   0.692177  0.117166  0.500000  -0.385177
    C   C30   0.307823  0.882834  0.500000  -0.385117
    C   C31   0.307823  0.117166  0.500000  -0.385178
    C   C32   0.692177  0.882834  0.500000  -0.385117
    C   C33   0.238806  0.661915  0.500000  0.315721
    C   C34   0.761194  0.338085  0.500000  0.315809
    C   C35   0.761194  0.661915  0.500000  0.315721
    C   C36   0.238806  0.338085  0.500000  0.315809
    C   C37   0.738806  0.161915  0.500000  0.315823
    C   C38   0.261194  0.838085  0.500000  0.315584
    C   C39   0.261194  0.161915  0.500000  0.315823
    C   C40   0.738806  0.838085  0.500000  0.315584
    C   C41   0.226344  0.727808  0.500000  -0.143754
    C   C42   0.773656  0.272192  0.500000  -0.143714
    C   C43   0.773656  0.727808  0.500000  -0.143754
    C   C44   0.226344  0.272192  0.500000  -0.143714
    C   C45   0.726344  0.227808  0.500000  -0.143725
    C   C46   0.273656  0.772192  0.500000  -0.143557
    C   C47   0.273656  0.227808  0.500000  -0.143725
    C   C48   0.726344  0.772192  0.500000  -0.143557
    C   C49   0.166669  0.749162  0.500000  0.335329
    C   C50   0.833331  0.250838  0.500000  0.335215
    C   C51   0.833331  0.749162  0.500000  0.335329
    C   C52   0.166669  0.250838  0.500000  0.335215
    C   C53   0.666669  0.249162  0.500000  0.335224
    C   C54   0.333331  0.750838  0.500000  0.335154
    C   C55   0.333331  0.249162  0.500000  0.335224
    C   C56   0.666669  0.750838  0.500000  0.335154
    C   C57   0.298019  0.640497  0.500000  -0.230968
    C   C58   0.701981  0.359503  0.500000  -0.230998
    C   C59   0.701981  0.640497  0.500000  -0.230968
    C   C60   0.298019  0.359503  0.500000  -0.230997
    C   C61   0.798019  0.140497  0.500000  -0.231009
    C   C62   0.201981  0.859503  0.500000  -0.230644
    C   C63   0.201981  0.140497  0.500000  -0.231009
    C   C64   0.798019  0.859503  0.500000  -0.230644
    C   C65   0.845263  0.184398  0.500000  -0.087048
    C   C66   0.154737  0.815602  0.500000  -0.087416
    C   C67   0.154737  0.184398  0.500000  -0.087048
    C   C68   0.845263  0.815602  0.500000  -0.087416
    C   C69   0.345263  0.684398  0.500000  -0.087048
    C   C70   0.654737  0.315602  0.500000  -0.087056
    C   C71   0.654737  0.684398  0.500000  -0.087048
    C   C72   0.345263  0.315602  0.500000  -0.087057
    H   H1    0.072819  0.718113  0.500000  0.139160
    H   H2    0.927181  0.281887  0.500000  0.139178
    H   H3    0.927181  0.718113  0.500000  0.139160
    H   H4    0.072819  0.281887  0.500000  0.139178
    H   H5    0.572819  0.218113  0.500000  0.139179
    H   H6    0.427181  0.781887  0.500000  0.139173
    H   H7    0.427181  0.218113  0.500000  0.139179
    H   H8    0.572819  0.781887  0.500000  0.139173
    H   H9    0.201869  0.565505  0.500000  0.153656
    H   H10   0.798131  0.434495  0.500000  0.153673
    H   H11   0.798131  0.565505  0.500000  0.153656
    H   H12   0.201869  0.434495  0.500000  0.153673
    H   H13   0.701869  0.065505  0.500000  0.153682
    H   H14   0.298131  0.934495  0.500000  0.153653
    H   H15   0.298131  0.065505  0.500000  0.153682
    H   H16   0.701869  0.934495  0.500000  0.153653
    H   H17   0.307824  0.588854  0.500000  0.138372
    H   H18   0.692176  0.411146  0.500000  0.138381
    H   H19   0.692176  0.588854  0.500000  0.138372
    H   H20   0.307824  0.411146  0.500000  0.138381
    H   H21   0.807824  0.088854  0.500000  0.138385
    H   H22   0.192176  0.911146  0.500000  0.138316
    H   H23   0.192176  0.088854  0.500000  0.138385
    H   H24   0.807824  0.911146  0.500000  0.138316
    C   C73   0.946812  0.500000  0.801416  -0.271828
    C   C74   0.053188  0.500000  0.198584  -0.271834
    C   C75   0.053188  0.500000  0.801416  -0.271828
    C   C76   0.946812  0.500000  0.198584  -0.271834
    C   C77   0.446812  0.000000  0.801416  -0.271832
    C   C78   0.553188  0.000000  0.198584  -0.271836
    C   C79   0.553188  0.000000  0.801416  -0.271832
    C   C80   0.446812  0.000000  0.198584  -0.271836
    N   N1    0.000000  0.500000  0.753569  0.161133
    N   N2    0.000000  0.500000  0.246431  0.161140
    N   N3    0.500000  0.000000  0.753569  0.161138
    N   N4    0.500000  0.000000  0.246431  0.161143
    C   C81   0.053937  0.500000  0.900717  0.217094
    C   C82   0.946063  0.500000  0.099283  0.217104
    C   C83   0.946063  0.500000  0.900717  0.217094
    C   C84   0.053937  0.500000  0.099283  0.217104
    C   C85   0.553937  0.000000  0.900717  0.217097
    C   C86   0.446063  0.000000  0.099283  0.217106
    C   C87   0.446063  0.000000  0.900717  0.217098
    C   C88   0.553937  0.000000  0.099283  0.217106
    C   C89   0.000000  0.500000  0.950483  -0.020027
    C   C90   0.000000  0.500000  0.049517  -0.020041
    C   C91   0.500000  0.000000  0.950483  -0.020030
    C   C92   0.500000  0.000000  0.049517  -0.020043
    C   C93   0.108223  0.500000  0.950341  -0.196243
    C   C94   0.891777  0.500000  0.049659  -0.196247
    C   C95   0.891777  0.500000  0.950341  -0.196243
    C   C96   0.108223  0.500000  0.049659  -0.196246
    C   C97   0.608223  0.000000  0.950341  -0.196246
    C   C98   0.391777  0.000000  0.049659  -0.196247
    C   C99   0.391777  0.000000  0.950341  -0.196246
    C   C100  0.608223  0.000000  0.049659  -0.196247
    H   H25   0.904647  0.500000  0.761672  0.189089
    H   H26   0.095353  0.500000  0.238328  0.189089
    H   H27   0.095353  0.500000  0.761672  0.189089
    H   H28   0.904647  0.500000  0.238328  0.189089
    H   H29   0.404647  0.000000  0.761672  0.189089
    H   H30   0.595353  0.000000  0.238328  0.189087
    H   H31   0.595353  0.000000  0.761672  0.189089
    H   H32   0.404647  0.000000  0.238328  0.189087
    H   H33   0.150840  0.500000  0.911810  0.143902
    H   H34   0.849160  0.500000  0.088190  0.143904
    H   H35   0.849160  0.500000  0.911810  0.143902
    H   H36   0.150840  0.500000  0.088190  0.143904
    H   H37   0.650840  0.000000  0.911810  0.143904
    H   H38   0.349160  0.000000  0.088190  0.143905
    H   H39   0.349160  0.000000  0.911810  0.143904
    H   H40   0.650840  0.000000  0.088190  0.143905
    Cl  Cl1   0.919369  0.153307  0.500000  -0.053552
    Cl  Cl2   0.080631  0.846693  0.500000  -0.053488
    Cl  Cl3   0.080631  0.153307  0.500000  -0.053552
    Cl  Cl4   0.919369  0.846693  0.500000  -0.053488
    Cl  Cl5   0.419369  0.653307  0.500000  -0.053549
    Cl  Cl6   0.580631  0.346693  0.500000  -0.053550
    Cl  Cl7   0.580631  0.653307  0.500000  -0.053549
    Cl  Cl8   0.419369  0.346693  0.500000  -0.053550
