# Generated by REPEAT Assigner based on pymatgen
data_DB0-m29_o99_o143_f0_pts.sym.104
_audit_creation_date              2022-05-24
_audit_creation_method            REPEAT_Assigner
_cell_length_a                    15.868523
_cell_length_b                    16.988096
_cell_length_c                    11.834775
_cell_angle_alpha                 71.813433
_cell_angle_beta                  96.683526
_cell_angle_gamma                 98.101716
_cell_volume                      2991.843080
_symmetry_space_group_name_H-M    P1
_symmetry_Int_Tables_number       1
loop_
    _symmetry_equiv_pos_site_id
    _symmetry_equiv_pos_as_xyz
    1  x,y,z
loop_
    _atom_site_type_symbol
    _atom_site_label
    _atom_site_fract_x
    _atom_site_fract_y
    _atom_site_fract_z
    _atom_type_partial_charge
    C   C1   0.224132  0.010503  0.814295  -0.242992
    H   H1   0.235943  0.008132  0.727354  0.168615
    C   C2   0.141310  0.004738  0.842133  0.204086
    C   C3   0.125644  0.011301  0.950645  0.120765
    C   C4   0.192702  0.020198  0.032709  -0.172163
    H   H2   0.178142  0.022819  0.118291  0.154987
    C   C5   0.276590  0.023926  0.006982  0.007138
    C   C6   0.291987  0.021021  0.894588  -0.005944
    C   C7   0.039362  0.008679  0.978353  -0.067661
    C   C8   0.966689  0.006182  0.000785  -0.178760
    C   C9   0.813216  0.994672  0.946023  -0.231131
    H   H3   0.827622  0.992126  0.860330  0.174866
    C   C10  0.729451  0.991730  0.971699  0.028139
    C   C11  0.714258  0.995307  0.083830  0.014069
    C   C12  0.782296  0.005736  0.163962  -0.141097
    H   H4   0.770937  0.008784  0.250716  0.165082
    C   C13  0.864836  0.009365  0.136633  -0.180891
    H   H5   0.917439  0.016366  0.200800  0.132596
    C   C14  0.880301  0.002991  0.028271  0.319490
    O   O1   0.538680  0.121188  0.617737  -0.611802
    C   C15  0.479906  0.137761  0.528363  0.653784
    O   O2   0.432268  0.094668  0.858659  -0.523060
    O   O3   0.410195  0.085856  0.529074  -0.523345
    O   O4   0.394517  0.979131  0.798235  -0.575296
    C   C16  0.377538  0.029868  0.854393  0.683336
    Fe  Fe1  0.508443  0.011389  0.734566  1.393386
    O   O5   0.583838  0.007285  0.884231  -0.428208
    O   O6   0.679146  0.981017  0.776190  -0.473930
    C   C17  0.660939  0.990805  0.875975  0.489743
    O   O7   0.520423  0.934159  0.640583  -0.429866
    O   O8   0.506902  0.840561  0.823039  -0.468981
    C   C18  0.515805  0.856409  0.708964  0.506523
    O   O9   0.486477  0.082142  0.339036  -0.395997
    O   O10  0.501904  0.171334  0.156174  -0.350905
    C   C19  0.493491  0.159403  0.269379  0.417660
    O   O11  0.422892  0.011353  0.093151  -0.432662
    O   O12  0.326185  0.032394  0.203881  -0.477731
    C   C20  0.345017  0.025109  0.102810  0.484470
    O   O13  0.594290  0.930991  0.448015  -0.509357
    O   O14  0.612189  0.037056  0.181132  -0.590946
    C   C21  0.628718  0.986793  0.123939  0.628427
    O   O15  0.466152  0.895429  0.359046  -0.574703
    C   C22  0.524970  0.878690  0.448093  0.599066
    O   O16  0.573354  0.922740  0.118154  -0.493361
    Fe  Fe2  0.497887  0.005527  0.243719  1.376360
    C   C23  0.518167  0.797047  0.538266  0.040486
    C   C24  0.512589  0.728257  0.498168  -0.203815
    H   H6   0.512789  0.737746  0.403562  0.152880
    C   C25  0.506784  0.648560  0.576559  0.097227
    C   C26  0.505139  0.637921  0.696672  -0.086679
    H   H7   0.501787  0.576244  0.760188  0.060431
    C   C27  0.509861  0.706102  0.737688  -0.147731
    H   H8   0.508185  0.695129  0.832383  0.147206
    C   C28  0.516376  0.786473  0.659764  0.005698
    C   C29  0.448872  0.505212  0.576606  -0.101113
    C   C30  0.446721  0.437405  0.535177  -0.132297
    C   C31  0.499807  0.439671  0.449160  0.101555
    C   C32  0.554982  0.510826  0.405297  -0.148947
    C   C33  0.556907  0.578590  0.446431  -0.120306
    C   C34  0.503965  0.576291  0.532469  0.052680
    C   C35  0.504174  0.379944  0.284838  -0.231024
    H   H9   0.509998  0.442213  0.223078  0.109286
    C   C36  0.503625  0.313599  0.241108  0.171139
    C   C37  0.493296  0.231322  0.316649  -0.044989
    C   C38  0.486801  0.219677  0.438197  0.012284
    C   C39  0.489680  0.287517  0.479986  -0.218803
    H   H10  0.486455  0.276618  0.574420  0.153230
    C   C40  0.497354  0.367802  0.403993  0.104327
    H   H11  0.405604  0.502616  0.642076  0.100822
    H   H12  0.401625  0.383360  0.569095  0.098833
    H   H13  0.598793  0.513702  0.340374  0.124629
    H   H14  0.602022  0.632633  0.412550  0.104818
    C   C41  0.516919  0.335062  0.114245  0.016780
    C   C42  0.598088  0.345275  0.074453  0.276874
    C   C43  0.677368  0.334716  0.157066  -0.374761
    C   C44  0.606938  0.365231  0.953817  -0.298608
    C   C45  0.536431  0.375542  0.873155  0.038427
    C   C46  0.456319  0.366807  0.912422  -0.098060
    C   C47  0.446698  0.347024  0.032609  -0.158883
    H   H15  0.665200  0.318868  0.252136  0.089872
    H   H16  0.720817  0.393601  0.133447  0.096498
    H   H17  0.709755  0.284312  0.145455  0.126350
    H   H18  0.669667  0.372628  0.922198  0.143468
    H   H19  0.544230  0.390626  0.779066  0.074454
    H   H20  0.400993  0.375207  0.849098  0.109110
    H   H21  0.383692  0.339947  0.063230  0.104678
    C   C48  0.070908  0.996458  0.753510  -0.107561
    C   C49  0.017507  0.922443  0.764448  0.299734
    C   C50  0.029387  0.844285  0.864528  -0.370664
    C   C51  0.951307  0.919423  0.678597  -0.227367
    C   C52  0.938584  0.988380  0.581952  -0.098681
    C   C53  0.992328  0.061030  0.570104  -0.131202
    C   C54  0.058300  0.064905  0.655482  -0.108303
    H   H22  0.087549  0.849796  0.924088  0.096604
    H   H23  0.034344  0.793280  0.826516  0.093999
    H   H24  0.972929  0.827293  0.917902  0.103066
    H   H25  0.909403  0.862277  0.686620  0.125751
    H   H26  0.886728  0.985260  0.515084  0.126845
    H   H27  0.982628  0.115080  0.494064  0.113786
    H   H28  0.099909  0.122356  0.646164  0.094169
