# Generated by REPEAT Assigner based on pymatgen
data_DB0-m9_o20_o23_f0_sra.sym.108
_audit_creation_date              2022-05-24
_audit_creation_method            REPEAT_Assigner
_cell_length_a                    6.320599
_cell_length_b                    18.832127
_cell_length_c                    21.137225
_cell_angle_alpha                 90.711692
_cell_angle_beta                  89.935644
_cell_angle_gamma                 90.005133
_cell_volume                      2515.775053
_symmetry_space_group_name_H-M    P1
_symmetry_Int_Tables_number       1
loop_
    _symmetry_equiv_pos_site_id
    _symmetry_equiv_pos_as_xyz
    1  x,y,z
loop_
    _atom_site_type_symbol
    _atom_site_label
    _atom_site_fract_x
    _atom_site_fract_y
    _atom_site_fract_z
    _atom_type_partial_charge
    O  O1   0.519795  0.539205  0.408212  -0.588636
    O  O2   0.144690  0.551470  0.580200  -0.604242
    O  O3   0.936620  0.436073  0.531987  -0.400712
    C  C1   0.320273  0.588134  0.582169  0.896432
    O  O4   0.240472  0.595981  0.456667  -0.436377
    O  O5   0.025045  0.479990  0.408652  -0.576408
    C  C2   0.351021  0.579793  0.405537  0.853356
    O  O6   0.440345  0.592303  0.531346  -0.449318
    O  O7   0.334699  0.458014  0.494976  -0.551097
    V  V1   0.060536  0.521477  0.493936  1.185917
    O  O8   0.736448  0.426841  0.457849  -0.484174
    C  C3   0.863423  0.434912  0.407630  0.849963
    O  O9   0.650685  0.480434  0.581149  -0.627993
    C  C4   0.828944  0.446903  0.583290  0.868150
    V  V2   0.560607  0.504195  0.494599  1.355487
    O  O10  0.835013  0.567568  0.491265  -0.521038
    C  C5   0.004594  0.315313  0.769239  -0.171489
    C  C6   0.656278  0.272296  0.732930  0.011569
    C  C7   0.678953  0.222953  0.787823  -0.161298
    H  H1   0.048465  0.259171  0.855875  0.042789
    H  H2   0.909131  0.351303  0.799830  0.039341
    H  H3   0.574505  0.244772  0.693234  -0.018951
    H  H4   0.565547  0.320070  0.747817  0.032295
    H  H5   0.658124  0.252834  0.832942  0.036998
    H  H6   0.559502  0.179968  0.784129  0.016021
    C  C8   0.927281  0.094086  0.871145  -0.307724
    C  C9   0.876377  0.292989  0.712433  0.469849
    C  C10  0.058050  0.248757  0.804195  -0.023089
    C  C11  0.899447  0.192170  0.785086  0.422149
    C  C12  0.943475  0.165684  0.718269  0.178070
    C  C13  0.983888  0.230993  0.679645  -0.320387
    C  C14  0.912302  0.136339  0.830161  -0.216972
    C  C15  0.862941  0.350730  0.669239  -0.202467
    C  C16  0.849264  0.396393  0.631247  -0.283315
    H  H7   0.155864  0.242335  0.677872  0.062179
    H  H8   0.920008  0.223325  0.631193  0.100358
    H  H9   0.152040  0.342200  0.754160  0.049267
    H  H10  0.219943  0.231010  0.791458  -0.022186
    H  H11  0.800716  0.138626  0.699707  0.015804
    C  C17  0.918529  0.125088  0.145275  -0.346960
    C  C18  0.911286  0.172653  0.185060  0.165137
    C  C19  0.900258  0.228339  0.232191  -0.041977
    C  C20  0.890146  0.275478  0.272323  -0.033268
    C  C21  0.878535  0.330965  0.319627  0.153716
    C  C22  0.870132  0.378163  0.359740  -0.331554
    C  C23  0.347735  0.638650  0.634661  -0.365140
    C  C24  0.365347  0.679755  0.679515  0.171179
    C  C25  0.382804  0.727504  0.732925  -0.042956
    C  C26  0.396969  0.767938  0.778370  -0.045360
    C  C27  0.414908  0.815880  0.831624  0.191566
    C  C28  0.433535  0.857368  0.876158  -0.385826
    C  C29  0.355096  0.631229  0.357688  -0.325706
    C  C30  0.365951  0.676573  0.319122  0.159340
    C  C31  0.384587  0.730733  0.275549  -0.034165
    C  C32  0.402114  0.777262  0.238336  -0.034148
    C  C33  0.420469  0.830608  0.193972  0.161671
    C  C34  0.430850  0.874612  0.154190  -0.330493
    O  O11  0.344109  0.906089  0.979023  -0.447705
    O  O12  0.543845  0.905400  0.053858  -0.433529
    O  O13  0.759420  0.023089  0.098194  -0.581881
    C  C35  0.434030  0.923855  0.104552  0.860666
    O  O14  0.639533  0.944968  0.928917  -0.610138
    O  O15  0.847783  0.062071  0.973443  -0.410691
    C  C36  0.463288  0.908677  0.927916  0.905773
    O  O16  0.264644  0.964004  0.100545  -0.591671
    O  O17  0.449616  0.041670  0.011240  -0.544921
    V  V3   0.723802  0.978315  0.014219  1.174620
    O  O18  0.133368  0.016004  0.925708  -0.638965
    C  C37  0.952920  0.047972  0.922280  0.905564
    O  O19  0.047840  0.074208  0.047355  -0.485503
    C  C38  0.922536  0.067533  0.098133  0.871782
    V  V4   0.223800  0.995577  0.012930  1.337278
    O  O20  0.949382  0.932382  0.018289  -0.517135
    C  C39  0.135137  0.116520  0.713999  0.214282
    C  C40  0.089100  0.043263  0.740346  -0.262766
    C  C41  0.918219  0.005471  0.702441  0.140058
    C  C42  0.984230  0.999435  0.633709  -0.069094
    C  C43  0.026218  0.072640  0.607829  0.122825
    C  C44  0.202362  0.107501  0.645403  -0.289331
    H  H12  0.267938  0.140632  0.740886  -0.020209
    H  H13  0.040712  0.046956  0.790427  0.094659
    H  H14  0.235999  0.011175  0.737532  0.041117
    H  H15  0.766174  0.034394  0.706408  -0.055716
    H  H16  0.896069  0.951366  0.721505  -0.014528
    H  H17  0.856242  0.973496  0.606011  -0.004866
    H  H18  0.130409  0.967083  0.629972  0.026870
    H  H19  0.880679  0.105299  0.611334  -0.052847
    H  H20  0.074606  0.067780  0.557517  -0.007535
    H  H21  0.240460  0.159600  0.624515  0.041412
    H  H22  0.345061  0.073298  0.643050  0.098945
