# Generated by REPEAT Assigner based on pymatgen
data_DB0-m3_o8_o9_f0_pcu.sym.59
_audit_creation_date              2022-05-24
_audit_creation_method            REPEAT_Assigner
_cell_length_a                    11.008585
_cell_length_b                    15.989088
_cell_length_c                    17.125062
_cell_angle_alpha                 89.116698
_cell_angle_beta                  89.992983
_cell_angle_gamma                 92.783721
_cell_volume                      3010.389984
_symmetry_space_group_name_H-M    P1
_symmetry_Int_Tables_number       1
loop_
    _symmetry_equiv_pos_site_id
    _symmetry_equiv_pos_as_xyz
    1  x,y,z
loop_
    _atom_site_type_symbol
    _atom_site_label
    _atom_site_fract_x
    _atom_site_fract_y
    _atom_site_fract_z
    _atom_type_partial_charge
    O   O1   0.491227  0.427108  0.614302  -0.734668
    O   O2   0.509650  0.572925  0.385136  -0.735162
    O   O3   0.500063  0.571202  0.617768  -0.722505
    O   O4   0.500813  0.428831  0.381670  -0.720456
    C   C1   0.493557  0.497421  0.652638  0.863324
    C   C2   0.507320  0.502613  0.346800  0.860974
    O   O5   0.678506  0.433940  0.499918  -0.671888
    O   O6   0.322371  0.566093  0.499520  -0.675008
    O   O7   0.684674  0.577841  0.504719  -0.648782
    O   O8   0.316203  0.422192  0.494718  -0.645528
    C   C3   0.739274  0.506529  0.501866  0.768089
    C   C4   0.261603  0.493505  0.497571  0.767580
    Zn  Zn1  0.497352  0.404910  0.498264  1.073219
    Zn  Zn2  0.503525  0.595124  0.501174  1.087088
    H   H1   0.788258  0.874474  0.408761  0.080302
    H   H2   0.212615  0.125558  0.590677  0.079553
    C   C5   0.798756  0.746817  0.375644  -0.115018
    C   C6   0.202120  0.253216  0.623794  -0.113642
    H   H3   0.749075  0.755148  0.321863  0.083788
    H   H4   0.251801  0.244885  0.677575  0.083379
    C   C7   0.840788  0.669409  0.395263  0.029499
    C   C8   0.160089  0.330624  0.604174  0.029786
    H   H5   0.824240  0.617303  0.356563  0.042197
    H   H6   0.176637  0.382729  0.642874  0.042427
    C   C9   0.903122  0.658347  0.464437  0.093120
    C   C10  0.097755  0.341686  0.535001  0.088348
    C   C11  0.927178  0.725896  0.512255  -0.175198
    C   C12  0.073698  0.274137  0.487183  -0.173693
    H   H7   0.977535  0.718047  0.565850  0.089413
    H   H8   0.023341  0.281986  0.433587  0.089187
    C   C13  0.885594  0.803362  0.492376  -0.033237
    C   C14  0.115281  0.196671  0.507062  -0.033668
    H   H9   0.903658  0.855973  0.530254  0.058712
    H   H10  0.097216  0.144059  0.469183  0.058616
    C   C15  0.820867  0.813740  0.424291  -0.096114
    C   C16  0.180007  0.186293  0.575147  -0.094881
    C   C17  0.074014  0.570176  0.486558  -0.127835
    C   C18  0.926863  0.429857  0.512880  -0.128967
    H   H11  0.129842  0.626186  0.474217  0.145645
    H   H12  0.871035  0.373847  0.525221  0.145873
    C   C19  0.127179  0.494439  0.499853  -0.173585
    C   C20  0.873698  0.505594  0.499585  -0.173402
    C   C21  0.051567  0.423547  0.514273  0.094077
    C   C22  0.949310  0.576486  0.485165  0.091640
    C   C23  0.488711  0.492149  0.738211  -0.232071
    C   C24  0.512166  0.507884  0.261226  -0.228738
    C   C25  0.515668  0.561638  0.783181  -0.093606
    C   C26  0.485208  0.438395  0.216257  -0.093691
    C   C27  0.514729  0.555004  0.863760  -0.141736
    C   C28  0.486147  0.445029  0.135677  -0.143249
    C   C29  0.485719  0.478242  0.900014  0.472325
    C   C30  0.515157  0.521791  0.099424  0.471986
    C   C31  0.456663  0.409683  0.854836  -0.350024
    C   C32  0.544213  0.590350  0.144602  -0.348465
    C   C33  0.458164  0.416327  0.774644  0.069710
    C   C34  0.542712  0.583706  0.224793  0.066161
    N   N1   0.484897  0.467472  0.982202  -0.246844
    N   N2   0.515979  0.532561  0.017236  -0.246390
    H   H13  0.461139  0.378446  0.243484  0.134920
    H   H14  0.539737  0.621587  0.755954  0.135211
    H   H15  0.463358  0.388990  0.103213  0.064427
    H   H16  0.537518  0.611043  0.896225  0.063416
    H   H17  0.433044  0.349938  0.882632  0.124479
    H   H18  0.567832  0.650096  0.116806  0.124301
    H   H19  0.434006  0.361362  0.741158  0.113708
    H   H20  0.566871  0.638671  0.258280  0.114830
    N   N3   0.503688  0.720464  0.500247  -0.240037
    N   N4   0.497189  0.279570  0.499190  -0.229646
    C   C35  0.449192  0.769750  0.446382  0.148224
    C   C36  0.551686  0.230283  0.553056  0.139821
    C   C37  0.462153  0.856258  0.451392  -0.222031
    C   C38  0.538725  0.143775  0.548045  -0.220115
    C   C39  0.521974  0.892718  0.514058  0.537367
    C   C40  0.478904  0.107315  0.485380  0.536325
    C   C41  0.574661  0.841677  0.568196  -0.447620
    C   C42  0.426216  0.158356  0.431241  -0.446134
    C   C43  0.566278  0.756039  0.559851  0.190798
    C   C44  0.434599  0.243994  0.439587  0.187446
    N   N5   0.530858  0.980588  0.524001  -0.222773
    N   N6   0.470020  0.019446  0.475436  -0.223358
    H   H21  0.574626  0.105524  0.593991  0.055875
    H   H22  0.426252  0.894510  0.405446  0.055838
    H   H23  0.623572  0.868762  0.617138  0.161791
    H   H24  0.377305  0.131272  0.382300  0.161747
    H   H25  0.610431  0.717174  0.602285  0.120459
    H   H26  0.390444  0.282858  0.397152  0.120990
    C   C45  0.619757  0.267660  0.621206  0.051271
    C   C46  0.734188  0.222401  0.642205  -0.061256
    C   C47  0.811190  0.275532  0.697863  0.307081
    C   C48  0.909225  0.223681  0.733506  -0.262130
    H   H27  0.558892  0.266108  0.672770  0.033018
    H   H28  0.649684  0.332610  0.607038  0.039451
    H   H29  0.787386  0.211213  0.588668  -0.013195
    H   H30  0.710055  0.162279  0.672653  0.021397
    H   H31  0.753207  0.298130  0.745325  -0.071719
    H   H32  0.854258  0.330003  0.665920  -0.087608
    H   H33  0.867225  0.174579  0.772749  0.055265
    H   H34  0.972501  0.264807  0.767791  0.043926
    H   H35  0.960154  0.193706  0.686591  0.021796
    C   C49  0.381120  0.732373  0.378231  0.043143
    C   C50  0.266689  0.777632  0.357233  -0.058433
    C   C51  0.189686  0.724502  0.301576  0.304364
    C   C52  0.091650  0.776353  0.265933  -0.263127
    H   H36  0.351195  0.667424  0.392401  0.042434
    H   H37  0.441986  0.733925  0.326668  0.034022
    H   H38  0.290823  0.837754  0.326785  0.021610
    H   H39  0.213492  0.788822  0.410770  -0.013758
    H   H40  0.146616  0.670031  0.333519  -0.087776
    H   H41  0.247666  0.701904  0.254113  -0.070364
    H   H42  0.040724  0.806329  0.312849  0.022233
    H   H43  0.028373  0.735226  0.231649  0.044771
    H   H44  0.133651  0.825454  0.226689  0.055360
