# Generated by REPEAT Assigner based on pymatgen
data_DB0-m2_o6_o8_f0_pcu.sym.6
_audit_creation_date              2022-05-24
_audit_creation_method            REPEAT_Assigner
_cell_length_a                    14.611991
_cell_length_b                    16.043627
_cell_length_c                    17.011946
_cell_angle_alpha                 89.647546
_cell_angle_beta                  93.548226
_cell_angle_gamma                 90.009130
_cell_volume                      3980.378720
_symmetry_space_group_name_H-M    P1
_symmetry_Int_Tables_number       1
loop_
    _symmetry_equiv_pos_site_id
    _symmetry_equiv_pos_as_xyz
    1  x,y,z
loop_
    _atom_site_type_symbol
    _atom_site_label
    _atom_site_fract_x
    _atom_site_fract_y
    _atom_site_fract_z
    _atom_type_partial_charge
    O   O1   0.578739  0.378810  0.497540  -0.604077
    O   O2   0.421191  0.621188  0.502426  -0.611619
    O   O3   0.421726  0.378934  0.503006  -0.629419
    O   O4   0.578208  0.621062  0.496994  -0.625941
    C   C1   0.500203  0.340054  0.500389  0.727406
    C   C2   0.499734  0.659943  0.499594  0.732410
    O   O5   0.586393  0.496575  0.614483  -0.709684
    O   O6   0.413538  0.503406  0.385500  -0.716291
    O   O7   0.429155  0.502533  0.614399  -0.676175
    O   O8   0.570776  0.497479  0.385584  -0.669739
    C   C3   0.510404  0.499391  0.651436  0.776212
    C   C4   0.489526  0.500606  0.348547  0.775787
    Cu  Cu1  0.591496  0.499944  0.500058  1.148033
    Cu  Cu2  0.408434  0.500053  0.499925  1.189482
    C   C5   0.516542  0.499122  0.737829  -0.154359
    C   C6   0.483389  0.500874  0.262154  -0.154850
    C   C7   0.437861  0.502166  0.778874  -0.109055
    C   C8   0.562071  0.497839  0.221109  -0.110664
    C   C9   0.443241  0.502011  0.860123  -0.164713
    C   C10  0.556691  0.497994  0.139860  -0.164221
    C   C11  0.528195  0.498774  0.901315  0.533158
    C   C12  0.471736  0.501222  0.098668  0.534000
    C   C13  0.606473  0.495718  0.860160  -0.405264
    C   C14  0.393458  0.504270  0.139823  -0.407488
    C   C15  0.601001  0.495882  0.779003  0.040434
    C   C16  0.398930  0.504106  0.220979  0.042883
    N   N1   0.537436  0.498507  0.984610  -0.267247
    N   N2   0.462496  0.501489  0.015373  -0.266908
    H   H1   0.628963  0.495278  0.251865  0.153469
    H   H2   0.370968  0.504733  0.748119  0.152535
    H   H3   0.620408  0.495528  0.110892  0.071638
    H   H4   0.379524  0.504484  0.889091  0.071804
    H   H5   0.672831  0.493186  0.891902  0.150301
    H   H6   0.327100  0.506796  0.108081  0.150748
    H   H7   0.663668  0.493458  0.748551  0.128747
    H   H8   0.336263  0.506523  0.251432  0.128201
    C   C17  0.582173  0.956830  0.500099  -0.239857
    C   C18  0.418051  0.043154  0.500435  -0.219769
    C   C19  0.500038  0.913988  0.499742  0.352250
    C   C20  0.500125  0.086009  0.500255  0.340855
    C   C21  0.417968  0.956861  0.499640  -0.227967
    C   C22  0.582178  0.043151  0.499823  -0.220557
    C   C23  0.499944  0.824434  0.499575  -0.258144
    C   C24  0.500114  0.175564  0.500419  -0.252184
    C   C25  0.500122  0.250670  0.500457  -0.101163
    C   C26  0.499849  0.749327  0.499533  -0.101037
    H   H9   0.086878  0.626959  0.535753  0.148524
    H   H10  0.913043  0.373033  0.464208  0.195614
    C   C27  0.954326  0.571212  0.520222  -0.263879
    C   C28  0.045594  0.428786  0.479765  -0.113021
    H   H11  0.918515  0.627001  0.536097  0.196186
    H   H12  0.081408  0.373003  0.463902  0.147566
    C   C29  0.905667  0.500013  0.500190  0.312824
    C   C30  0.094255  0.499985  0.499791  0.165269
    C   C31  0.951262  0.428802  0.479952  -0.261029
    C   C32  0.048657  0.571195  0.520020  -0.111749
    C   C33  0.807534  0.500041  0.500313  0.085024
    C   C34  0.192394  0.499956  0.499670  0.159169
    N   N3   0.271550  0.499951  0.499632  -0.280851
    N   N4   0.728380  0.500045  0.500352  -0.236632
    C   C35  0.668715  0.089443  0.501623  0.399490
    C   C36  0.692100  0.134810  0.436565  -0.164400
    C   C37  0.773762  0.178032  0.438300  -0.124696
    C   C38  0.832361  0.175956  0.504974  -0.162555
    C   C39  0.809231  0.130714  0.569973  -0.103945
    C   C40  0.727548  0.087547  0.568340  -0.237285
    H   H13  0.646584  0.136142  0.384005  0.111241
    H   H14  0.791929  0.213443  0.387300  0.111731
    H   H15  0.896446  0.209746  0.506280  0.111644
    H   H16  0.855136  0.129125  0.622283  0.118445
    H   H17  0.709502  0.052404  0.619538  0.114377
    C   C41  0.331654  0.910562  0.500992  0.381938
    C   C42  0.298767  0.866982  0.435400  -0.139808
    C   C43  0.217183  0.823940  0.436584  -0.151427
    C   C44  0.168169  0.824380  0.503257  -0.141705
    C   C45  0.200836  0.867779  0.568818  -0.123587
    C   C46  0.282444  0.910796  0.567723  -0.215549
    H   H18  0.336711  0.866979  0.382834  0.106778
    H   H19  0.191532  0.789990  0.385138  0.121137
    H   H20  0.104107  0.790772  0.504106  0.118689
    H   H21  0.162448  0.868082  0.621125  0.117317
    H   H22  0.307966  0.944559  0.619324  0.110066
    C   C47  0.668415  0.910521  0.498222  0.416159
    C   C48  0.717546  0.912399  0.431454  -0.237890
    C   C49  0.798959  0.869211  0.429748  -0.101387
    C   C50  0.831507  0.823967  0.494724  -0.167402
    C   C51  0.782604  0.821911  0.561449  -0.120574
    C   C52  0.701227  0.865152  0.563257  -0.169317
    H   H23  0.692082  0.947543  0.380275  0.113419
    H   H24  0.837257  0.870785  0.377398  0.117906
    H   H25  0.895375  0.790161  0.493360  0.113538
    H   H26  0.808163  0.786500  0.612432  0.109470
    H   H27  0.663355  0.863834  0.615856  0.111490
    C   C53  0.331574  0.089471  0.499167  0.369674
    C   C54  0.272660  0.089243  0.432491  -0.210437
    C   C55  0.190929  0.132284  0.431474  -0.129322
    C   C56  0.167833  0.175702  0.497057  -0.141825
    C   C57  0.226542  0.176135  0.563675  -0.151927
    C   C58  0.308262  0.133069  0.564782  -0.126913
    H   H28  0.290650  0.055468  0.380871  0.110237
    H   H29  0.144934  0.131986  0.379208  0.118404
    H   H30  0.103677  0.209330  0.496267  0.120540
    H   H31  0.208402  0.210100  0.615139  0.119570
    H   H32  0.353851  0.133070  0.617304  0.103721
