# Generated by REPEAT Assigner based on pymatgen
data_DB0-m3_o148_o6_f0_fsc.sym.20
_audit_creation_date              2022-05-24
_audit_creation_method            REPEAT_Assigner
_cell_length_a                    10.736555
_cell_length_b                    14.343554
_cell_length_c                    8.557633
_cell_angle_alpha                 90.000000
_cell_angle_beta                  89.998299
_cell_angle_gamma                 90.000000
_cell_volume                      1317.878539
_symmetry_space_group_name_H-M    P1
_symmetry_Int_Tables_number       1
loop_
    _symmetry_equiv_pos_site_id
    _symmetry_equiv_pos_as_xyz
    1  x,y,z
loop_
    _atom_site_type_symbol
    _atom_site_label
    _atom_site_fract_x
    _atom_site_fract_y
    _atom_site_fract_z
    _atom_type_partial_charge
    C   C1   0.680699  0.021579  0.009896  -0.141878
    C   C2   0.739886  0.008314  0.869863  -0.016782
    C   C3   0.865348  0.990697  0.866472  -0.385458
    C   C4   0.743503  0.009112  0.148036  -0.133141
    C   C5   0.871922  0.996751  0.146169  -0.176630
    C   C6   0.934284  0.991135  0.004311  0.446608
    C   C7   0.063565  0.981932  0.004327  -0.337983
    C   C8   0.132410  0.982466  0.866514  -0.088949
    C   C9   0.257955  0.965221  0.869964  -0.068424
    C   C10  0.938675  0.991438  0.284142  0.242523
    N   N1   0.063435  0.981780  0.281589  -0.629261
    C   C11  0.126479  0.976432  0.145935  0.667897
    C   C12  0.254576  0.964104  0.147678  -0.299782
    C   C13  0.317431  0.951882  0.009712  -0.066702
    H   H1   0.891750  0.996093  0.395547  0.049687
    H   H2   0.581658  0.033404  0.011747  0.148400
    H   H3   0.416496  0.940164  0.011412  0.116741
    H   H4   0.904442  0.975682  0.753686  0.173610
    H   H5   0.093266  0.997377  0.753722  0.106412
    O   O1   0.387536  0.896902  0.676991  -0.616784
    O   O2   0.355721  0.056059  0.674104  -0.637944
    C   C14  0.332681  0.972416  0.728739  0.699445
    O   O3   0.610298  0.076949  0.676341  -0.781983
    O   O4   0.642148  0.917364  0.673596  -0.739763
    C   C15  0.664867  0.001177  0.728512  0.928355
    O   O5   0.610903  0.076356  0.340411  -0.772927
    O   O6   0.642182  0.917524  0.342610  -0.744922
    C   C16  0.667311  0.001291  0.289353  0.956527
    O   O7   0.386608  0.896608  0.340347  -0.654107
    O   O8   0.355334  0.055697  0.342394  -0.642931
    C   C17  0.329773  0.971757  0.289749  0.779501
    Zn  Zn1  0.480340  0.089357  0.508054  1.070619
    Zn  Zn2  0.516534  0.883983  0.508228  1.093831
    H   H6   0.676523  0.385533  0.479554  0.170491
    H   H7   0.703136  0.555384  0.487068  0.162147
    C   C18  0.611114  0.525393  0.496970  -0.197860
    C   C19  0.596013  0.430216  0.491619  -0.171134
    C   C20  0.508870  0.582488  0.512554  0.361282
    C   C21  0.478947  0.391465  0.503975  0.353493
    C   C22  0.390411  0.544339  0.523289  -0.241437
    C   C23  0.375491  0.448176  0.521488  -0.207456
    C   C24  0.525388  0.681839  0.509875  -0.019355
    C   C25  0.468164  0.291674  0.505962  -0.055483
    N   N2   0.463156  0.211098  0.507379  0.032179
    N   N3   0.533850  0.762253  0.508165  -0.034322
    C   C26  0.281079  0.606060  0.525456  0.729112
    O   O9   0.286270  0.681672  0.590274  -0.487476
    O   O10  0.177276  0.581954  0.446690  -0.424068
    C   C27  0.078583  0.642367  0.437498  0.500305
    C   C28  0.975636  0.598596  0.341395  -0.429922
    H   H8   0.108948  0.708020  0.380575  -0.012142
    H   H9   0.043315  0.657787  0.556514  -0.053368
    H   H10  0.010884  0.583006  0.222417  0.108272
    H   H11  0.896096  0.647682  0.333247  0.098580
    H   H12  0.944472  0.533106  0.397996  0.131469
    C   C29  0.252442  0.406065  0.548199  0.729141
    O   O11  0.226252  0.331331  0.488760  -0.496876
    O   O12  0.171322  0.446649  0.647278  -0.412261
    C   C30  0.060446  0.404008  0.682132  0.451451
    C   C31  0.988398  0.463415  0.797109  -0.364930
    H   H13  0.078737  0.334813  0.735263  -0.008102
    H   H14  0.004845  0.395115  0.573948  -0.045943
    H   H15  0.044316  0.472955  0.904886  0.102905
    H   H16  0.899401  0.428342  0.826626  0.074072
    H   H17  0.968570  0.532377  0.744199  0.113428
