# Generated by REPEAT Assigner based on pymatgen
data_DB0-m3_o22_o22_f0_pcu.sym.9_sqe
_audit_creation_date              2022-05-24
_audit_creation_method            REPEAT_Assigner
_cell_length_a                    14.936967
_cell_length_b                    15.664820
_cell_length_c                    9.743512
_cell_angle_alpha                 90.000000
_cell_angle_beta                  90.000000
_cell_angle_gamma                 90.000000
_cell_volume                      2279.834808
_symmetry_space_group_name_H-M    P1
_symmetry_Int_Tables_number       1
loop_
    _symmetry_equiv_pos_site_id
    _symmetry_equiv_pos_as_xyz
    1  x,y,z
loop_
    _atom_site_type_symbol
    _atom_site_label
    _atom_site_fract_x
    _atom_site_fract_y
    _atom_site_fract_z
    _atom_type_partial_charge
    O   O1   0.098181  0.410682  0.622096  -0.577952
    O   O2   0.098999  0.410862  0.385878  -0.690245
    O   O3   0.097637  0.590922  0.383627  -0.590744
    O   O4   0.098548  0.590514  0.619690  -0.677994
    O   O5   0.595681  0.909079  0.621533  -0.568994
    O   O6   0.598018  0.910535  0.385268  -0.674127
    O   O7   0.599343  0.090314  0.382856  -0.597303
    O   O8   0.599888  0.089075  0.618819  -0.651427
    C   C1   0.128848  0.382618  0.504125  0.574644
    C   C2   0.128431  0.618830  0.501540  0.556997
    C   C3   0.626499  0.881084  0.503752  0.561571
    C   C4   0.630460  0.117240  0.500997  0.538946
    O   O9   0.909838  0.410699  0.623104  -0.638425
    O   O10  0.910501  0.409753  0.385206  -0.599291
    O   O11  0.909246  0.589613  0.382338  -0.566893
    O   O12  0.909938  0.590915  0.620125  -0.664603
    O   O13  0.407617  0.912722  0.622492  -0.653702
    O   O14  0.409162  0.912056  0.384597  -0.645198
    O   O15  0.411248  0.092230  0.381661  -0.580538
    O   O16  0.411160  0.092622  0.619446  -0.629583
    C   C5   0.880942  0.381298  0.503977  0.569972
    C   C6   0.880124  0.619013  0.501119  0.578338
    C   C7   0.378415  0.884040  0.502987  0.613443
    C   C8   0.382437  0.121687  0.500721  0.570713
    Zn  Zn1  0.004109  0.501042  0.660074  1.024682
    Zn  Zn2  0.004235  0.499997  0.345420  0.963608
    Zn  Zn3  0.503700  0.001338  0.659375  1.003028
    Zn  Zn4  0.504433  0.000862  0.344759  0.973020
    C   C9   0.826724  0.252170  0.627595  -0.237972
    C   C10  0.827254  0.252951  0.377363  -0.273569
    C   C11  0.827182  0.749848  0.381385  -0.498223
    C   C12  0.821914  0.744784  0.630623  -0.166831
    C   C13  0.324970  0.754575  0.625108  -0.229964
    C   C14  0.323441  0.756299  0.375234  -0.276023
    C   C15  0.329845  0.251988  0.381734  -0.228286
    C   C16  0.322869  0.246080  0.632061  -0.205813
    H   H1   0.810946  0.284650  0.725183  0.042921
    H   H2   0.829615  0.289705  0.280288  0.144429
    H   H3   0.833404  0.715746  0.282427  0.168795
    H   H4   0.804736  0.709467  0.725396  0.068670
    H   H5   0.309883  0.786815  0.723158  0.040791
    H   H6   0.325349  0.793350  0.278430  0.139100
    H   H7   0.315114  0.220670  0.282442  0.085918
    H   H8   0.323887  0.207152  0.726868  0.086788
    H   H9   0.897599  0.231661  0.632875  0.134100
    H   H10  0.891628  0.218285  0.387831  0.094540
    H   H11  0.889567  0.786404  0.398028  0.142705
    H   H12  0.892445  0.766126  0.640149  0.083570
    H   H13  0.396068  0.734373  0.628511  0.121257
    H   H14  0.387767  0.721490  0.384507  0.106367
    H   H15  0.400631  0.272633  0.380236  0.107151
    H   H16  0.386759  0.282075  0.627699  0.099048
    C   C17  0.266885  0.675572  0.612525  -0.110209
    C   C18  0.247338  0.691802  0.365833  -0.153332
    C   C19  0.270517  0.329997  0.397381  -0.141060
    C   C20  0.245797  0.309052  0.641551  -0.209073
    C   C21  0.768249  0.173504  0.614386  -0.155626
    C   C22  0.751263  0.188442  0.367097  -0.170704
    C   C23  0.749368  0.811664  0.371338  0.075756
    C   C24  0.762454  0.823400  0.619972  -0.109072
    H   H17  0.309492  0.620325  0.584198  0.043916
    H   H18  0.275865  0.627961  0.343179  0.048175
    H   H19  0.312017  0.384594  0.432109  0.062410
    H   H20  0.272935  0.372884  0.667976  0.067010
    H   H21  0.810802  0.117907  0.587685  0.057038
    H   H22  0.779915  0.124386  0.346459  0.057164
    H   H23  0.775877  0.876717  0.351990  0.030349
    H   H24  0.804521  0.880002  0.597180  0.022701
    H   H25  0.236847  0.661950  0.713478  0.030369
    H   H26  0.202585  0.710244  0.280346  0.045941
    H   H27  0.242976  0.347021  0.296103  0.026002
    H   H28  0.200289  0.288532  0.724609  0.044411
    H   H29  0.737249  0.160445  0.714782  0.044032
    H   H30  0.707557  0.206292  0.279992  0.056026
    H   H31  0.708535  0.792269  0.282815  0.023491
    H   H32  0.729634  0.833991  0.720361  0.031869
    C   C25  0.717353  0.345150  0.495501  0.446098
    C   C26  0.716249  0.653843  0.489136  0.359608
    C   C27  0.213858  0.847646  0.495579  0.340758
    C   C28  0.219449  0.154175  0.488121  0.363039
    C   C29  0.813169  0.309888  0.503077  0.181013
    C   C30  0.811582  0.689755  0.501680  0.264632
    C   C31  0.310167  0.812824  0.501544  0.170686
    C   C32  0.313735  0.191984  0.501824  0.133972
    C   C33  0.196637  0.689505  0.501470  0.089036
    C   C34  0.197746  0.312550  0.504127  0.055751
    C   C35  0.699156  0.187318  0.501424  0.110039
    C   C36  0.695148  0.810660  0.504326  0.032864
    C   C37  0.148074  0.774575  0.520147  0.889344
    C   C38  0.150747  0.226614  0.480583  0.917245
    C   C39  0.650835  0.272752  0.517069  0.853724
    C   C40  0.649618  0.724024  0.525684  0.673100
    C   C41  0.042488  0.420189  0.076529  -0.012927
    C   C42  0.058418  0.431626  0.922674  0.059139
    C   C43  0.036807  0.583260  0.929049  0.067719
    C   C44  0.054050  0.572586  0.082580  0.069942
    C   C45  0.542871  0.921252  0.075898  -0.021420
    C   C46  0.558554  0.932621  0.922046  0.205956
    C   C47  0.536192  0.084048  0.928062  0.056927
    C   C48  0.553990  0.073521  0.081544  0.060273
    C   C49  0.911421  0.505935  0.081248  -0.075174
    C   C50  0.911922  0.489763  0.924025  0.193370
    C   C51  0.411487  0.006703  0.080589  -0.054097
    C   C52  0.411737  0.990132  0.923412  0.188959
    N   N1   0.003560  0.498722  0.138267  0.728087
    N   N2   0.003291  0.502435  0.867207  0.579161
    N   N3   0.503733  0.999631  0.137595  0.748500
    N   N4   0.502942  0.002948  0.866470  0.547461
    O   O17  0.701370  0.411098  0.589190  -0.663762
    H   H33  0.738763  0.400961  0.670628  0.352944
    O   O18  0.704083  0.378002  0.364073  -0.647975
    H   H34  0.670393  0.431528  0.379058  0.400627
    O   O19  0.702248  0.627670  0.353998  -0.630632
    H   H35  0.659114  0.579966  0.361090  0.388785
    O   O20  0.703128  0.583145  0.574440  -0.571975
    H   H36  0.731912  0.595210  0.663405  0.370228
    O   O21  0.198742  0.914507  0.588189  -0.632669
    H   H37  0.236551  0.904589  0.669343  0.344553
    O   O22  0.198883  0.879231  0.363651  -0.577677
    H   H38  0.152325  0.923628  0.375282  0.360928
    O   O23  0.214781  0.106647  0.367468  -0.722846
    H   H39  0.230186  0.047964  0.395925  0.468712
    O   O24  0.200361  0.098722  0.597348  -0.598030
    H   H40  0.202112  0.131484  0.683811  0.369885
    O   O25  0.107214  0.779682  0.649534  -0.753385
    H   H41  0.154371  0.786276  0.719544  0.344791
    O   O26  0.080690  0.779818  0.421631  -0.639008
    H   H42  0.036156  0.818971  0.462780  0.344952
    O   O27  0.105997  0.225466  0.354082  -0.746846
    H   H43  0.150428  0.234807  0.280712  0.405055
    O   O28  0.086350  0.215215  0.582602  -0.699731
    H   H44  0.040162  0.178939  0.538913  0.371104
    O   O29  0.607369  0.278565  0.644341  -0.753916
    H   H45  0.653293  0.283003  0.716717  0.337277
    O   O30  0.585748  0.278773  0.415103  -0.621899
    H   H46  0.542580  0.321064  0.451456  0.335897
    O   O31  0.571318  0.716146  0.447339  -0.665365
    H   H47  0.583674  0.738280  0.354505  0.331904
    O   O32  0.625648  0.716059  0.663363  -0.704014
    H   H48  0.562588  0.696681  0.661167  0.397648
    O   O33  0.986572  0.349973  0.098143  -0.509757
    H   H49  0.997970  0.331777  0.193741  0.386049
    O   O34  0.037793  0.355002  0.856401  -0.451480
    H   H50  0.087247  0.315718  0.880123  0.391112
    O   O35  0.976167  0.649914  0.908129  -0.545147
    H   H51  0.988063  0.670891  0.814125  0.411931
    O   O36  0.029205  0.647724  0.149819  -0.462462
    H   H52  0.078739  0.688197  0.132285  0.384737
    O   O37  0.487121  0.850946  0.097533  -0.538431
    H   H53  0.499150  0.832411  0.192772  0.401856
    O   O38  0.538404  0.855624  0.856770  -0.517809
    H   H54  0.591948  0.819524  0.871004  0.435592
    O   O39  0.475207  0.150436  0.907355  -0.524608
    H   H55  0.487969  0.172514  0.814259  0.399090
    O   O40  0.529385  0.148641  0.149049  -0.467924
    H   H56  0.579824  0.188458  0.133787  0.385301
    O   O41  0.125407  0.400770  0.133590  -0.411849
    H   H57  0.138798  0.341683  0.103771  0.378374
    O   O42  0.150328  0.446836  0.906198  -0.488721
    H   H58  0.160581  0.467240  0.812227  0.370924
    O   O43  0.118107  0.607890  0.871709  -0.440487
    H   H59  0.127384  0.667858  0.900887  0.401073
    O   O44  0.146950  0.562661  0.096833  -0.504595
    H   H60  0.159901  0.542500  0.190023  0.374335
    O   O45  0.625817  0.901846  0.132782  -0.491543
    H   H61  0.640299  0.844157  0.097615  0.371034
    O   O46  0.650228  0.948509  0.904425  -0.448186
    H   H62  0.659670  0.968300  0.809839  0.326513
    O   O47  0.617194  0.109087  0.870288  -0.441700
    H   H63  0.626766  0.168775  0.900731  0.404424
    O   O48  0.646973  0.063692  0.094909  -0.517973
    H   H64  0.660465  0.043552  0.187892  0.388158
    O   O49  0.854702  0.446474  0.144282  -0.433909
    H   H65  0.795450  0.450208  0.098926  0.360515
    O   O50  0.883218  0.406188  0.898880  -0.420268
    H   H66  0.820430  0.410010  0.867889  0.308600
    O   O51  0.851561  0.545440  0.859877  -0.472831
    H   H67  0.793588  0.541540  0.908915  0.342721
    O   O52  0.876926  0.587436  0.106895  -0.390660
    H   H68  0.820895  0.579160  0.159209  0.333571
    O   O53  0.354801  0.947340  0.143833  -0.443029
    H   H69  0.295535  0.951038  0.098517  0.353389
    O   O54  0.383340  0.906395  0.898869  -0.410886
    H   H70  0.320691  0.910037  0.867101  0.309069
    O   O55  0.351133  0.045402  0.858732  -0.467250
    H   H71  0.293284  0.041705  0.908138  0.353768
    O   O56  0.377051  0.088280  0.105984  -0.419810
    H   H72  0.321017  0.080158  0.158209  0.341847
