# Generated by REPEAT Assigner based on pymatgen
data_DB0-m29_o83_o510_f0_pts.sym.26
_audit_creation_date              2022-05-24
_audit_creation_method            REPEAT_Assigner
_cell_length_a                    15.796321
_cell_length_b                    14.557164
_cell_length_c                    13.179278
_cell_angle_alpha                 86.997758
_cell_angle_beta                  88.192878
_cell_angle_gamma                 110.620858
_cell_volume                      2828.459910
_symmetry_space_group_name_H-M    P1
_symmetry_Int_Tables_number       1
loop_
    _symmetry_equiv_pos_site_id
    _symmetry_equiv_pos_as_xyz
    1  x,y,z
loop_
    _atom_site_type_symbol
    _atom_site_label
    _atom_site_fract_x
    _atom_site_fract_y
    _atom_site_fract_z
    _atom_type_partial_charge
    C   C1   0.282832  0.012566  0.055709  -0.068457
    C   C2   0.269394  0.022006  0.952403  -0.000244
    C   C3   0.186480  0.024376  0.922644  -0.170046
    C   C4   0.212348  0.000144  0.125154  -0.177160
    C   C5   0.130469  0.001961  0.095102  0.157478
    C   C6   0.115892  0.016193  0.993797  0.083157
    C   C7   0.031104  0.019965  0.967355  0.059867
    C   C8   0.013034  0.036615  0.866822  -0.167249
    C   C9   0.929653  0.036849  0.841900  -0.189410
    C   C10  0.063575  0.989474  0.168747  -0.178960
    C   C11  0.980745  0.990892  0.143848  -0.166747
    C   C12  0.962751  0.007384  0.043255  0.066098
    C   C13  0.877607  0.009912  0.016823  0.053950
    C   C14  0.862306  0.022889  0.915574  0.204756
    C   C15  0.779042  0.021063  0.885905  -0.215180
    C   C16  0.807033  0.000637  0.088209  -0.146841
    C   C17  0.722454  0.997891  0.059127  -0.060330
    C   C18  0.707910  0.005066  0.955703  -0.039063
    H   H1   0.178759  0.029527  0.842277  0.118340
    H   H2   0.222222  0.992327  0.205441  0.187060
    H   H3   0.061581  0.050062  0.803876  0.161152
    H   H4   0.917549  0.048417  0.762803  0.133271
    H   H5   0.075303  0.977236  0.247833  0.129108
    H   H6   0.932534  0.977731  0.207029  0.163877
    H   H7   0.768144  0.027574  0.805727  0.185449
    H   H8   0.815597  0.996797  0.168357  0.117253
    O   O1   0.576035  0.001766  0.115508  -0.588167
    C   C19  0.653021  0.993418  0.139628  0.682956
    O   O2   0.502529  0.796385  0.256816  -0.512053
    O   O3   0.670223  0.987382  0.236029  -0.511104
    O   O4   0.471626  0.907828  0.353174  -0.594949
    C   C20  0.482034  0.822761  0.345258  0.599093
    Fe  Fe1  0.494863  0.002203  0.232784  1.499525
    O   O5   0.369856  0.967871  0.181792  -0.681962
    O   O6   0.445063  0.088021  0.060309  -0.476175
    C   C21  0.369755  0.019233  0.096835  0.808552
    O   O7   0.558806  0.136246  0.281644  -0.663975
    O   O8   0.421390  0.151746  0.268330  -0.555648
    C   C22  0.503405  0.183347  0.301325  0.720926
    O   O9   0.439334  0.858057  0.736610  -0.665462
    O   O10  0.588486  0.879432  0.725582  -0.560159
    C   C23  0.504629  0.827277  0.707665  0.723093
    O   O11  0.614069  0.046468  0.834872  -0.657033
    O   O12  0.549096  0.912745  0.944781  -0.479594
    C   C24  0.619277  0.991314  0.914906  0.810364
    O   O13  0.332232  0.052642  0.778549  -0.491336
    O   O14  0.505983  0.084744  0.657366  -0.607391
    C   C25  0.522699  0.179029  0.665579  0.675168
    O   O15  0.402806  0.989362  0.895407  -0.566150
    C   C26  0.338519  0.023620  0.873036  0.598988
    O   O16  0.525744  0.215005  0.755193  -0.510121
    Fe  Fe2  0.489633  0.995865  0.781158  1.489700
    C   C27  0.518878  0.241744  0.390027  0.052376
    C   C28  0.503791  0.329250  0.389660  -0.272019
    H   H9   0.489770  0.361345  0.319257  0.166092
    C   C29  0.507681  0.376545  0.478627  0.261763
    C   C30  0.518203  0.330533  0.570306  -0.179358
    H   H10  0.512504  0.361596  0.641695  0.140998
    C   C31  0.527997  0.239619  0.571059  -0.030401
    C   C32  0.532719  0.198522  0.480003  -0.100991
    C   C33  0.492084  0.470614  0.473387  -0.168032
    C   C34  0.526376  0.539286  0.539311  -0.174053
    C   C35  0.510037  0.680744  0.624017  -0.141873
    C   C36  0.490462  0.765901  0.621372  0.034789
    C   C37  0.474332  0.805975  0.530906  -0.162938
    C   C38  0.481976  0.765239  0.440521  0.049685
    C   C39  0.498145  0.677637  0.442639  -0.224222
    H   H11  0.505640  0.646778  0.371661  0.162697
    C   C40  0.509756  0.633238  0.534974  0.217204
    H   H12  0.539271  0.127203  0.478787  0.125614
    H   H13  0.464333  0.875582  0.531861  0.149544
    H   H14  0.452516  0.483546  0.412374  0.121778
    H   H15  0.567009  0.525095  0.598301  0.112505
    C   C41  0.527853  0.640774  0.721898  0.216238
    C   C42  0.456638  0.588324  0.789603  -0.211163
    C   C43  0.473245  0.551865  0.882561  -0.042358
    C   C44  0.561069  0.568221  0.908229  0.077807
    Cl  Cl1  0.582096  0.522008  0.026334  -0.100753
    C   C45  0.632341  0.621261  0.841036  -0.110881
    C   C46  0.615807  0.657742  0.748056  -0.142729
    H   H16  0.387738  0.575596  0.769711  0.123967
    H   H17  0.417385  0.510548  0.935383  0.099764
    H   H18  0.701205  0.634382  0.861313  0.107636
    H   H19  0.671766  0.699628  0.695608  0.113101
