data_DB0-m3_o96_o6_f0_fsc.sym.8_repeat
_audit_creation_date              2024-02-23
_audit_creation_method            'Materials Studio'
_symmetry_space_group_name_H-M    'P1'
_symmetry_Int_Tables_number       1
_symmetry_cell_setting            triclinic
loop_
_symmetry_equiv_pos_as_xyz
  x,y,z
_cell_length_a                    13.0335
_cell_length_b                    13.7637
_cell_length_c                    15.9706
_cell_angle_alpha                 94.5452
_cell_angle_beta                  90.0460
_cell_angle_gamma                 90.6379
loop_
_atom_site_label
_atom_site_type_symbol
_atom_site_fract_x
_atom_site_fract_y
_atom_site_fract_z
_atom_site_U_iso_or_equiv
_atom_site_adp_type
_atom_site_occupancy
C1     C     0.82923   0.06283   0.22291   0.00000  Uiso   1.00
C2     C     0.17011   0.93653   0.77755   0.00000  Uiso   1.00
C3     C     0.77609   0.11664   0.17037   0.00000  Uiso   1.00
C4     C     0.22329   0.88276   0.83010   0.00000  Uiso   1.00
C5     C     0.82600   0.10933   0.09417   0.00000  Uiso   1.00
C6     C     0.17341   0.89011   0.90631   0.00000  Uiso   1.00
N1     N     0.91168   0.05560   0.09988   0.00000  Uiso   1.00
N2     N     0.08772   0.94382   0.90060   0.00000  Uiso   1.00
C7     C     0.91463   0.02894   0.17974   0.00000  Uiso   1.00
C8     C     0.08472   0.97043   0.82072   0.00000  Uiso   1.00
C9     C     0.78803   0.14199   0.02382   0.00000  Uiso   1.00
C10    C     0.21137   0.85751   0.97668   0.00000  Uiso   1.00
C11    C     0.82192   0.10898   0.93836   0.00000  Uiso   1.00
C12    C     0.17754   0.89080   0.06207   0.00000  Uiso   1.00
C13    C     0.76002   0.09885   0.86724   0.00000  Uiso   1.00
C14    C     0.23948   0.90110   0.13315   0.00000  Uiso   1.00
C15    C     0.81911   0.06043   0.80270   0.00000  Uiso   1.00
C16    C     0.18029   0.93918   0.19776   0.00000  Uiso   1.00
C17    C     0.91654   0.04946   0.83523   0.00000  Uiso   1.00
C18    C     0.08282   0.94998   0.16525   0.00000  Uiso   1.00
N3     N     0.91760   0.07982   0.91775   0.00000  Uiso   1.00
N4     N     0.08179   0.91969   0.08272   0.00000  Uiso   1.00
C19    C     0.00754   0.01742   0.78721   0.00000  Uiso   1.00
C20    C     0.99178   0.98190   0.21326   0.00000  Uiso   1.00
H1     H     0.71907   0.18427   0.02904   0.00000  Uiso   1.00
H2     H     0.28026   0.81507   0.97156   0.00000  Uiso   1.00
H3     H     0.00844   0.02741   0.72066   0.00000  Uiso   1.00
H4     H     0.99085   0.97187   0.27980   0.00000  Uiso   1.00
H5     H     0.98163   0.08580   0.95692   0.00000  Uiso   1.00
H6     H     0.01774   0.91353   0.04359   0.00000  Uiso   1.00
C21    C     0.34164   0.88139   0.14559   0.00000  Uiso   1.00
C22    C     0.65795   0.11893   0.85469   0.00000  Uiso   1.00
C23    C     0.38197   0.90014   0.22529   0.00000  Uiso   1.00
C24    C     0.61756   0.09983   0.77505   0.00000  Uiso   1.00
C25    C     0.32332   0.94180   0.29105   0.00000  Uiso   1.00
C26    C     0.67610   0.05775   0.70940   0.00000  Uiso   1.00
C27    C     0.22046   0.96246   0.27748   0.00000  Uiso   1.00
C28    C     0.77891   0.03698   0.72301   0.00000  Uiso   1.00
C29    C     0.79003   0.04085   0.29928   0.00000  Uiso   1.00
C30    C     0.20931   0.95853   0.70118   0.00000  Uiso   1.00
C31    C     0.69566   0.07945   0.32211   0.00000  Uiso   1.00
C32    C     0.30373   0.92000   0.67837   0.00000  Uiso   1.00
C33    C     0.64621   0.14209   0.27133   0.00000  Uiso   1.00
C34    C     0.35322   0.85742   0.72918   0.00000  Uiso   1.00
C35    C     0.68509   0.15972   0.19386   0.00000  Uiso   1.00
C36    C     0.31434   0.83977   0.80665   0.00000  Uiso   1.00
H7     H     0.17354   0.99468   0.32785   0.00000  Uiso   1.00
H8     H     0.82577   0.00450   0.67271   0.00000  Uiso   1.00
H9     H     0.82786   0.99115   0.33799   0.00000  Uiso   1.00
H10    H     0.17145   0.00819   0.66246   0.00000  Uiso   1.00
H11    H     0.57198   0.17154   0.28858   0.00000  Uiso   1.00
H12    H     0.42748   0.82803   0.71196   0.00000  Uiso   1.00
H13    H     0.64205   0.20321   0.15311   0.00000  Uiso   1.00
H14    H     0.35742   0.79636   0.84744   0.00000  Uiso   1.00
H15    H     0.46207   0.88519   0.23549   0.00000  Uiso   1.00
H16    H     0.53754   0.11504   0.76479   0.00000  Uiso   1.00
O1     O     0.37241   0.05112   0.41043   0.00000  Uiso   1.00
O2     O     0.62696   0.94834   0.59005   0.00000  Uiso   1.00
O3     O     0.43600   0.89520   0.39720   0.00000  Uiso   1.00
O4     O     0.56337   0.10426   0.60326   0.00000  Uiso   1.00
C37    C     0.37518   0.96273   0.37256   0.00000  Uiso   1.00
C38    C     0.62418   0.03674   0.62792   0.00000  Uiso   1.00
O5     O     0.63918   0.95637   0.41025   0.00000  Uiso   1.00
O6     O     0.36019   0.04310   0.59023   0.00000  Uiso   1.00
O7     O     0.57578   0.11225   0.42915   0.00000  Uiso   1.00
O8     O     0.42359   0.88722   0.57132   0.00000  Uiso   1.00
C39    C     0.63927   0.04865   0.39417   0.00000  Uiso   1.00
C40    C     0.36010   0.95081   0.60631   0.00000  Uiso   1.00
Zn1    Zn    0.54050   0.89869   0.49047   0.00000  Uiso   1.00
Zn2    Zn    0.45887   0.10078   0.51001   0.00000  Uiso   1.00
H17    H     0.67931   0.54806   0.53060   0.00000  Uiso   1.00
H18    H     0.32005   0.45140   0.46988   0.00000  Uiso   1.00
C41    C     0.56733   0.43310   0.52754   0.00000  Uiso   1.00
C42    C     0.43203   0.56637   0.47294   0.00000  Uiso   1.00
C43    C     0.46631   0.40592   0.51149   0.00000  Uiso   1.00
C44    C     0.53306   0.59354   0.48899   0.00000  Uiso   1.00
C45    C     0.39875   0.47258   0.48367   0.00000  Uiso   1.00
C46    C     0.60061   0.52688   0.51681   0.00000  Uiso   1.00
C47    C     0.43607   0.30587   0.51747   0.00000  Uiso   1.00
C48    C     0.56330   0.69359   0.48301   0.00000  Uiso   1.00
N5     N     0.57846   0.77635   0.48032   0.00000  Uiso   1.00
N6     N     0.42091   0.22312   0.52016   0.00000  Uiso   1.00
O9     O     0.63495   0.36649   0.55348   0.00000  Uiso   1.00
H19    H     0.66860   0.33963   0.50124   0.00000  Uiso   1.00
O10    O     0.36442   0.63298   0.44700   0.00000  Uiso   1.00
H20    H     0.33077   0.65983   0.49924   0.00000  Uiso   1.00
O11    O     0.40341   0.84465   0.08201   0.00000  Uiso   1.00
H21    H     0.43679   0.90273   0.06068   0.00000  Uiso   1.00
O12    O     0.59643   0.15677   0.91800   0.00000  Uiso   1.00
H22    H     0.59539   0.22755   0.91085   0.00000  Uiso   1.00
