# Generated by REPEAT Assigner based on pymatgen
data_DB0-m3_o2_o26_f0_pcu.sym.26_sqe
_audit_creation_date              2022-05-24
_audit_creation_method            REPEAT_Assigner
_cell_length_a                    14.055515
_cell_length_b                    15.166125
_cell_length_c                    17.494977
_cell_angle_alpha                 90.003029
_cell_angle_beta                  86.263051
_cell_angle_gamma                 90.004881
_cell_volume                      3721.434466
_symmetry_space_group_name_H-M    P1
_symmetry_Int_Tables_number       1
loop_
    _symmetry_equiv_pos_site_id
    _symmetry_equiv_pos_as_xyz
    1  x,y,z
loop_
    _atom_site_type_symbol
    _atom_site_label
    _atom_site_fract_x
    _atom_site_fract_y
    _atom_site_fract_z
    _atom_type_partial_charge
    O   O1   0.419129  0.630691  0.504940  -0.642118
    O   O2   0.580823  0.367950  0.501101  -0.688458
    O   O3   0.583355  0.630653  0.504830  -0.706211
    O   O4   0.416332  0.368000  0.504897  -0.683860
    C   C1   0.501189  0.671775  0.505071  0.811580
    C   C2   0.498616  0.326880  0.502695  0.829251
    O   O5   0.411026  0.499023  0.619231  -0.658208
    O   O6   0.588556  0.501648  0.388920  -0.641405
    O   O7   0.575247  0.497342  0.617089  -0.648167
    O   O8   0.424217  0.499530  0.391042  -0.654552
    C   C3   0.490923  0.497727  0.654037  0.662647
    C   C4   0.508564  0.501106  0.354118  0.633663
    Zn  Zn1  0.391415  0.499601  0.505537  1.076434
    Zn  Zn2  0.608233  0.499047  0.502613  1.074301
    C   C5   0.485537  0.496018  0.738042  -0.025439
    C   C6   0.513629  0.503249  0.270103  0.014784
    C   C7   0.567769  0.494611  0.777249  -0.094565
    C   C8   0.431265  0.500371  0.231142  -0.102033
    C   C9   0.562625  0.492101  0.856238  -0.214191
    C   C10  0.435815  0.503008  0.152173  -0.211533
    C   C11  0.474801  0.491433  0.897166  0.270658
    C   C12  0.523269  0.508071  0.110896  0.263646
    C   C13  0.392938  0.491641  0.857684  -0.240260
    C   C14  0.605204  0.512273  0.150169  -0.216876
    C   C15  0.398000  0.494419  0.778803  -0.090280
    C   C16  0.600685  0.509585  0.229058  -0.143595
    C   C17  0.464480  0.487012  0.981491  -0.231096
    C   C18  0.533151  0.512263  0.026479  -0.232234
    H   H1   0.637175  0.494701  0.746816  0.096785
    H   H2   0.362091  0.496580  0.261749  0.102851
    H   H3   0.666229  0.513047  0.257841  0.140071
    H   H4   0.332451  0.494949  0.749791  0.120012
    H   H5   0.600228  0.536859  0.001286  0.133817
    H   H6   0.397099  0.462812  0.006331  0.134303
    H   H7   0.323858  0.490313  0.888662  0.120447
    H   H8   0.673986  0.517200  0.119036  0.113587
    H   H9   0.369495  0.503122  0.124493  0.127431
    H   H10  0.628521  0.488292  0.884388  0.126669
    C   C19  0.430526  0.903329  0.464426  0.536799
    C   C20  0.574936  0.094921  0.462181  0.614063
    C   C21  0.430512  0.812493  0.467882  -0.235984
    C   C22  0.574340  0.185817  0.464735  -0.374756
    H   H11  0.376600  0.776276  0.439674  0.134475
    H   H12  0.632151  0.221770  0.435306  0.191841
    C   C23  0.500764  0.768150  0.503820  -0.108508
    C   C24  0.499089  0.230493  0.501555  -0.065355
    C   C25  0.570537  0.815188  0.537813  -0.183876
    C   C26  0.424690  0.183746  0.537217  -0.178215
    H   H13  0.625377  0.781355  0.566934  0.124172
    H   H14  0.365805  0.217794  0.567074  0.113334
    C   C27  0.568704  0.906049  0.537195  -0.089093
    C   C28  0.426755  0.092905  0.537463  -0.084525
    H   H15  0.621778  0.942275  0.566334  0.103783
    H   H16  0.369749  0.056953  0.567950  0.105531
    C   C29  0.499895  0.950860  0.499700  -0.141290
    C   C30  0.500801  0.047731  0.499217  -0.151249
    C   C31  0.889954  0.537566  0.561871  -0.252807
    C   C32  0.107195  0.430696  0.473097  -0.271436
    H   H17  0.919776  0.567822  0.610771  0.148138
    H   H18  0.075210  0.374185  0.447404  0.149931
    C   C33  0.792255  0.538089  0.558399  -0.004545
    C   C34  0.205230  0.433876  0.473415  0.060535
    H   H19  0.748721  0.570387  0.603249  0.165743
    H   H20  0.247141  0.381488  0.446291  0.128478
    N   N1   0.750769  0.497735  0.500674  -0.189607
    N   N2   0.248845  0.500760  0.507689  -0.223068
    C   C35  0.804670  0.455914  0.445323  0.520320
    C   C36  0.196687  0.565697  0.542460  0.548979
    C   C37  0.902810  0.456451  0.445824  -0.386943
    C   C38  0.098672  0.565999  0.540994  -0.397543
    H   H21  0.943616  0.425475  0.398795  0.135866
    H   H22  0.059878  0.621225  0.566406  0.130407
    C   C39  0.947087  0.497263  0.504678  0.210229
    C   C40  0.052214  0.497903  0.506294  0.201843
    N   N3   0.760803  0.410136  0.385977  -0.585511
    H   H23  0.781632  0.344167  0.388344  0.242979
    H   H24  0.787988  0.436222  0.333824  0.256874
    N   N4   0.242218  0.634648  0.581393  -0.633314
    H   H25  0.223474  0.694262  0.556577  0.276753
    H   H26  0.214738  0.634328  0.638296  0.260114
    N   N5   0.361380  0.946078  0.421115  -0.930864
    H   H27  0.315868  0.983372  0.457780  0.334924
    H   H28  0.396841  0.987236  0.380770  0.335717
    N   N6   0.650217  0.051715  0.418200  -0.954185
    H   H29  0.690541  0.014823  0.454607  0.342625
    H   H30  0.620389  0.010111  0.378653  0.340368
