data_DB0-m3_o11_o29_f0_pcu.sym.33_repeat
_audit_creation_date              2024-02-23
_audit_creation_method            'Materials Studio'
_symmetry_space_group_name_H-M    'P1'
_symmetry_Int_Tables_number       1
_symmetry_cell_setting            triclinic
loop_
_symmetry_equiv_pos_as_xyz
  x,y,z
_cell_length_a                    27.6369
_cell_length_b                    11.1363
_cell_length_c                    9.9323
_cell_angle_alpha                 89.9974
_cell_angle_beta                  89.9930
_cell_angle_gamma                 89.9936
loop_
_atom_site_label
_atom_site_type_symbol
_atom_site_fract_x
_atom_site_fract_y
_atom_site_fract_z
_atom_site_U_iso_or_equiv
_atom_site_adp_type
_atom_site_occupancy
O1     O     0.49680   0.32214   0.63072   0.00000  Uiso   1.00
O2     O     0.49983   0.32179   0.39834   0.00000  Uiso   1.00
C1     C     0.49803   0.26601   0.51480   0.00000  Uiso   1.00
O3     O     0.42540   0.50347   0.61897   0.00000  Uiso   1.00
O4     O     0.42869   0.50176   0.38666   0.00000  Uiso   1.00
C2     C     0.40441   0.50292   0.50048   0.00000  Uiso   1.00
Zn1    Zn    0.49655   0.50093   0.66773   0.00000  Uiso   1.00
Zn2    Zn    0.50147   0.50079   0.36150   0.00000  Uiso   1.00
O5     O     0.49825   0.67971   0.63095   0.00000  Uiso   1.00
O6     O     0.50090   0.67981   0.39870   0.00000  Uiso   1.00
O7     O     0.56933   0.49985   0.64242   0.00000  Uiso   1.00
O8     O     0.57259   0.49841   0.41061   0.00000  Uiso   1.00
C3     C     0.49967   0.73575   0.51506   0.00000  Uiso   1.00
C4     C     0.59363   0.49839   0.52884   0.00000  Uiso   1.00
C5     C     0.17563   0.40498   0.54570   0.00000  Uiso   1.00
O9     O     0.20082   0.31106   0.59378   0.00000  Uiso   1.00
N1     N     0.19938   0.49852   0.49068   0.00000  Uiso   1.00
C6     C     0.17465   0.59213   0.43925   0.00000  Uiso   1.00
C7     C     0.27548   0.49726   0.61283   0.00000  Uiso   1.00
C8     C     0.32529   0.49876   0.61528   0.00000  Uiso   1.00
C9     C     0.32681   0.50612   0.37499   0.00000  Uiso   1.00
C10    C     0.27684   0.50526   0.37289   0.00000  Uiso   1.00
C11    C     0.25101   0.50031   0.49186   0.00000  Uiso   1.00
C12    C     0.09961   0.49961   0.50051   0.00000  Uiso   1.00
C13    C     0.12561   0.40455   0.55149   0.00000  Uiso   1.00
C14    C     0.10153   0.30885   0.60728   0.00000  Uiso   1.00
C15    C     0.12458   0.59361   0.44330   0.00000  Uiso   1.00
C16    C     0.35132   0.50283   0.49639   0.00000  Uiso   1.00
H1     H     0.34626   0.50927   0.28067   0.00000  Uiso   1.00
H2     H     0.25804   0.50688   0.27746   0.00000  Uiso   1.00
H3     H     0.12084   0.23164   0.64535   0.00000  Uiso   1.00
C17    C     0.64671   0.49823   0.53287   0.00000  Uiso   1.00
C18    C     0.97454   0.41147   0.58284   0.00000  Uiso   1.00
C19    C     0.97301   0.59453   0.45309   0.00000  Uiso   1.00
C20    C     0.94885   0.50362   0.52141   0.00000  Uiso   1.00
C21    C     0.94891   0.32656   0.65741   0.00000  Uiso   1.00
C22    C     0.89933   0.32954   0.66443   0.00000  Uiso   1.00
C23    C     0.87385   0.41751   0.59838   0.00000  Uiso   1.00
C24    C     0.89852   0.50462   0.52800   0.00000  Uiso   1.00
C25    C     0.87221   0.59246   0.46376   0.00000  Uiso   1.00
C26    C     0.82219   0.59159   0.46948   0.00000  Uiso   1.00
N2     N     0.79871   0.50470   0.53766   0.00000  Uiso   1.00
C27    C     0.82377   0.41845   0.60240   0.00000  Uiso   1.00
C28    C     0.72252   0.49379   0.41623   0.00000  Uiso   1.00
C29    C     0.67271   0.49215   0.41406   0.00000  Uiso   1.00
C30    C     0.67125   0.50523   0.65401   0.00000  Uiso   1.00
C31    C     0.72122   0.50702   0.65587   0.00000  Uiso   1.00
C32    C     0.74705   0.50182   0.53686   0.00000  Uiso   1.00
O10    O     0.79987   0.33079   0.66739   0.00000  Uiso   1.00
C33    C     0.02499   0.40684   0.56956   0.00000  Uiso   1.00
C34    C     0.04928   0.50087   0.50722   0.00000  Uiso   1.00
C35    C     0.02372   0.59628   0.45185   0.00000  Uiso   1.00
C36    C     0.05198   0.30952   0.61597   0.00000  Uiso   1.00
H4     H     0.65464   0.48586   0.31788   0.00000  Uiso   1.00
H5     H     0.74228   0.48785   0.32252   0.00000  Uiso   1.00
H6     H     0.88111   0.26143   0.72299   0.00000  Uiso   1.00
H7     H     0.96578   0.25696   0.71570   0.00000  Uiso   1.00
H8     H     0.03624   0.22937   0.65719   0.00000  Uiso   1.00
O11    O     0.19892   0.68594   0.38745   0.00000  Uiso   1.00
C37    C     0.09944   0.69010   0.39312   0.00000  Uiso   1.00
H9     H     0.34334   0.49630   0.71172   0.00000  Uiso   1.00
H10    H     0.25565   0.49482   0.70662   0.00000  Uiso   1.00
H11    H     0.11800   0.76638   0.35007   0.00000  Uiso   1.00
C38    C     0.94555   0.68116   0.38649   0.00000  Uiso   1.00
C39    C     0.89595   0.68005   0.39228   0.00000  Uiso   1.00
O12    O     0.79676   0.67887   0.40842   0.00000  Uiso   1.00
C40    C     0.04982   0.69185   0.39742   0.00000  Uiso   1.00
H12    H     0.96080   0.75054   0.32454   0.00000  Uiso   1.00
H13    H     0.65181   0.51042   0.74823   0.00000  Uiso   1.00
H14    H     0.87631   0.74894   0.33864   0.00000  Uiso   1.00
H15    H     0.73999   0.51431   0.75101   0.00000  Uiso   1.00
H16    H     0.03343   0.77260   0.35984   0.00000  Uiso   1.00
C41    C     0.49905   0.93428   0.40726   0.00000  Uiso   1.00
C42    C     0.50023   0.86726   0.51919   0.00000  Uiso   1.00
H17    H     0.49795   0.89016   0.31011   0.00000  Uiso   1.00
H18    H     0.50180   0.90676   0.61824   0.00000  Uiso   1.00
C43    C     0.49959   0.06739   0.40720   0.00000  Uiso   1.00
C44    C     0.49726   0.13450   0.51893   0.00000  Uiso   1.00
H19    H     0.50163   0.11141   0.31007   0.00000  Uiso   1.00
H20    H     0.49441   0.09506   0.61779   0.00000  Uiso   1.00
C45    C     0.52679   0.55769   0.93168   0.00000  Uiso   1.00
N3     N     0.49280   0.50250   0.86889   0.00000  Uiso   1.00
H21    H     0.55589   0.59717   0.87370   0.00000  Uiso   1.00
H22    H     0.46255   0.47909   0.92299   0.00000  Uiso   1.00
C46    C     0.52720   0.57621   0.07922   0.00000  Uiso   1.00
N4     N     0.50629   0.50155   0.16027   0.00000  Uiso   1.00
H23    H     0.49152   0.42710   0.11528   0.00000  Uiso   1.00
C47    C     0.55617   0.67836   0.12767   0.00000  Uiso   1.00
O13    O     0.57582   0.67539   0.23714   0.00000  Uiso   1.00
O14    O     0.56467   0.77144   0.04410   0.00000  Uiso   1.00
C48    C     0.59431   0.86437   0.08172   0.00000  Uiso   1.00
C49    C     0.59683   0.95540   0.96871   0.00000  Uiso   1.00
H24    H     0.63122   0.82983   0.10236   0.00000  Uiso   1.00
H25    H     0.57964   0.90850   0.17312   0.00000  Uiso   1.00
H26    H     0.61152   0.91187   0.87697   0.00000  Uiso   1.00
H27    H     0.62079   0.03062   0.99883   0.00000  Uiso   1.00
H28    H     0.56004   0.99038   0.94756   0.00000  Uiso   1.00
