data_DB0-m2_o11_o29_f0_pcu.sym.86_repeat
_audit_creation_date              2024-02-23
_audit_creation_method            'Materials Studio'
_symmetry_space_group_name_H-M    'P1'
_symmetry_Int_Tables_number       1
_symmetry_cell_setting            triclinic
loop_
_symmetry_equiv_pos_as_xyz
  x,y,z
_cell_length_a                    27.4991
_cell_length_b                    11.0282
_cell_length_c                    9.5627
_cell_angle_alpha                 90.0205
_cell_angle_beta                  90.0156
_cell_angle_gamma                 89.9936
loop_
_atom_site_label
_atom_site_type_symbol
_atom_site_fract_x
_atom_site_fract_y
_atom_site_fract_z
_atom_site_U_iso_or_equiv
_atom_site_adp_type
_atom_site_occupancy
O1     O     0.49876   0.31722   0.61275   0.00000  Uiso   1.00
O2     O     0.49951   0.31964   0.37114   0.00000  Uiso   1.00
C1     C     0.49877   0.26195   0.49166   0.00000  Uiso   1.00
O3     O     0.42817   0.50180   0.60514   0.00000  Uiso   1.00
O4     O     0.43177   0.49449   0.36498   0.00000  Uiso   1.00
C2     C     0.40721   0.49910   0.48232   0.00000  Uiso   1.00
Cu1    Cu    0.49832   0.49310   0.63465   0.00000  Uiso   1.00
Cu2    Cu    0.50271   0.49620   0.35528   0.00000  Uiso   1.00
O5     O     0.50202   0.66933   0.61789   0.00000  Uiso   1.00
O6     O     0.50170   0.67210   0.37845   0.00000  Uiso   1.00
O7     O     0.56928   0.49360   0.62498   0.00000  Uiso   1.00
O8     O     0.57289   0.48869   0.38480   0.00000  Uiso   1.00
C3     C     0.50226   0.72758   0.49897   0.00000  Uiso   1.00
C4     C     0.59386   0.48969   0.50771   0.00000  Uiso   1.00
C5     C     0.17753   0.40056   0.42747   0.00000  Uiso   1.00
O9     O     0.20265   0.30274   0.38497   0.00000  Uiso   1.00
N1     N     0.20161   0.50046   0.46936   0.00000  Uiso   1.00
C6     C     0.17712   0.59836   0.51530   0.00000  Uiso   1.00
C7     C     0.27947   0.48389   0.34925   0.00000  Uiso   1.00
C8     C     0.32964   0.48442   0.35203   0.00000  Uiso   1.00
C9     C     0.32776   0.51741   0.59895   0.00000  Uiso   1.00
C10    C     0.27775   0.51803   0.59563   0.00000  Uiso   1.00
C11    C     0.25342   0.50103   0.47107   0.00000  Uiso   1.00
C12    C     0.10152   0.49559   0.48053   0.00000  Uiso   1.00
C13    C     0.12727   0.39704   0.43237   0.00000  Uiso   1.00
C14    C     0.10278   0.29422   0.39246   0.00000  Uiso   1.00
C15    C     0.12691   0.59707   0.52156   0.00000  Uiso   1.00
C16    C     0.35400   0.50076   0.47717   0.00000  Uiso   1.00
H1     H     0.34582   0.53029   0.69820   0.00000  Uiso   1.00
H2     H     0.25765   0.52993   0.69181   0.00000  Uiso   1.00
H3     H     0.12200   0.21449   0.35701   0.00000  Uiso   1.00
C17    C     0.64709   0.48664   0.51323   0.00000  Uiso   1.00
C18    C     0.97514   0.38956   0.44518   0.00000  Uiso   1.00
C19    C     0.97541   0.58553   0.55738   0.00000  Uiso   1.00
C20    C     0.95027   0.48609   0.50526   0.00000  Uiso   1.00
C21    C     0.94816   0.29490   0.38748   0.00000  Uiso   1.00
C22    C     0.89834   0.29433   0.39391   0.00000  Uiso   1.00
C23    C     0.87393   0.38809   0.45714   0.00000  Uiso   1.00
C24    C     0.89975   0.48342   0.51282   0.00000  Uiso   1.00
C25    C     0.87442   0.57635   0.57551   0.00000  Uiso   1.00
C26    C     0.82415   0.57383   0.57975   0.00000  Uiso   1.00
N2     N     0.79958   0.48037   0.52290   0.00000  Uiso   1.00
C27    C     0.82369   0.38763   0.46290   0.00000  Uiso   1.00
C28    C     0.72350   0.47641   0.39443   0.00000  Uiso   1.00
C29    C     0.67351   0.47861   0.39064   0.00000  Uiso   1.00
C30    C     0.67132   0.49203   0.63985   0.00000  Uiso   1.00
C31    C     0.72148   0.48985   0.64336   0.00000  Uiso   1.00
C32    C     0.74773   0.48191   0.52056   0.00000  Uiso   1.00
O10    O     0.79866   0.29345   0.41013   0.00000  Uiso   1.00
C33    C     0.02607   0.39020   0.44316   0.00000  Uiso   1.00
C34    C     0.05102   0.49249   0.48838   0.00000  Uiso   1.00
C35    C     0.02597   0.59153   0.54196   0.00000  Uiso   1.00
C36    C     0.05296   0.29043   0.39793   0.00000  Uiso   1.00
H4     H     0.65564   0.47399   0.29025   0.00000  Uiso   1.00
H5     H     0.74365   0.47192   0.29749   0.00000  Uiso   1.00
H6     H     0.87905   0.21914   0.34726   0.00000  Uiso   1.00
H7     H     0.96394   0.22003   0.33183   0.00000  Uiso   1.00
H8     H     0.03711   0.20502   0.36912   0.00000  Uiso   1.00
O11    O     0.20179   0.69816   0.55373   0.00000  Uiso   1.00
C37    C     0.10205   0.69729   0.56784   0.00000  Uiso   1.00
H9     H     0.34937   0.47070   0.25560   0.00000  Uiso   1.00
H10    H     0.26068   0.47112   0.25103   0.00000  Uiso   1.00
H11    H     0.12089   0.77930   0.59765   0.00000  Uiso   1.00
C38    C     0.94917   0.67627   0.62529   0.00000  Uiso   1.00
C39    C     0.89941   0.67170   0.63354   0.00000  Uiso   1.00
O12    O     0.79953   0.66701   0.63631   0.00000  Uiso   1.00
C40    C     0.05230   0.69505   0.57749   0.00000  Uiso   1.00
H12    H     0.96572   0.75199   0.67754   0.00000  Uiso   1.00
H13    H     0.65150   0.49812   0.73717   0.00000  Uiso   1.00
H14    H     0.88064   0.74447   0.68659   0.00000  Uiso   1.00
H15    H     0.74006   0.49307   0.74295   0.00000  Uiso   1.00
H16    H     0.03585   0.77871   0.61027   0.00000  Uiso   1.00
C41    C     0.49961   0.92633   0.38519   0.00000  Uiso   1.00
C42    C     0.50333   0.86038   0.50259   0.00000  Uiso   1.00
H17    H     0.49631   0.88036   0.28561   0.00000  Uiso   1.00
H18    H     0.50762   0.90152   0.60426   0.00000  Uiso   1.00
C43    C     0.50044   0.06053   0.38151   0.00000  Uiso   1.00
C44    C     0.49754   0.12934   0.49617   0.00000  Uiso   1.00
H19    H     0.50279   0.10371   0.27996   0.00000  Uiso   1.00
H20    H     0.49386   0.09001   0.59890   0.00000  Uiso   1.00
C45    C     0.52281   0.42281   0.91467   0.00000  Uiso   1.00
N3     N     0.49425   0.49135   0.84346   0.00000  Uiso   1.00
H21    H     0.55011   0.36914   0.86136   0.00000  Uiso   1.00
H22    H     0.46340   0.52041   0.89420   0.00000  Uiso   1.00
C46    C     0.51692   0.40880   0.06750   0.00000  Uiso   1.00
N4     N     0.50562   0.49933   0.14619   0.00000  Uiso   1.00
H23    H     0.52382   0.32084   0.11365   0.00000  Uiso   1.00
N5     N     0.51186   0.61150   0.08618   0.00000  Uiso   1.00
C47    C     0.55835   0.65133   0.08647   0.00000  Uiso   1.00
O13    O     0.59189   0.58032   0.10198   0.00000  Uiso   1.00
C48    C     0.56919   0.78264   0.06540   0.00000  Uiso   1.00
H24    H     0.48634   0.67551   0.11336   0.00000  Uiso   1.00
H25    H     0.59361   0.79310   0.97389   0.00000  Uiso   1.00
H26    H     0.58756   0.81897   0.15980   0.00000  Uiso   1.00
H27    H     0.53528   0.83436   0.04592   0.00000  Uiso   1.00
