# Generated by REPEAT Assigner based on pymatgen
data_DB0-m2_o13_atn
_audit_creation_date              2022-05-24
_audit_creation_method            REPEAT_Assigner
_cell_length_a                    25.741769
_cell_length_b                    33.449754
_cell_length_c                    33.212649
_cell_angle_alpha                 97.617177
_cell_angle_beta                  110.034706
_cell_angle_gamma                 69.541749
_cell_volume                      25170.081665
_symmetry_space_group_name_H-M    P1
_symmetry_Int_Tables_number       1
loop_
    _symmetry_equiv_pos_site_id
    _symmetry_equiv_pos_as_xyz
    1  x,y,z
loop_
    _atom_site_type_symbol
    _atom_site_label
    _atom_site_fract_x
    _atom_site_fract_y
    _atom_site_fract_z
    _atom_type_partial_charge
    O   O1    0.529224  0.558289  0.548496  -0.621383
    O   O2    0.480663  0.581175  0.479778  -0.676453
    C   C1    0.502549  0.589340  0.520977  0.800963
    O   O3    0.610284  0.492276  0.523126  -0.627922
    O   O4    0.563956  0.513900  0.453760  -0.615470
    C   C2    0.611970  0.500111  0.485888  0.728244
    Cu  Cu1   0.538128  0.498921  0.535187  1.010231
    Cu  Cu2   0.486737  0.522490  0.454979  1.027543
    O   O5    0.542406  0.442092  0.512707  -0.609778
    O   O6    0.502544  0.460260  0.442267  -0.642221
    O   O7    0.458425  0.508428  0.535102  -0.620574
    O   O8    0.415772  0.525243  0.464296  -0.595044
    C   C3    0.526209  0.431044  0.472191  0.740096
    C   C4    0.411817  0.518613  0.500895  0.674816
    O   O9    0.036633  0.443196  0.458482  -0.595388
    O   O10   0.057136  0.465721  0.528263  -0.646590
    C   C5    0.061788  0.434723  0.499337  0.735181
    O   O11   0.058294  0.508149  0.432978  -0.629284
    O   O12   0.085449  0.528009  0.503457  -0.599780
    C   C6    0.095568  0.519573  0.466756  0.699342
    Cu  Cu3   0.987871  0.498420  0.434234  0.996800
    Cu  Cu4   0.016565  0.527138  0.513382  1.026076
    O   O13   0.941629  0.556872  0.419086  -0.601825
    O   O14   0.971200  0.584289  0.486385  -0.667135
    O   O15   0.922647  0.492040  0.447651  -0.625698
    O   O16   0.946651  0.519891  0.515404  -0.613568
    C   C7    0.940845  0.589756  0.445268  0.756831
    C   C8    0.912552  0.503263  0.484456  0.724698
    O   O17   0.679197  0.168175  0.533666  -0.621404
    O   O18   0.655821  0.156543  0.461477  -0.641933
    C   C9    0.652907  0.182748  0.494585  0.738164
    O   O19   0.793929  0.115504  0.544605  -0.632062
    O   O20   0.768808  0.103814  0.472351  -0.594313
    C   C10   0.805217  0.112299  0.508317  0.688282
    Cu  Cu5   0.723070  0.109521  0.549906  1.021878
    Cu  Cu6   0.696959  0.093922  0.467175  1.029195
    O   O21   0.761448  0.048745  0.556719  -0.634472
    O   O22   0.742836  0.033713  0.485177  -0.699189
    O   O23   0.648820  0.101246  0.543391  -0.615425
    O   O24   0.626614  0.087880  0.471439  -0.607481
    C   C11   0.765987  0.021045  0.525346  0.861178
    C   C12   0.613239  0.092501  0.506850  0.682279
    O   O25   0.474179  0.802294  0.704536  -0.682242
    O   O26   0.518891  0.731531  0.719790  -0.615649
    C   C13   0.491584  0.762120  0.691775  0.802461
    O   O27   0.568853  0.817207  0.771219  -0.607511
    O   O28   0.608564  0.746370  0.786706  -0.624343
    C   C14   0.614445  0.782536  0.780945  0.705155
    Cu  Cu7   0.489811  0.821202  0.765943  1.016757
    Cu  Cu8   0.533590  0.739120  0.780763  1.014601
    O   O29   0.509555  0.827689  0.829500  -0.639739
    O   O30   0.542144  0.755975  0.839843  -0.619383
    O   O31   0.416542  0.815975  0.764025  -0.583104
    O   O32   0.452042  0.743904  0.772688  -0.621648
    C   C15   0.530414  0.795012  0.855307  0.735361
    C   C16   0.408261  0.780139  0.766832  0.690239
    O   O33   0.740811  0.720205  0.227962  -0.618460
    O   O34   0.726931  0.787635  0.256104  -0.661465
    C   C17   0.746083  0.745920  0.261307  0.767562
    O   O35   0.781207  0.742101  0.168719  -0.630327
    O   O36   0.762352  0.810780  0.193811  -0.602573
    C   C18   0.796310  0.776715  0.180000  0.697338
    Cu  Cu9   0.707166  0.737287  0.168905  1.006805
    Cu  Cu10  0.687736  0.815729  0.198907  1.023111
    O   O37   0.666783  0.763124  0.113228  -0.604459
    O   O38   0.651521  0.831958  0.137426  -0.645893
    O   O39   0.630460  0.743773  0.173197  -0.612516
    O   O40   0.613176  0.812647  0.197629  -0.606665
    C   C19   0.646068  0.804066  0.105528  0.743772
    C   C20   0.596383  0.778960  0.185801  0.704792
    O   O41   0.190819  0.160029  0.508741  -0.639166
    O   O42   0.157961  0.173113  0.437211  -0.620798
    C   C21   0.170734  0.186900  0.477006  0.732185
    O   O43   0.281900  0.093945  0.494256  -0.582726
    O   O44   0.246032  0.105419  0.422303  -0.620138
    C   C22   0.290109  0.097644  0.458323  0.690158
    Cu  Cu11  0.208046  0.097239  0.499782  1.014904
    Cu  Cu12  0.164307  0.115091  0.417968  1.012894
    O   O45   0.221275  0.036952  0.478648  -0.680384
    O   O46   0.176835  0.054816  0.408191  -0.615300
    O   O47   0.128397  0.103972  0.495836  -0.606838
    O   O48   0.089057  0.121888  0.425307  -0.621355
    C   C23   0.203223  0.025823  0.437898  0.799417
    C   C24   0.082852  0.115201  0.461292  0.706697
    O   O49   0.040250  0.785565  0.827064  -0.644044
    O   O50   0.016045  0.857406  0.839086  -0.618016
    C   C25   0.042154  0.818456  0.853580  0.741376
    O   O51   0.071626  0.795649  0.758865  -0.603727
    O   O52   0.049062  0.867125  0.773138  -0.612797
    C   C26   0.085096  0.830742  0.764288  0.679437
    Cu  Cu13  0.000765  0.791507  0.763983  1.024958
    Cu  Cu14  0.973763  0.873748  0.780227  1.017428
    O   O53   0.956110  0.809957  0.703482  -0.697804
    O   O54   0.937636  0.881019  0.719206  -0.628350
    O   O55   0.928429  0.796461  0.772986  -0.587538
    O   O56   0.902121  0.868351  0.785003  -0.633125
    C   C27   0.933540  0.850065  0.691088  0.854736
    C   C28   0.891237  0.832143  0.781298  0.683749
    O   O57   0.143022  0.844772  0.113618  -0.614249
    O   O58   0.178365  0.775244  0.133577  -0.641771
    C   C29   0.156573  0.804087  0.103475  0.741728
    O   O59   0.230724  0.864636  0.178167  -0.621114
    O   O60   0.268885  0.794523  0.196579  -0.595701
    C   C30   0.275649  0.829326  0.188441  0.679853
    Cu  Cu15  0.149687  0.869090  0.170509  1.015454
    Cu  Cu16  0.195640  0.789676  0.195789  1.021327
    O   O61   0.160595  0.884181  0.230174  -0.623401
    O   O62   0.204076  0.815901  0.254338  -0.674574
    O   O63   0.075274  0.862110  0.166628  -0.632508
    O   O64   0.116549  0.793300  0.189428  -0.605135
    C   C31   0.185377  0.857378  0.261877  0.795157
    C   C32   0.070303  0.826974  0.176242  0.729226
    C   C33   0.150735  0.520989  0.465103  -0.007898
    C   C34   0.354900  0.520778  0.502198  0.006338
    C   C35   0.291392  0.522792  0.540958  -0.267516
    C   C36   0.345350  0.521452  0.540708  -0.111266
    C   C37   0.310555  0.521091  0.464066  -0.235112
    C   C38   0.257135  0.521451  0.464370  0.218932
    C   C39   0.247489  0.522585  0.502806  0.218792
    C   C40   0.194150  0.522890  0.503153  -0.237492
    C   C41   0.160624  0.519381  0.426567  -0.108199
    C   C42   0.213697  0.520050  0.426246  -0.263924
    H   H1    0.187453  0.523472  0.533627  0.141824
    H   H2    0.127084  0.517871  0.396582  0.130705
    H   H3    0.283969  0.523481  0.571200  0.155482
    H   H4    0.221268  0.518946  0.395995  0.154796
    H   H5    0.379607  0.521231  0.570749  0.131411
    H   H6    0.317677  0.519895  0.433651  0.137261
    C   C43   0.667192  0.494412  0.479365  -0.037082
    C   C44   0.862808  0.497872  0.491754  -0.036327
    C   C45   0.812875  0.497608  0.540474  -0.271548
    C   C46   0.861056  0.500051  0.533135  -0.091090
    C   C47   0.816639  0.492525  0.457783  -0.238224
    C   C48   0.767667  0.491440  0.465121  0.231005
    C   C49   0.765704  0.494059  0.506428  0.215656
    C   C50   0.715850  0.494680  0.513654  -0.225643
    C   C51   0.669431  0.491305  0.438055  -0.095045
    C   C52   0.719856  0.489227  0.430986  -0.282972
    H   H7    0.714048  0.497751  0.545991  0.144020
    H   H8    0.631766  0.490654  0.410817  0.131503
    H   H9    0.811650  0.499763  0.572915  0.152528
    H   H10   0.721009  0.487244  0.398540  0.158023
    H   H11   0.897166  0.503805  0.560210  0.130022
    H   H12   0.817431  0.491311  0.425318  0.147665
    C   C53   0.618729  0.228493  0.490112  -0.027876
    C   C54   0.537681  0.385174  0.462504  -0.048436
    C   C55   0.571219  0.321805  0.422394  -0.292639
    C   C56   0.549941  0.366066  0.425746  -0.087890
    C   C57   0.543906  0.359710  0.494388  -0.240493
    C   C58   0.565495  0.315994  0.491269  0.244630
    C   C59   0.580553  0.296516  0.455760  0.236501
    C   C60   0.606726  0.252326  0.454801  -0.264845
    C   C61   0.601155  0.248754  0.524594  -0.084246
    C   C62   0.574360  0.292048  0.525007  -0.285476
    H   H13   0.620470  0.236944  0.427701  0.154413
    H   H14   0.608674  0.231052  0.552137  0.126247
    H   H15   0.582742  0.307186  0.394252  0.156277
    H   H16   0.562249  0.307251  0.552774  0.153711
    H   H17   0.546095  0.385408  0.400593  0.128591
    H   H18   0.534067  0.373966  0.523187  0.146692
    C   C63   0.479712  0.748940  0.646482  -0.039045
    C   C64   0.504357  0.631807  0.537997  -0.034374
    C   C65   0.565891  0.667441  0.588889  -0.268761
    C   C66   0.559048  0.635146  0.559378  -0.109847
    C   C67   0.455624  0.663033  0.544617  -0.263392
    C   C68   0.462663  0.695181  0.575159  0.225245
    C   C69   0.518052  0.696232  0.598279  0.257363
    C   C70   0.526402  0.722960  0.633653  -0.289337
    C   C71   0.423753  0.750382  0.621446  -0.082248
    C   C72   0.415243  0.723753  0.585768  -0.277180
    H   H19   0.570348  0.720428  0.654026  0.147794
    H   H20   0.386961  0.769117  0.632039  0.114670
    H   H21   0.609461  0.667862  0.607115  0.149311
    H   H22   0.371575  0.723111  0.568239  0.149742
    H   H23   0.597413  0.610220  0.555554  0.123512
    H   H24   0.412916  0.659591  0.529593  0.140741
    C   C73   0.904202  0.631775  0.426424  -0.014871
    C   C74   0.766634  0.726032  0.303279  -0.020505
    C   C75   0.767166  0.668254  0.339086  -0.255175
    C   C76   0.741499  0.696641  0.306026  -0.119695
    C   C77   0.816888  0.728263  0.335714  -0.261416
    C   C78   0.843679  0.698726  0.368735  0.209891
    C   C79   0.819400  0.668114  0.369384  0.254339
    C   C80   0.849410  0.635071  0.398003  -0.284390
    C   C81   0.927214  0.663844  0.428013  -0.102671
    C   C82   0.896901  0.697299  0.399301  -0.260270
    H   H25   0.831745  0.609647  0.395965  0.147717
    H   H26   0.970886  0.661092  0.449111  0.123077
    H   H27   0.748074  0.644250  0.339412  0.145072
    H   H28   0.916833  0.720843  0.399182  0.146517
    H   H29   0.702849  0.694222  0.280698  0.132498
    H   H30   0.838026  0.750176  0.333129  0.146118
    C   C83   0.164481  0.232487  0.483701  -0.036838
    C   C84   0.093930  0.389672  0.510448  -0.040229
    C   C85   0.114043  0.327048  0.548727  -0.260248
    C   C86   0.093848  0.371246  0.545327  -0.099842
    C   C87   0.117450  0.363796  0.480861  -0.245580
    C   C88   0.136981  0.320119  0.484016  0.257138
    C   C89   0.134178  0.301179  0.517287  0.197250
    C   C90   0.148791  0.256908  0.517570  -0.243242
    C   C91   0.169456  0.252202  0.451837  -0.085019
    C   C92   0.156356  0.295587  0.452195  -0.279778
    H   H31   0.144222  0.241918  0.542490  0.150411
    H   H32   0.182684  0.233898  0.425579  0.130663
    H   H33   0.111434  0.312860  0.575075  0.147133
    H   H34   0.158928  0.310377  0.426226  0.149105
    H   H35   0.074730  0.390955  0.568516  0.129615
    H   H36   0.118119  0.377717  0.453558  0.142500
    C   C93   0.348893  0.094339  0.459467  -0.020819
    C   C94   0.556593  0.090208  0.504826  0.002819
    C   C95   0.489529  0.090108  0.539815  -0.280333
    C   C96   0.543919  0.090203  0.541993  -0.102380
    C   C97   0.514405  0.089981  0.465487  -0.239801
    C   C98   0.459579  0.090731  0.463405  0.212225
    C   C99   0.447210  0.090759  0.500571  0.225716
    C   C100  0.392249  0.092152  0.498611  -0.221683
    C   C101  0.361376  0.094334  0.422205  -0.102414
    C   C102  0.416730  0.092239  0.424212  -0.266406
    H   H37   0.383265  0.092485  0.528146  0.131562
    H   H38   0.328175  0.095986  0.391307  0.129048
    H   H39   0.479993  0.090242  0.569103  0.161035
    H   H40   0.426066  0.092363  0.394893  0.155580
    H   H41   0.576193  0.090394  0.573019  0.129158
    H   H42   0.523350  0.090511  0.436105  0.144935
    C   C103  0.025256  0.118795  0.463077  -0.033426
    C   C104  0.859623  0.116505  0.507419  -0.002727
    C   C105  0.957547  0.116654  0.543070  -0.276234
    C   C106  0.905083  0.115914  0.544819  -0.093014
    C   C107  0.866571  0.119166  0.468445  -0.250360
    C   C108  0.918884  0.120248  0.466789  0.237290
    C   C109  0.964703  0.118334  0.504037  0.216496
    C   C110  0.017886  0.117420  0.502200  -0.237729
    C   C111  0.978621  0.121994  0.425896  -0.071093
    C   C112  0.925687  0.122532  0.427784  -0.288975
    H   H43   0.053764  0.115269  0.531627  0.147906
    H   H44   0.983452  0.122984  0.395018  0.120562
    H   H45   0.993285  0.115272  0.572458  0.155007
    H   H46   0.889811  0.124170  0.398432  0.156528
    H   H47   0.900655  0.113664  0.575566  0.128444
    H   H48   0.831326  0.120018  0.438882  0.145671
    C   C113  0.898586  0.862686  0.646714  -0.066182
    C   C114  0.802818  0.976977  0.537414  -0.059937
    C   C115  0.901033  0.932849  0.572057  -0.288467
    C   C116  0.862265  0.966263  0.545371  -0.085126
    C   C117  0.782402  0.951928  0.554108  -0.280919
    C   C118  0.821289  0.918390  0.580938  0.264758
    C   C119  0.880661  0.910098  0.591408  0.248572
    C   C120  0.919172  0.882436  0.624344  -0.269784
    C   C121  0.839475  0.868439  0.633683  -0.080417
    C   C122  0.800991  0.896016  0.600809  -0.297222
    H   H49   0.964954  0.879677  0.635646  0.132058
    H   H50   0.822483  0.854873  0.652129  0.115571
    H   H51   0.947500  0.926852  0.580338  0.155191
    H   H52   0.754500  0.902523  0.593129  0.156034
    H   H53   0.878858  0.986703  0.534172  0.114405
    H   H54   0.736151  0.961316  0.549660  0.133398
    C   C123  0.615971  0.816652  0.060460  -0.045286
    C   C124  0.538291  0.799663  0.901487  -0.035569
    C   C125  0.546838  0.765517  0.963420  -0.273749
    C   C126  0.531885  0.767687  0.919837  -0.089337
    C   C127  0.557460  0.831140  0.927638  -0.244398
    C   C128  0.573795  0.828312  0.972078  0.198055
    C   C129  0.569443  0.794900  0.989504  0.252795
    C   C130  0.590115  0.789280  0.033101  -0.238242
    C   C131  0.617845  0.851639  0.043658  -0.098413
    C   C132  0.596883  0.857364  0.999523  -0.261633
    H   H55   0.587606  0.762082  0.045697  0.139147
    H   H56   0.638427  0.873271  0.064530  0.128922
    H   H57   0.542993  0.739476  0.977029  0.148370
    H   H58   0.600672  0.883822  0.986561  0.148004
    H   H59   0.516090  0.743259  0.900198  0.130477
    H   H60   0.563275  0.856065  0.913715  0.149662
    C   C133  0.349642  0.781697  0.764446  -0.018216
    C   C134  0.142160  0.828434  0.762446  -0.000386
    C   C135  0.210061  0.862621  0.763470  -0.283700
    C   C136  0.155490  0.865210  0.763611  -0.098105
    C   C137  0.183951  0.789078  0.761127  -0.239715
    C   C138  0.238908  0.786560  0.761731  0.212833
    C   C139  0.251871  0.823337  0.762825  0.228034
    C   C140  0.306858  0.820927  0.763827  -0.223497
    C   C141  0.336602  0.744819  0.763478  -0.103007
    C   C142  0.281232  0.747300  0.761863  -0.268652
    H   H61   0.316233  0.850177  0.764914  0.131360
    H   H62   0.369333  0.713872  0.763906  0.129202
    H   H63   0.220077  0.891604  0.764442  0.161994
    H   H64   0.271417  0.718275  0.761138  0.156150
    H   H65   0.123564  0.896233  0.764676  0.127708
    H   H66   0.174512  0.759963  0.760691  0.145586
    C   C143  0.836627  0.830801  0.784820  -0.003939
    C   C144  0.671769  0.784687  0.784461  -0.025110
    C   C145  0.771711  0.750319  0.788072  -0.285834
    C   C146  0.718878  0.747889  0.787049  -0.077356
    C   C147  0.678504  0.823935  0.784056  -0.239640
    C   C148  0.731563  0.826304  0.785426  0.212575
    C   C149  0.777913  0.789469  0.786864  0.233911
    C   C150  0.830214  0.791692  0.786434  -0.243763
    C   C151  0.790570  0.867769  0.784609  -0.093447
    C   C152  0.738120  0.865464  0.784768  -0.272345
    H   H67   0.865883  0.762426  0.786968  0.143250
    H   H68   0.794584  0.898604  0.783177  0.128149
    H   H69   0.808029  0.721289  0.789321  0.156330
    H   H70   0.701938  0.894531  0.783760  0.154174
    H   H71   0.714562  0.716945  0.787333  0.122543
    H   H72   0.642270  0.853079  0.782421  0.148824
    C   C153  0.538790  0.781207  0.186353  -0.032768
    C   C154  0.333624  0.827602  0.189216  0.008402
    C   C155  0.401360  0.862094  0.190513  -0.269635
    C   C156  0.346518  0.864507  0.190033  -0.110773
    C   C157  0.375662  0.788392  0.188201  -0.248180
    C   C158  0.429945  0.786057  0.187614  0.237213
    C   C159  0.443067  0.822873  0.189207  0.214812
    C   C160  0.497680  0.820451  0.189139  -0.234412
    C   C161  0.525032  0.744419  0.183968  -0.096732
    C   C162  0.470940  0.746860  0.185036  -0.275827
    H   H73   0.507552  0.849536  0.190433  0.145622
    H   H74   0.556617  0.713482  0.181917  0.130163
    H   H75   0.411257  0.891137  0.191535  0.156359
    H   H76   0.460770  0.717859  0.183565  0.155860
    H   H77   0.314224  0.895420  0.190816  0.130614
    H   H78   0.365953  0.759226  0.186811  0.139767
    C   C163  0.013347  0.824945  0.173564  -0.051545
    C   C164  0.850777  0.778388  0.176743  -0.010411
    C   C165  0.947645  0.743945  0.173400  -0.266120
    C   C166  0.895737  0.741496  0.174495  -0.104945
    C   C167  0.857397  0.817631  0.176414  -0.251940
    C   C168  0.908829  0.820032  0.174413  0.249509
    C   C169  0.954343  0.783203  0.173678  0.216823
    C   C170  0.006715  0.785656  0.173672  -0.242311
    C   C171  0.966920  0.861777  0.172746  -0.064146
    C   C172  0.914917  0.859285  0.173521  -0.300224
    H   H79   0.042472  0.756556  0.173768  0.149292
    H   H80   0.971442  0.892726  0.172893  0.123795
    H   H81   0.983136  0.714915  0.172583  0.153206
    H   H82   0.879188  0.888296  0.173871  0.155941
    H   H83   0.891281  0.710589  0.174740  0.132386
    H   H84   0.822185  0.846776  0.177395  0.151280
    C   C173  0.183375  0.875616  0.304211  -0.021077
    C   C174  0.212605  0.981293  0.423218  -0.037814
    C   C175  0.275019  0.918974  0.397811  -0.270110
    C   C176  0.268028  0.954312  0.424995  -0.087940
    C   C177  0.164725  0.970887  0.396319  -0.285126
    C   C178  0.171571  0.935858  0.369093  0.253148
    C   C179  0.226645  0.910656  0.368429  0.225878
    C   C180  0.232720  0.880123  0.336018  -0.272715
    C   C181  0.128809  0.899202  0.307086  -0.108791
    C   C182  0.122853  0.928736  0.339599  -0.269761
    H   H85   0.275501  0.863186  0.332998  0.141651
    H   H86   0.090118  0.896850  0.281758  0.123563
    H   H87   0.318483  0.899767  0.397510  0.148222
    H   H88   0.079572  0.948582  0.339764  0.149559
    H   H89   0.305871  0.962950  0.444583  0.115853
    H   H90   0.121326  0.992712  0.393690  0.147439
    C   C183  0.075538  0.814075  0.899539  -0.028048
    C   C184  0.145800  0.792871  0.057704  -0.044216
    C   C185  0.111846  0.752197  0.995121  -0.282267
    C   C186  0.131154  0.757013  0.039481  -0.092913
    C   C187  0.144034  0.822214  0.031388  -0.245321
    C   C188  0.124697  0.817566  0.987556  0.247489
    C   C189  0.107154  0.783114  0.968855  0.230072
    C   C190  0.083001  0.780940  0.924400  -0.266874
    C   C191  0.095799  0.847285  0.919056  -0.084644
    C   C192  0.120610  0.848838  0.962630  -0.283741
    H   H91   0.066900  0.754958  0.909567  0.155055
    H   H92   0.091656  0.873041  0.900446  0.126196
    H   H93   0.098358  0.724910  0.981131  0.153207
    H   H94   0.134732  0.875724  0.977223  0.152199
    H   H95   0.131701  0.733818  0.059525  0.128050
    H   H96   0.155959  0.850177  0.045008  0.148703
