# Generated by REPEAT Assigner based on pymatgen
data_DB0-m29_o81_o143_f0_pts.sym.28
_audit_creation_date              2022-05-24
_audit_creation_method            REPEAT_Assigner
_cell_length_a                    15.764993
_cell_length_b                    17.265469
_cell_length_c                    11.211505
_cell_angle_alpha                 108.757446
_cell_angle_beta                  87.975654
_cell_angle_gamma                 108.203899
_cell_volume                      2737.754061
_symmetry_space_group_name_H-M    P1
_symmetry_Int_Tables_number       1
loop_
    _symmetry_equiv_pos_site_id
    _symmetry_equiv_pos_as_xyz
    1  x,y,z
loop_
    _atom_site_type_symbol
    _atom_site_label
    _atom_site_fract_x
    _atom_site_fract_y
    _atom_site_fract_z
    _atom_type_partial_charge
    C   C1   0.879891  0.009365  0.850017  -0.200031
    C   C2   0.281687  0.997468  0.908411  0.025974
    C   C3   0.197753  0.994387  0.870586  -0.170728
    C   C4   0.129402  0.990155  0.950915  0.118691
    C   C5   0.047421  0.990638  0.912699  -0.210099
    C   C6   0.978247  0.990183  0.993822  -0.023277
    C   C7   0.797611  0.010171  0.816845  -0.148891
    C   C8   0.726868  0.993222  0.889545  0.073519
    C   C9   0.894766  0.993860  0.960387  0.139865
    C   C10  0.825476  0.985042  0.041169  0.115184
    C   C11  0.739761  0.981592  0.003787  -0.104712
    C   C12  0.295885  0.994358  0.028657  0.009929
    C   C13  0.225852  0.986697  0.106319  -0.292417
    C   C14  0.143315  0.986099  0.068368  0.264560
    C   C15  0.074938  0.982838  0.148295  -0.314485
    C   C16  0.993177  0.984965  0.111411  0.233855
    C   C17  0.927013  0.983384  0.194412  -0.196576
    C   C18  0.844277  0.983419  0.160318  -0.145193
    H   H1   0.930828  0.023418  0.786893  0.137568
    H   H2   0.185220  0.996542  0.777814  0.141572
    H   H3   0.040421  0.990137  0.817538  0.157047
    H   H4   0.788099  0.020383  0.728757  0.180834
    H   H5   0.237350  0.985439  0.200054  0.213731
    H   H6   0.085728  0.979635  0.241032  0.160139
    H   H7   0.939516  0.981780  0.287626  0.148766
    H   H8   0.797055  0.985141  0.232013  0.150974
    O   O1   0.607736  0.013233  0.095689  -0.505451
    C   C19  0.663751  0.968838  0.084606  0.516603
    O   O2   0.462164  0.811608  0.112068  -0.425302
    O   O3   0.650048  0.911334  0.142210  -0.439133
    O   O4   0.507716  0.909669  0.307395  -0.508563
    C   C20  0.480628  0.828886  0.232882  0.512359
    Fe  Fe1  0.517870  0.994998  0.220187  1.434438
    O   O5   0.396625  0.949241  0.127486  -0.543561
    O   O6   0.448846  0.079691  0.098329  -0.502963
    C   C21  0.384472  0.006495  0.081905  0.671200
    O   O7   0.555603  0.111863  0.353079  -0.657820
    O   O8   0.407441  0.069721  0.387185  -0.601004
    C   C22  0.487212  0.127704  0.414746  0.789461
    O   O9   0.451989  0.879925  0.576510  -0.593807
    O   O10  0.596119  0.908570  0.522878  -0.528994
    C   C23  0.513400  0.856356  0.505455  0.656108
    O   O11  0.633434  0.034169  0.773599  -0.569127
    O   O12  0.568378  0.920916  0.843044  -0.484817
    C   C24  0.639116  0.984766  0.838740  0.606390
    O   O13  0.335527  0.008491  0.708417  -0.486535
    O   O14  0.518270  0.081595  0.609800  -0.519447
    C   C25  0.515003  0.156087  0.686679  0.553446
    O   O15  0.428756  0.993707  0.842067  -0.473496
    C   C26  0.351623  0.001253  0.817728  0.518359
    O   O16  0.504050  0.164091  0.806066  -0.470604
    Fe  Fe2  0.507209  0.998383  0.701091  1.429179
    C   C27  0.499760  0.211816  0.510256  0.032180
    C   C28  0.494788  0.276939  0.467966  -0.217949
    H   H9   0.478151  0.261983  0.368683  0.125725
    C   C29  0.508424  0.359225  0.550039  0.062989
    C   C30  0.531451  0.377418  0.676516  -0.073109
    C   C31  0.534455  0.311897  0.721135  -0.166797
    C   C32  0.516814  0.227477  0.638550  -0.041791
    C   C33  0.447162  0.477142  0.560581  -0.184240
    C   C34  0.439009  0.540236  0.515598  -0.103326
    C   C35  0.480141  0.551471  0.408752  0.048070
    C   C36  0.528825  0.498193  0.346804  -0.148025
    C   C37  0.538100  0.435927  0.392917  -0.155772
    C   C38  0.498551  0.425869  0.501340  0.138255
    C   C39  0.461456  0.608103  0.237669  -0.145235
    H   H10  0.449995  0.544631  0.169171  0.132287
    C   C40  0.461070  0.675416  0.196889  -0.161188
    H   H11  0.450086  0.662614  0.096858  0.155123
    C   C41  0.477081  0.757975  0.281735  0.049405
    C   C42  0.490904  0.771110  0.409810  0.020715
    C   C43  0.488356  0.702889  0.449982  -0.205561
    H   H12  0.501901  0.715244  0.549355  0.133184
    C   C44  0.475234  0.621495  0.364583  0.119336
    H   H13  0.412130  0.467784  0.641982  0.126695
    H   H14  0.398873  0.579834  0.563791  0.119998
    H   H15  0.562962  0.506934  0.264520  0.118910
    H   H16  0.578636  0.396654  0.345093  0.132802
    C   C45  0.561977  0.467367  0.761078  0.601303
    O   O17  0.520747  0.491028  0.852305  -0.465941
    C   C46  0.642179  0.531195  0.733792  -0.466720
    H   H17  0.672555  0.498929  0.649462  0.100972
    H   H18  0.692178  0.559607  0.815966  0.138834
    H   H19  0.622395  0.583290  0.717028  0.156739
    C   C47  0.567844  0.335560  0.852752  0.744933
    O   O18  0.643300  0.336712  0.875936  -0.489317
    C   C48  0.508249  0.352305  0.957786  -0.496125
    H   H20  0.441445  0.345184  0.919056  0.096679
    H   H21  0.538323  0.418461  0.024785  0.153316
    H   H22  0.500726  0.305398  0.008765  0.169930
