# Generated by REPEAT Assigner based on pymatgen
data_DB0-m3_o25_o149_f0_fsc.sym.8
_audit_creation_date              2022-05-24
_audit_creation_method            REPEAT_Assigner
_cell_length_a                    8.533110
_cell_length_b                    10.764913
_cell_length_c                    14.230698
_cell_angle_alpha                 90.526693
_cell_angle_beta                  90.090474
_cell_angle_gamma                 89.998261
_cell_volume                      1307.149289
_symmetry_space_group_name_H-M    P1
_symmetry_Int_Tables_number       1
loop_
    _symmetry_equiv_pos_site_id
    _symmetry_equiv_pos_as_xyz
    1  x,y,z
loop_
    _atom_site_type_symbol
    _atom_site_label
    _atom_site_fract_x
    _atom_site_fract_y
    _atom_site_fract_z
    _atom_type_partial_charge
    C   C1   0.002741  0.685106  0.037449  -0.020905
    C   C2   0.862495  0.744349  0.024355  -0.124489
    C   C3   0.859020  0.869326  0.006819  -0.115447
    C   C4   0.141063  0.747628  0.024952  -0.364733
    C   C5   0.139321  0.875193  0.012379  0.650089
    C   C6   0.997314  0.937924  0.006983  -0.281145
    C   C7   0.997372  0.066730  0.997531  0.405283
    C   C8   0.859215  0.135562  0.998066  -0.371784
    C   C9   0.862639  0.260427  0.980183  -0.022715
    N   N1   0.275382  0.937916  0.006718  -0.639879
    C   C10  0.277995  0.062199  0.996802  0.238324
    C   C11  0.139654  0.128774  0.991548  -0.165901
    C   C12  0.141563  0.256674  0.978873  -0.122177
    C   C13  0.002996  0.319263  0.966619  -0.112617
    H   H1   0.004483  0.586322  0.048899  0.123987
    H   H2   0.004833  0.418018  0.955039  0.129715
    H   H3   0.745813  0.908210  0.991965  0.113363
    H   H4   0.746136  0.096861  0.013309  0.175289
    H   H5   0.389725  0.108872  0.991877  0.064575
    O   O1   0.670891  0.390959  0.911197  -0.746704
    O   O2   0.664754  0.357945  0.071409  -0.722059
    C   C14  0.720961  0.335354  0.987165  0.882285
    O   O3   0.671160  0.614073  0.093248  -0.723458
    O   O4   0.664534  0.647086  0.932996  -0.676767
    C   C15  0.720840  0.669672  0.017305  0.815327
    O   O5   0.332264  0.614899  0.092844  -0.728305
    O   O6   0.337718  0.647376  0.933030  -0.680239
    C   C16  0.283488  0.672490  0.017448  0.888612
    O   O7   0.331931  0.390230  0.911161  -0.745853
    O   O8   0.337886  0.357759  0.070978  -0.724445
    C   C17  0.283292  0.332782  0.986540  0.892480
    Zn  Zn1  0.501276  0.485387  0.105926  1.106833
    Zn  Zn2  0.500987  0.519679  0.898291  1.091439
    C   C18  0.370363  0.452845  0.536598  -0.240517
    C   C19  0.376316  0.559081  0.466400  -0.171737
    H   H6   0.274181  0.606556  0.434539  0.095581
    H   H7   0.262976  0.412234  0.567567  0.108678
    N   N2   0.501078  0.468465  0.228602  0.026322
    N   N3   0.500602  0.536561  0.775610  0.039888
    C   C20  0.494014  0.381981  0.480491  -0.074395
    C   C21  0.500760  0.488201  0.412233  0.655852
    C   C22  0.624173  0.443699  0.537693  -0.247624
    C   C23  0.500516  0.514450  0.592119  0.719084
    C   C24  0.631724  0.549815  0.467493  -0.203030
    C   C25  0.507146  0.617529  0.522789  0.229380
    C   C26  0.500935  0.474845  0.309811  -0.265425
    C   C27  0.500540  0.529297  0.694437  -0.282014
    H   H8   0.738753  0.591651  0.437011  0.116408
    H   H9   0.725867  0.395530  0.569504  0.117188
    H   H10  0.488481  0.282404  0.460082  0.071157
    O   O9   0.515344  0.742172  0.550596  -0.369099
    C   C28  0.474886  0.810728  0.471347  0.041150
    H   H11  0.345620  0.819171  0.466663  0.045676
    H   H12  0.521676  0.765577  0.406939  0.006823
    H   H13  0.526544  0.904981  0.477592  0.092673
