# Generated by REPEAT Assigner based on pymatgen
data_DB0-m3_o156_o470_f0_fsc.sym.12_sqe
_audit_creation_date              2022-05-24
_audit_creation_method            REPEAT_Assigner
_cell_length_a                    8.562439
_cell_length_b                    11.191155
_cell_length_c                    17.474837
_cell_angle_alpha                 90.859965
_cell_angle_beta                  90.087533
_cell_angle_gamma                 102.485011
_cell_volume                      1634.700279
_symmetry_space_group_name_H-M    P1
_symmetry_Int_Tables_number       1
loop_
    _symmetry_equiv_pos_site_id
    _symmetry_equiv_pos_as_xyz
    1  x,y,z
loop_
    _atom_site_type_symbol
    _atom_site_label
    _atom_site_fract_x
    _atom_site_fract_y
    _atom_site_fract_z
    _atom_type_partial_charge
    C   C1   0.081002  0.253463  0.987624  -0.066842
    C   C2   0.919894  0.747248  0.016480  -0.158576
    C   C3   0.963682  0.319911  0.984663  -0.153614
    C   C4   0.039184  0.683605  0.026649  -0.109147
    C   C5   0.806079  0.264816  0.992561  -0.276917
    C   C6   0.195280  0.736261  0.010680  -0.293221
    C   C7   0.765621  0.139489  0.997930  0.333867
    C   C8   0.232269  0.858351  0.992332  0.360724
    C   C9   0.881810  0.068778  0.997242  -0.121455
    C   C10  0.116435  0.929655  0.996232  -0.182719
    C   C11  0.041393  0.126261  0.992423  -0.115789
    C   C12  0.957522  0.872814  0.004840  -0.026730
    C   C13  0.840129  0.941859  0.003683  0.192487
    C   C14  0.157687  0.056499  0.991085  0.261868
    H   H1   0.997754  0.417454  0.978601  0.153852
    H   H2   0.006852  0.588065  0.040144  0.140608
    O   O1   0.694681  0.621789  0.074140  -0.774114
    O   O2   0.306229  0.378302  0.929415  -0.743360
    O   O3   0.698220  0.642924  0.942966  -0.671123
    O   O4   0.302870  0.357160  0.060575  -0.720762
    C   C15  0.758153  0.673193  0.011499  0.887986
    C   C16  0.243187  0.326539  0.992143  0.875567
    O   O5   0.646929  0.389577  0.932464  -0.742183
    O   O6   0.353789  0.610498  0.070945  -0.723725
    O   O7   0.631879  0.368160  0.063442  -0.740683
    O   O8   0.369189  0.632126  0.940013  -0.783285
    C   C17  0.684612  0.340852  0.996015  0.906354
    C   C18  0.315973  0.659246  0.007326  0.926449
    Zn  Zn1  0.505594  0.509968  0.916807  1.077793
    Zn  Zn2  0.495310  0.490192  0.086681  1.080589
    C   C19  0.482005  0.409783  0.779094  -0.152016
    C   C20  0.518873  0.590343  0.224396  -0.198954
    N   N1   0.510869  0.518182  0.816661  -0.086741
    N   N2   0.490023  0.481964  0.186822  -0.065675
    C   C21  0.539461  0.624161  0.778157  0.425919
    C   C22  0.461845  0.375935  0.225288  0.418058
    C   C23  0.447902  0.292733  0.662932  -0.348020
    C   C24  0.553301  0.707350  0.340546  -0.375538
    C   C25  0.479499  0.404624  0.700481  0.140330
    C   C26  0.521654  0.595468  0.302998  0.188355
    C   C27  0.507995  0.511164  0.659707  0.166258
    C   C28  0.493384  0.488910  0.343756  0.135367
    C   C29  0.539346  0.622491  0.698359  -0.411524
    C   C30  0.462123  0.377583  0.305092  -0.396849
    C   C31  0.569158  0.729643  0.656581  0.514591
    C   C32  0.432519  0.270429  0.346866  0.519666
    C   C33  0.411926  0.175378  0.546641  -0.282456
    C   C34  0.589578  0.824695  0.456823  -0.281915
    C   C35  0.444201  0.287269  0.584143  0.244352
    C   C36  0.557209  0.712804  0.419327  0.257166
    C   C37  0.472539  0.393701  0.542899  0.005714
    C   C38  0.528947  0.606366  0.460563  -0.000599
    C   C39  0.407844  0.169575  0.467873  -0.033942
    C   C40  0.593806  0.830496  0.535586  -0.038402
    C   C41  0.436277  0.276034  0.426097  -0.254576
    C   C42  0.565354  0.724033  0.577356  -0.247644
    C   C43  0.504669  0.505730  0.580728  -0.165749
    C   C44  0.496816  0.494337  0.422734  -0.155895
    C   C45  0.532925  0.612081  0.539561  0.167593
    C   C46  0.468621  0.387985  0.463899  0.170199
    H   H3   0.459741  0.325888  0.810995  0.183091
    H   H4   0.540949  0.674244  0.192502  0.192175
    H   H5   0.425499  0.209224  0.695286  0.160110
    H   H6   0.575575  0.790862  0.308196  0.165174
    H   H7   0.389610  0.091667  0.578794  0.151190
    H   H8   0.611851  0.908407  0.424671  0.151833
    H   H9   0.382409  0.080736  0.439844  0.086405
    H   H10  0.619305  0.919335  0.563614  0.086726
    O   O9   0.608324  0.086196  0.996296  -0.415964
    H   H11  0.579892  0.093506  0.941857  0.324934
    O   O10  0.383263  0.906295  0.968503  -0.434863
    H   H12  0.376542  0.899431  0.912004  0.336530
    O   O11  0.314740  0.113647  0.988616  -0.472938
    H   H13  0.345651  0.128572  0.043130  0.357559
    O   O12  0.683516  0.885433  0.013617  -0.373218
    H   H14  0.668732  0.884268  0.069802  0.317206
    O   O13  0.603228  0.841380  0.692812  -0.516402
    H   H15  0.721194  0.861216  0.698127  0.342270
    O   O14  0.398685  0.158702  0.310618  -0.511036
    H   H16  0.280715  0.138704  0.305322  0.336682
    O   O15  0.566534  0.732264  0.818444  -0.397562
    H   H17  0.461935  0.756421  0.818285  0.341594
    O   O16  0.434572  0.267824  0.184955  -0.414101
    H   H18  0.539281  0.243786  0.184564  0.351632
