# Generated by REPEAT Assigner based on pymatgen
data_DB0-m2_o36_atn
_audit_creation_date              2022-05-24
_audit_creation_method            REPEAT_Assigner
_cell_length_a                    13.158927
_cell_length_b                    21.178982
_cell_length_c                    22.353501
_cell_angle_alpha                 88.751518
_cell_angle_beta                  73.017736
_cell_angle_gamma                 77.677062
_cell_volume                      5815.352601
_symmetry_space_group_name_H-M    P1
_symmetry_Int_Tables_number       1
loop_
    _symmetry_equiv_pos_site_id
    _symmetry_equiv_pos_as_xyz
    1  x,y,z
loop_
    _atom_site_type_symbol
    _atom_site_label
    _atom_site_fract_x
    _atom_site_fract_y
    _atom_site_fract_z
    _atom_type_partial_charge
    C   C1    0.297640  0.521374  0.370342  -0.157969
    C   C2    0.941043  0.498297  0.503294  0.315370
    C   C3    0.971539  0.987884  0.850350  -0.134438
    C   C4    0.007682  0.937422  0.884123  -0.192399
    C   C5    0.007562  0.679020  0.834781  -0.064026
    C   C6    0.102801  0.766841  0.878272  0.301349
    C   C7    0.998278  0.760821  0.909898  -0.205235
    C   C8    0.953196  0.715138  0.889890  -0.061461
    C   C9    0.119935  0.909507  0.064668  -0.181357
    C   C10   0.087518  0.851754  0.062900  -0.018232
    C   C11   0.094149  0.823404  0.006064  -0.254541
    C   C12   0.131628  0.853558  0.950464  0.416742
    C   C13   0.869586  0.479016  0.555965  -0.235827
    C   C14   0.175391  0.907251  0.953363  -0.173085
    C   C15   0.167091  0.935671  0.009539  -0.096203
    C   C16   0.139350  0.829472  0.885291  -0.644316
    C   C17   0.886666  0.097677  0.320311  0.716478
    C   C18   0.184061  0.041645  0.220626  0.692721
    C   C19   0.087583  0.949745  0.122254  0.800209
    C   C20   0.823797  0.997849  0.209849  0.704200
    C   C21   0.828292  0.518988  0.609002  -0.064413
    C   C22   0.283548  0.466158  0.345147  0.024861
    C   C23   0.205485  0.435336  0.378840  -0.241743
    C   C24   0.022467  0.278066  0.557826  -0.152828
    C   C25   0.041652  0.383302  0.483933  0.307293
    C   C26   0.040068  0.324623  0.458014  -0.171190
    C   C27   0.026668  0.272692  0.495697  -0.071305
    C   C28   0.889314  0.482640  0.300943  -0.075439
    C   C29   0.135080  0.463624  0.434863  0.215330
    C   C30   0.873621  0.429981  0.336853  -0.026750
    C   C31   0.914497  0.419123  0.386889  -0.213251
    C   C32   0.985090  0.454763  0.396583  0.272131
    C   C33   0.006589  0.504883  0.356175  -0.149379
    C   C34   0.957721  0.519147  0.309865  -0.161066
    C   C35   0.024056  0.448872  0.454668  -0.348011
    C   C36   0.581405  0.451717  0.385119  0.960566
    C   C37   0.798571  0.514428  0.280259  0.714720
    C   C38   0.580787  0.632321  0.226895  0.768893
    C   C39   0.389307  0.547997  0.337542  0.662074
    C   C40   0.165384  0.509338  0.465411  -0.206776
    C   C41   0.997561  0.226948  0.600804  0.717494
    C   C42   0.187000  0.126162  0.645885  0.699509
    C   C43   0.982000  0.036148  0.748038  0.692554
    C   C44   0.774715  0.156162  0.697002  0.694968
    C   C45   0.824230  0.618884  0.664464  0.692393
    C   C46   0.942545  0.664145  0.796852  0.720791
    C   C47   0.687929  0.767507  0.862376  0.889428
    C   C48   0.577767  0.730150  0.753796  0.679630
    C   C49   0.300162  0.025459  0.193905  -0.078553
    C   C50   0.471021  0.924683  0.136877  0.280570
    C   C51   0.245076  0.539570  0.432293  -0.035574
    C   C52   0.421676  0.968080  0.100934  -0.198426
    C   C53   0.337990  0.018807  0.129522  -0.086298
    C   C54   0.476138  0.734688  0.205252  -0.175653
    C   C55   0.470907  0.793116  0.177089  -0.146421
    C   C56   0.647225  0.808156  0.919268  -0.188663
    C   C57   0.549543  0.804211  0.961481  -0.144978
    C   C58   0.520143  0.832930  0.020165  -0.135510
    C   C59   0.591467  0.862132  0.038667  0.381440
    C   C60   0.687327  0.868929  0.994383  -0.191808
    C   C61   0.712298  0.844275  0.934233  -0.041760
    C   C62   0.050731  0.330584  0.578524  0.004243
    C   C63   0.357170  0.988007  0.229108  -0.223061
    C   C64   0.443096  0.938874  0.200804  0.041720
    C   C65   0.568937  0.686610  0.186852  -0.037893
    C   C66   0.562877  0.805915  0.133451  0.417630
    C   C67   0.651690  0.754601  0.110571  -0.188839
    C   C68   0.654605  0.695174  0.137143  -0.144559
    C   C69   0.755062  0.967359  0.185892  -0.210157
    C   C70   0.717792  0.994053  0.137720  -0.043996
    C   C71   0.667659  0.959763  0.108355  -0.125920
    C   C72   0.656297  0.897682  0.125619  0.288550
    C   C73   0.065049  0.381663  0.540673  -0.260410
    C   C74   0.698019  0.870671  0.173089  -0.302584
    C   C75   0.746305  0.905548  0.202889  0.062673
    C   C76   0.570331  0.872353  0.108014  -0.658855
    C   C77   0.668363  0.180288  0.689660  -0.103666
    C   C78   0.583589  0.218025  0.593000  0.368218
    C   C79   0.594069  0.264689  0.632152  -0.195799
    C   C80   0.639010  0.245377  0.679932  -0.090504
    C   C81   0.289480  0.210443  0.634647  0.020702
    C   C82   0.369648  0.240021  0.601034  -0.242594
    C   C83   0.563316  0.403495  0.432766  -0.196302
    C   C84   0.848846  0.580132  0.607110  -0.075928
    C   C85   0.635692  0.383992  0.466498  -0.091747
    C   C86   0.629585  0.330201  0.502169  -0.096295
    C   C87   0.542384  0.300145  0.511670  0.228474
    C   C88   0.461929  0.326093  0.483553  -0.160058
    C   C89   0.475159  0.375365  0.442572  -0.102625
    C   C90   0.631152  0.136755  0.662106  -0.134137
    C   C91   0.592282  0.154898  0.612761  -0.119359
    C   C92   0.283288  0.150599  0.614923  -0.199992
    C   C93   0.448467  0.209256  0.548594  0.328461
    C   C94   0.437537  0.150953  0.526216  -0.250792
    C   C95   0.891239  0.604970  0.550169  -0.048910
    C   C96   0.354020  0.122506  0.558995  0.023358
    C   C97   0.807118  0.134485  0.373823  -0.024939
    C   C98   0.708377  0.166418  0.367869  -0.184277
    C   C99   0.626445  0.194389  0.419696  -0.087235
    C   C100  0.642724  0.192561  0.478351  0.370362
    C   C101  0.746113  0.163832  0.482616  -0.282411
    C   C102  0.825635  0.132575  0.431161  -0.098565
    C   C103  0.554384  0.230931  0.532586  -0.521484
    C   C104  0.996062  0.980439  0.786384  -0.058118
    C   C105  0.075942  0.880663  0.853191  0.409802
    C   C106  0.934645  0.564443  0.497731  -0.246094
    C   C107  0.083217  0.870644  0.790771  -0.143056
    C   C108  0.044459  0.920333  0.757548  -0.123154
    C   C109  0.113236  0.680732  0.805691  -0.122933
    C   C110  0.161370  0.722800  0.827463  -0.190154
    C   C111  0.466928  0.760990  0.785456  -0.121378
    C   C112  0.416166  0.818681  0.767429  -0.100110
    C   C113  0.311244  0.846554  0.801690  -0.177601
    C   C114  0.259247  0.816053  0.853968  0.294988
    C   C115  0.319671  0.766157  0.877737  -0.244579
    C   C116  0.420857  0.737005  0.842357  0.011012
    Cu  Cu1   0.601580  0.498785  0.259062  1.031044
    Cu  Cu2   0.583319  0.581720  0.347093  0.977311
    Cu  Cu3   0.967130  0.172218  0.723502  0.995749
    Cu  Cu4   0.996175  0.093772  0.628641  0.943299
    Cu  Cu5   0.799769  0.738367  0.732558  0.977128
    Cu  Cu6   0.734329  0.643576  0.796690  1.017445
    Cu  Cu7   0.007025  0.975397  0.257363  0.976438
    Cu  Cu8   0.985674  0.074460  0.186807  0.986550
    H   H1    0.123428  0.525615  0.513443  0.135022
    H   H2    0.191049  0.394514  0.356788  0.121421
    H   H3    0.044553  0.318601  0.409481  0.101559
    H   H4    0.015648  0.229065  0.476580  0.104338
    H   H5    0.813596  0.403727  0.333292  0.086200
    H   H6    0.884454  0.384886  0.419856  0.115968
    H   H7    0.055753  0.537637  0.361992  0.132267
    H   H8    0.965277  0.562854  0.284632  0.121911
    H   H9    0.445134  0.963703  0.050506  0.101394
    H   H10   0.293084  0.047212  0.101040  0.140464
    H   H11   0.407594  0.727263  0.243311  0.143515
    H   H12   0.263531  0.578253  0.455179  0.100508
    H   H13   0.395103  0.828257  0.192425  0.086751
    H   H14   0.497277  0.776653  0.949691  0.143324
    H   H15   0.444329  0.827438  0.053164  0.084266
    H   H16   0.748390  0.889102  0.005581  0.075671
    H   H17   0.789335  0.847299  0.901132  0.100168
    H   H18   0.327211  0.991952  0.279663  0.134750
    H   H19   0.482736  0.908651  0.230563  0.063697
    H   H20   0.723586  0.761904  0.075031  0.115801
    H   H21   0.727942  0.657670  0.122714  0.128839
    H   H22   0.726636  0.041914  0.122599  0.102010
    H   H23   0.058062  0.333662  0.625213  0.095958
    H   H24   0.634210  0.983301  0.072789  0.106885
    H   H25   0.688303  0.824474  0.192168  0.144660
    H   H26   0.776993  0.882982  0.239785  0.088749
    H   H27   0.576586  0.315596  0.623641  0.102171
    H   H28   0.666128  0.280535  0.702393  0.131872
    H   H29   0.231145  0.235787  0.676110  0.111003
    H   H30   0.374725  0.285721  0.619332  0.108038
    H   H31   0.703052  0.407072  0.460529  0.100883
    H   H32   0.697180  0.310097  0.519915  0.065466
    H   H33   0.393990  0.304088  0.486359  0.092291
    H   H34   0.080700  0.423680  0.559951  0.130821
    H   H35   0.416733  0.390952  0.417070  0.137523
    H   H36   0.652761  0.085703  0.669871  0.122515
    H   H37   0.582187  0.116505  0.585581  0.098566
    H   H38   0.497141  0.123644  0.486451  0.098505
    H   H39   0.347118  0.076897  0.541531  0.093000
    H   H40   0.692730  0.166896  0.322990  0.135705
    H   H41   0.548663  0.216864  0.413554  0.093806
    H   H42   0.769324  0.165001  0.524935  0.154061
    H   H43   0.903878  0.108188  0.435674  0.122822
    H   H44   0.129710  0.826447  0.764751  0.116895
    H   H45   0.900380  0.654535  0.546650  0.110613
    H   H46   0.061486  0.912526  0.707669  0.119450
    H   H47   0.154819  0.655094  0.761031  0.114312
    H   H48   0.239976  0.725353  0.796300  0.138382
    H   H49   0.456309  0.840835  0.725690  0.119197
    H   H50   0.271907  0.890774  0.785544  0.116411
    H   H51   0.283873  0.743583  0.920254  0.130422
    H   H52   0.462308  0.695180  0.860968  0.096058
    H   H53   0.928019  0.033857  0.874291  0.130115
    H   H54   0.985447  0.945766  0.934161  0.116166
    H   H55   0.946952  0.795612  0.946733  0.123662
    H   H56   0.977406  0.584568  0.455715  0.137598
    H   H57   0.868237  0.715744  0.911870  0.113802
    H   H58   0.050629  0.830397  0.105952  0.104467
    H   H59   0.068119  0.778415  0.006722  0.109411
    H   H60   0.209630  0.931155  0.911422  0.101589
    H   H61   0.194207  0.980354  0.009776  0.120886
    H   H62   0.853948  0.430815  0.559393  0.134887
    H   H63   0.784746  0.500737  0.652275  0.115281
    H   H64   0.331850  0.446335  0.298992  0.099292
    O   O1    0.576297  0.439806  0.328595  -0.670074
    O   O2    0.995050  0.170449  0.579170  -0.574503
    O   O3    0.123939  0.155159  0.699155  -0.616782
    O   O4    0.148887  0.093808  0.611269  -0.572978
    O   O5    0.961238  0.094925  0.772633  -0.607645
    O   O6    0.004067  0.026295  0.687568  -0.597205
    O   O7    0.813870  0.189881  0.729698  -0.630186
    O   O8    0.839174  0.111415  0.655238  -0.580319
    O   O9    0.827595  0.680270  0.660979  -0.618806
    O   O10   0.799689  0.592227  0.718860  -0.610452
    O   O11   0.936487  0.702133  0.750100  -0.592690
    O   O12   0.597786  0.507608  0.399719  -0.672250
    O   O13   0.863885  0.634680  0.823019  -0.656072
    O   O14   0.753740  0.786070  0.812337  -0.652684
    O   O15   0.665363  0.709931  0.863619  -0.632104
    O   O16   0.648407  0.767013  0.735046  -0.576257
    O   O17   0.607847  0.671014  0.769815  -0.617750
    O   O18   0.929666  0.037153  0.326968  -0.626644
    O   O19   0.900753  0.122038  0.264828  -0.625173
    O   O20   0.144256  0.995526  0.252683  -0.567364
    O   O21   0.126449  0.082701  0.192054  -0.636843
    O   O22   0.070456  0.924267  0.177556  -0.639366
    O   O23   0.753304  0.477875  0.254357  -0.638633
    O   O24   0.062222  0.012609  0.117400  -0.597091
    O   O25   0.871549  0.965213  0.248141  -0.577724
    O   O26   0.858499  0.046958  0.180667  -0.569593
    O   O27   0.739863  0.567005  0.313387  -0.583649
    O   O28   0.612903  0.572267  0.204220  -0.647680
    O   O29   0.558001  0.645294  0.286918  -0.637585
    O   O30   0.446416  0.522016  0.282170  -0.610387
    O   O31   0.432762  0.577131  0.371580  -0.563002
    O   O32   0.985342  0.236968  0.660510  -0.585466
