# Generated by REPEAT Assigner based on pymatgen
data_DB0-m29_o83_o53_f0_pts.sym.16
_audit_creation_date              2022-05-24
_audit_creation_method            REPEAT_Assigner
_cell_length_a                    15.728262
_cell_length_b                    9.409310
_cell_length_c                    24.123417
_cell_angle_alpha                 84.466981
_cell_angle_beta                  84.045043
_cell_angle_gamma                 107.952152
_cell_volume                      3346.690343
_symmetry_space_group_name_H-M    P1
_symmetry_Int_Tables_number       1
loop_
    _symmetry_equiv_pos_site_id
    _symmetry_equiv_pos_as_xyz
    1  x,y,z
loop_
    _atom_site_type_symbol
    _atom_site_label
    _atom_site_fract_x
    _atom_site_fract_y
    _atom_site_fract_z
    _atom_type_partial_charge
    C   C1   0.277826  0.980046  0.034132  -0.261102
    C   C2   0.272156  0.998063  0.977026  0.094407
    C   C3   0.192221  0.004776  0.959436  -0.208804
    C   C4   0.202096  0.959598  0.072435  0.363062
    C   C5   0.121784  0.962170  0.054233  -0.031836
    C   C6   0.116831  0.993360  0.997679  0.073221
    C   C7   0.036877  0.011310  0.981028  0.089358
    C   C8   0.030317  0.052557  0.924987  -0.189102
    C   C9   0.951448  0.065778  0.909372  -0.196562
    C   C10  0.046608  0.935130  0.093240  -0.045152
    C   C11  0.967712  0.946248  0.077242  -0.246515
    C   C12  0.962148  0.990834  0.021457  0.129160
    C   C13  0.882755  0.011300  0.005167  -0.002145
    C   C14  0.877906  0.044633  0.948841  0.217989
    C   C15  0.799134  0.055205  0.931107  -0.230895
    C   C16  0.807973  0.001514  0.043621  -0.144812
    C   C17  0.728174  0.009084  0.026171  0.030168
    C   C18  0.722876  0.030581  0.969135  0.022902
    H   H1   0.190639  0.015152  0.914993  0.136748
    H   H2   0.084947  0.077168  0.891208  0.169907
    H   H3   0.948197  0.094890  0.865364  0.150068
    H   H4   0.047308  0.901831  0.137218  0.110237
    H   H5   0.912039  0.916998  0.110584  0.175571
    H   H6   0.795432  0.073096  0.886607  0.151964
    H   H7   0.809768  0.991162  0.088065  0.125792
    O   O1   0.583176  0.038282  0.056929  -0.438917
    C   C19  0.651742  0.995796  0.069395  0.491373
    O   O2   0.487165  0.709369  0.116125  -0.448712
    O   O3   0.654011  0.947867  0.121940  -0.479025
    O   O4   0.483251  0.844243  0.188695  -0.503293
    C   C20  0.484487  0.717949  0.170224  0.535074
    Fe  Fe1  0.490901  0.996131  0.123974  1.390542
    O   O5   0.370278  0.909521  0.098551  -0.567448
    O   O6   0.432540  0.121815  0.035841  -0.479715
    C   C21  0.364282  0.999612  0.055041  0.732767
    O   O7   0.522653  0.197915  0.151602  -0.616239
    O   O8   0.435733  0.063460  0.232665  -0.476070
    C   C22  0.483236  0.193029  0.202877  0.622345
    O   O9   0.475763  0.809483  0.851409  -0.577366
    O   O10  0.563469  0.942909  0.770454  -0.482278
    C   C23  0.515130  0.813703  0.800172  0.533449
    O   O11  0.631197  0.096613  0.903204  -0.587339
    O   O12  0.567937  0.888688  0.967884  -0.463685
    C   C24  0.636665  0.009360  0.947706  0.616639
    O   O13  0.345423  0.054665  0.880987  -0.481637
    O   O14  0.517108  0.163625  0.813993  -0.468549
    C   C25  0.514320  0.288989  0.832635  0.494149
    O   O15  0.418517  0.971699  0.946350  -0.439419
    C   C26  0.348678  0.010454  0.933759  0.494184
    O   O16  0.510867  0.296946  0.886799  -0.424423
    Fe  Fe2  0.509575  0.011805  0.878709  1.393028
    C   C27  0.423403  0.383998  0.399597  0.436173
    N   N1   0.487231  0.484198  0.360877  -0.136031
    C   C28  0.555438  0.592149  0.376910  0.427377
    C   C29  0.560890  0.601637  0.433370  -0.102939
    C   C30  0.496475  0.499722  0.473268  0.095772
    C   C31  0.427213  0.390253  0.456392  -0.098529
    C   C32  0.630742  0.711357  0.450201  -0.050984
    C   C33  0.635577  0.718849  0.506624  -0.064927
    C   C34  0.570638  0.616595  0.546640  -0.088578
    C   C35  0.501381  0.507114  0.529762  0.092067
    C   C36  0.436980  0.405170  0.569662  -0.102439
    C   C37  0.367127  0.295454  0.552830  -0.051968
    C   C38  0.362275  0.287995  0.496407  -0.060731
    C   C39  0.574445  0.622851  0.603434  0.421373
    N   N2   0.510644  0.522596  0.642152  -0.123955
    C   C40  0.442458  0.414611  0.626121  0.424648
    O   O17  0.354904  0.279536  0.382795  -0.470478
    O   O18  0.619868  0.688005  0.337768  -0.461560
    H   H8   0.682304  0.792661  0.419772  0.127362
    H   H9   0.690724  0.805856  0.518673  0.133740
    O   O19  0.642919  0.727354  0.620241  -0.467125
    O   O20  0.378086  0.318660  0.665270  -0.459936
    H   H10  0.315574  0.214134  0.583258  0.127469
    H   H11  0.307125  0.200995  0.484357  0.131615
    C   C41  0.513353  0.409748  0.736957  -0.210549
    H   H12  0.514603  0.307581  0.720409  0.185232
    C   C42  0.512600  0.417912  0.793913  0.107888
    C   C43  0.509690  0.548710  0.814492  -0.215051
    C   C44  0.512025  0.672957  0.778204  0.154155
    C   C45  0.515365  0.665748  0.721227  -0.247795
    H   H13  0.515333  0.762245  0.693024  0.175435
    C   C46  0.513724  0.533032  0.700609  0.214095
    C   C47  0.484839  0.597049  0.266005  -0.200916
    H   H14  0.483736  0.699348  0.282501  0.178370
    C   C48  0.485694  0.588821  0.209047  0.078382
    C   C49  0.488349  0.457821  0.188547  -0.152035
    C   C50  0.485826  0.333537  0.224885  0.084711
    C   C51  0.482420  0.340828  0.281859  -0.249377
    H   H15  0.482409  0.244359  0.310094  0.160376
    C   C52  0.484179  0.473672  0.302420  0.233111
    H   H16  0.508983  0.556557  0.858908  0.163198
    H   H17  0.489244  0.450001  0.144121  0.151915
    O   O21  0.207860  0.943897  0.128882  -0.376030
    C   C53  0.238271  0.090719  0.142526  0.404979
    H   H18  0.224302  0.170777  0.110746  -0.054798
    H   H19  0.311875  0.124809  0.144194  -0.071436
    C   C54  0.190857  0.096750  0.199801  -0.225633
    H   H20  0.201009  0.011689  0.231291  0.084754
    H   H21  0.219563  0.210688  0.212003  0.047896
    H   H22  0.117694  0.073303  0.198339  0.048645
