# Generated by REPEAT Assigner based on pymatgen
data_DB0-m3_o6_o12_f0_pcu.sym.112
_audit_creation_date              2022-05-24
_audit_creation_method            REPEAT_Assigner
_cell_length_a                    11.275619
_cell_length_b                    16.142187
_cell_length_c                    14.987991
_cell_angle_alpha                 90.008471
_cell_angle_beta                  102.223945
_cell_angle_gamma                 89.985702
_cell_volume                      2666.160534
_symmetry_space_group_name_H-M    P1
_symmetry_Int_Tables_number       1
loop_
    _symmetry_equiv_pos_site_id
    _symmetry_equiv_pos_as_xyz
    1  x,y,z
loop_
    _atom_site_type_symbol
    _atom_site_label
    _atom_site_fract_x
    _atom_site_fract_y
    _atom_site_fract_z
    _atom_type_partial_charge
    O   O1   0.505706  0.377407  0.577726  -0.677281
    O   O2   0.499917  0.624547  0.423532  -0.688069
    O   O3   0.503664  0.377695  0.423251  -0.670033
    O   O4   0.502195  0.624259  0.578060  -0.675006
    C   C1   0.505192  0.339080  0.500459  0.858016
    C   C2   0.500528  0.662877  0.500825  0.899277
    O   O5   0.323130  0.499749  0.549966  -0.653970
    O   O6   0.682580  0.502265  0.451320  -0.649880
    O   O7   0.321008  0.499708  0.395589  -0.646783
    O   O8   0.684686  0.502116  0.605677  -0.660887
    C   C3   0.265330  0.499387  0.464165  0.719452
    C   C4   0.740375  0.502622  0.537123  0.738164
    Zn  Zn1  0.504139  0.500768  0.602419  1.099910
    Zn  Zn2  0.501567  0.501182  0.398860  1.088059
    H   H1   0.885305  0.494892  0.421766  0.087130
    H   H2   0.120455  0.509565  0.579411  0.092641
    C   C5   0.132038  0.497336  0.442989  -0.197206
    C   C6   0.873710  0.504076  0.558447  -0.232304
    C   C7   0.070062  0.502330  0.509984  -0.077238
    C   C8   0.935768  0.499706  0.491450  -0.051219
    H   H3   0.497480  0.079260  0.640396  0.139702
    H   H4   0.514242  0.922731  0.361993  0.131338
    C   C9   0.498763  0.959205  0.580557  -0.104462
    C   C10  0.510702  0.042796  0.421419  -0.077386
    C   C11  0.504165  0.915432  0.502211  0.240343
    C   C12  0.506725  0.086538  0.500040  0.222344
    C   C13  0.509762  0.957273  0.422996  -0.233420
    C   C14  0.500415  0.044714  0.579100  -0.227904
    C   C15  0.502060  0.826456  0.501781  -0.040457
    C   C16  0.506312  0.175515  0.499984  -0.071664
    C   C17  0.505886  0.250179  0.500256  -0.251666
    C   C18  0.500934  0.751790  0.501213  -0.262656
    H   H5   0.384666  0.396266  0.063460  0.121937
    H   H6   0.622446  0.604893  0.938041  0.148321
    C   C19  0.438173  0.441754  0.944099  -0.191044
    C   C20  0.568817  0.559482  0.057389  -0.101800
    H   H7   0.386821  0.395673  0.899682  0.165285
    H   H8   0.620085  0.605607  0.101790  0.153118
    C   C21  0.504711  0.500288  0.908915  0.219267
    C   C22  0.502103  0.501041  0.092544  0.105172
    C   C23  0.570149  0.559084  0.965591  -0.140563
    C   C24  0.436922  0.442105  0.035912  -0.031407
    C   C25  0.505326  0.500288  0.813251  0.120217
    C   C26  0.500888  0.501369  0.188110  0.155801
    N   N1   0.500212  0.501550  0.265203  -0.167824
    N   N2   0.505538  0.500370  0.736083  -0.162017
    C   C27  0.935968  0.509633  0.654562  0.393273
    C   C28  0.948544  0.585328  0.698561  -0.038508
    Cl  Cl1  0.892569  0.675618  0.639510  -0.066205
    C   C29  0.006889  0.590244  0.789064  -0.094479
    C   C30  0.052330  0.519649  0.835824  0.004762
    Cl  Cl2  0.126901  0.526210  0.950597  -0.085138
    C   C31  0.039229  0.443979  0.792168  -0.013052
    C   C32  0.980973  0.438935  0.701643  -0.300954
    H   H9   0.017269  0.649556  0.823327  0.104347
    H   H10  0.074729  0.388610  0.828884  0.079940
    H   H11  0.970718  0.379551  0.667523  0.156746
    C   C33  0.069674  0.487253  0.347420  0.399664
    C   C34  0.040439  0.555646  0.291747  -0.116598
    Cl  Cl3  0.077474  0.655356  0.334871  -0.055411
    C   C35  0.980929  0.545573  0.202038  0.042831
    C   C36  0.950909  0.467271  0.167826  -0.028102
    Cl  Cl4  0.874341  0.454556  0.054195  -0.084963
    C   C37  0.980909  0.398939  0.223161  -0.067352
    C   C38  0.040380  0.408902  0.312842  -0.277912
    H   H12  0.957484  0.599127  0.158581  0.056593
    H   H13  0.957523  0.337554  0.196297  0.102008
    H   H14  0.063557  0.355271  0.356223  0.152315
    C   C39  0.494677  0.915936  0.665667  0.315311
    C   C40  0.391820  0.919493  0.702056  -0.080763
    Cl  Cl5  0.261091  0.970865  0.644085  -0.047625
    C   C41  0.390318  0.880481  0.783670  -0.060615
    C   C42  0.491301  0.838295  0.829398  0.048471
    Cl  Cl6  0.489217  0.789444  0.933345  -0.113261
    C   C43  0.593907  0.834693  0.793332  -0.058228
    C   C44  0.595649  0.873474  0.711666  -0.296706
    H   H15  0.309682  0.882950  0.811813  0.098583
    H   H16  0.673227  0.801760  0.829275  0.108340
    H   H17  0.676849  0.871277  0.684189  0.170887
    C   C45  0.519239  0.086173  0.337258  0.275559
    C   C46  0.423640  0.084356  0.262247  -0.067421
    Cl  Cl7  0.287235  0.034641  0.267906  -0.046910
    C   C47  0.433855  0.123946  0.182673  -0.058715
    C   C48  0.539354  0.164992  0.177495  0.061744
    Cl  Cl8  0.552090  0.214858  0.076209  -0.115407
    C   C49  0.634789  0.166773  0.252068  -0.109129
    C   C50  0.624804  0.127415  0.331775  -0.219434
    H   H18  0.358826  0.122915  0.124273  0.092006
    H   H19  0.717637  0.198823  0.247983  0.129432
    H   H20  0.700370  0.128316  0.389802  0.148728
