data_DB0-m3_o11_o23_f0_pcu.sym.38_repeat
_audit_creation_date              2024-02-23
_audit_creation_method            'Materials Studio'
_symmetry_space_group_name_H-M    'P1'
_symmetry_Int_Tables_number       1
_symmetry_cell_setting            triclinic
loop_
_symmetry_equiv_pos_as_xyz
  x,y,z
_cell_length_a                    15.9473
_cell_length_b                    11.1779
_cell_length_c                    9.9187
_cell_angle_alpha                 89.9974
_cell_angle_beta                  89.9750
_cell_angle_gamma                 89.9982
loop_
_atom_site_label
_atom_site_type_symbol
_atom_site_fract_x
_atom_site_fract_y
_atom_site_fract_z
_atom_site_U_iso_or_equiv
_atom_site_adp_type
_atom_site_occupancy
O1     O     0.49861   0.32212   0.61199   0.00000  Uiso   1.00
O2     O     0.49681   0.31905   0.37944   0.00000  Uiso   1.00
C1     C     0.49533   0.26488   0.49707   0.00000  Uiso   1.00
O3     O     0.38035   0.50924   0.61912   0.00000  Uiso   1.00
O4     O     0.37737   0.50596   0.38646   0.00000  Uiso   1.00
C2     C     0.33994   0.50978   0.50397   0.00000  Uiso   1.00
Zn1    Zn    0.50580   0.49977   0.64975   0.00000  Uiso   1.00
Zn2    Zn    0.50131   0.49741   0.34282   0.00000  Uiso   1.00
O5     O     0.51191   0.67792   0.61306   0.00000  Uiso   1.00
O6     O     0.50837   0.67530   0.38023   0.00000  Uiso   1.00
O7     O     0.62976   0.49070   0.60634   0.00000  Uiso   1.00
O8     O     0.62685   0.48960   0.37321   0.00000  Uiso   1.00
C3     C     0.51164   0.73257   0.49569   0.00000  Uiso   1.00
C4     C     0.66716   0.48750   0.48860   0.00000  Uiso   1.00
C5     C     0.05061   0.43428   0.62316   0.00000  Uiso   1.00
C6     C     0.05586   0.43535   0.37437   0.00000  Uiso   1.00
C7     C     0.96062   0.43367   0.36744   0.00000  Uiso   1.00
H1     H     0.07569   0.34192   0.61843   0.00000  Uiso   1.00
H2     H     0.08365   0.47805   0.28390   0.00000  Uiso   1.00
H3     H     0.07920   0.34199   0.37917   0.00000  Uiso   1.00
H4     H     0.93940   0.33946   0.36318   0.00000  Uiso   1.00
C8     C     0.75714   0.48731   0.48683   0.00000  Uiso   1.00
C9     C     0.08279   0.50222   0.50022   0.00000  Uiso   1.00
C10    C     0.95494   0.43237   0.62095   0.00000  Uiso   1.00
C11    C     0.92432   0.49393   0.49295   0.00000  Uiso   1.00
C12    C     0.95252   0.62365   0.50028   0.00000  Uiso   1.00
C13    C     0.04738   0.62848   0.49351   0.00000  Uiso   1.00
C14    C     0.83268   0.48943   0.48839   0.00000  Uiso   1.00
C15    C     0.17443   0.50741   0.50444   0.00000  Uiso   1.00
C16    C     0.24996   0.50986   0.50583   0.00000  Uiso   1.00
H5     H     0.07208   0.68430   0.57683   0.00000  Uiso   1.00
H6     H     0.06652   0.67054   0.39702   0.00000  Uiso   1.00
H7     H     0.93129   0.66384   0.59663   0.00000  Uiso   1.00
H8     H     0.92990   0.48235   0.70866   0.00000  Uiso   1.00
H9     H     0.92498   0.67697   0.41717   0.00000  Uiso   1.00
C17    C     0.49466   0.93377   0.39399   0.00000  Uiso   1.00
C18    C     0.52010   0.86355   0.49587   0.00000  Uiso   1.00
H10    H     0.54973   0.90266   0.58315   0.00000  Uiso   1.00
C19    C     0.50493   0.06528   0.39844   0.00000  Uiso   1.00
C20    C     0.48544   0.13472   0.50456   0.00000  Uiso   1.00
H11    H     0.52517   0.10824   0.30607   0.00000  Uiso   1.00
C21    C     0.54844   0.57577   0.92681   0.00000  Uiso   1.00
N1     N     0.51061   0.49922   0.85137   0.00000  Uiso   1.00
H12    H     0.49062   0.42219   0.89766   0.00000  Uiso   1.00
C22    C     0.55303   0.55948   0.07508   0.00000  Uiso   1.00
N2     N     0.49790   0.49942   0.14124   0.00000  Uiso   1.00
H13    H     0.60306   0.60319   0.13020   0.00000  Uiso   1.00
H14    H     0.44493   0.47332   0.09028   0.00000  Uiso   1.00
N3     N     0.92286   0.31054   0.62991   0.00000  Uiso   1.00
H15    H     0.93190   0.28132   0.72883   0.00000  Uiso   1.00
H16    H     0.95668   0.25370   0.56664   0.00000  Uiso   1.00
N4     N     0.08163   0.48839   0.74709   0.00000  Uiso   1.00
H17    H     0.05044   0.56871   0.76593   0.00000  Uiso   1.00
H18    H     0.06804   0.42979   0.82613   0.00000  Uiso   1.00
N5     N     0.46031   0.88221   0.27455   0.00000  Uiso   1.00
H19    H     0.40110   0.91983   0.25982   0.00000  Uiso   1.00
H20    H     0.49846   0.90738   0.19382   0.00000  Uiso   1.00
N6     N     0.44830   0.08768   0.62476   0.00000  Uiso   1.00
H21    H     0.49457   0.05359   0.68827   0.00000  Uiso   1.00
H22    H     0.40323   0.02346   0.60060   0.00000  Uiso   1.00
N7     N     0.59069   0.67508   0.86704   0.00000  Uiso   1.00
H23    H     0.61429   0.72886   0.94421   0.00000  Uiso   1.00
H24    H     0.64163   0.64162   0.81282   0.00000  Uiso   1.00
N8     N     0.93081   0.49238   0.24540   0.00000  Uiso   1.00
H25    H     0.96501   0.57038   0.22766   0.00000  Uiso   1.00
H26    H     0.94181   0.43430   0.16487   0.00000  Uiso   1.00
