# Generated by REPEAT Assigner based on pymatgen
data_DB0-m3_o99_o23_f0_fsc.sym.34
_audit_creation_date              2022-05-24
_audit_creation_method            REPEAT_Assigner
_cell_length_a                    6.575420
_cell_length_b                    14.204496
_cell_length_c                    14.647334
_cell_angle_alpha                 100.999976
_cell_angle_beta                  101.624053
_cell_angle_gamma                 89.907502
_cell_volume                      1314.425548
_symmetry_space_group_name_H-M    P1
_symmetry_Int_Tables_number       1
loop_
    _symmetry_equiv_pos_site_id
    _symmetry_equiv_pos_as_xyz
    1  x,y,z
loop_
    _atom_site_type_symbol
    _atom_site_label
    _atom_site_fract_x
    _atom_site_fract_y
    _atom_site_fract_z
    _atom_type_partial_charge
    C   C1   0.435192  0.045123  0.806852  -0.123241
    H   H1   0.274961  0.057408  0.811353  0.128595
    C   C2   0.579532  0.037641  0.887738  -0.229787
    H   H2   0.532834  0.045978  0.955410  0.148175
    C   C3   0.781484  0.016352  0.881481  0.288174
    C   C4   0.838982  0.005452  0.795059  -0.242654
    H   H3   0.998011  0.990257  0.790290  0.158092
    C   C5   0.696224  0.014131  0.714455  -0.031747
    C   C6   0.492126  0.032648  0.719589  -0.076331
    C   C7   0.932720  0.004408  0.963838  -0.191638
    C   C8   0.061222  0.993829  0.032230  -0.175392
    C   C9   0.154980  0.992797  0.201012  -0.221606
    H   H4   0.995952  0.007987  0.205785  0.156155
    C   C10  0.297752  0.984129  0.281615  -0.003298
    C   C11  0.501850  0.965612  0.276480  -0.129156
    C   C12  0.558768  0.953127  0.189213  -0.087566
    H   H5   0.718992  0.940839  0.184706  0.108879
    C   C13  0.414415  0.960600  0.108327  -0.246146
    H   H6   0.461103  0.952254  0.040653  0.148305
    C   C14  0.212465  0.981890  0.114587  0.274202
    O   O1   0.838438  0.924421  0.590808  -0.705260
    O   O2   0.813181  0.088054  0.601656  -0.707206
    C   C15  0.772305  0.007523  0.626992  0.810951
    O   O3   0.238853  0.099508  0.610257  -0.701878
    O   O4   0.260132  0.934992  0.592085  -0.623742
    C   C16  0.328773  0.022446  0.633779  0.785189
    O   O5   0.155543  0.073841  0.405261  -0.729195
    O   O6   0.180808  0.910207  0.394415  -0.748835
    C   C17  0.221679  0.990738  0.369078  0.847245
    O   O7   0.755134  0.898753  0.385810  -0.714614
    O   O8   0.733851  0.063270  0.403986  -0.666276
    C   C18  0.665213  0.975814  0.362289  0.846124
    Zn  Zn1  0.987298  0.105314  0.507078  1.089377
    Zn  Zn2  0.006687  0.892948  0.488992  1.078570
    C   C19  0.778870  0.439363  0.456742  -0.249544
    C   C20  0.151689  0.428214  0.448323  -0.246414
    C   C21  0.148520  0.531104  0.434334  -0.000702
    H   H7   0.733966  0.553188  0.376988  0.005961
    H   H8   0.307630  0.413882  0.487557  0.045294
    H   H9   0.117327  0.378916  0.378205  0.109433
    H   H10  0.092306  0.532480  0.357970  -0.005755
    H   H11  0.306959  0.564687  0.458085  0.011843
    N   N1   0.013707  0.768137  0.480653  0.087259
    C   C22  0.990663  0.412102  0.505193  0.760066
    C   C23  0.784507  0.544854  0.451866  0.179429
    C   C24  0.003081  0.586205  0.491029  0.532770
    C   C25  0.063804  0.577938  0.594750  0.202761
    C   C26  0.050501  0.473731  0.603422  -0.443645
    C   C27  0.010133  0.687461  0.484036  -0.346653
    C   C28  0.983773  0.310813  0.512086  -0.224703
    N   N2   0.980279  0.230125  0.515417  0.007698
    H   H12  0.931315  0.463840  0.644991  0.083790
    H   H13  0.203553  0.452702  0.639821  0.136934
    H   H14  0.955264  0.619064  0.634716  0.002446
    H   H15  0.661647  0.425600  0.497966  0.069149
    C   C29  0.644039  0.597139  0.510282  0.296105
    O   O9   0.557631  0.555250  0.558011  -0.313603
    O   O10  0.616099  0.694549  0.512245  -0.444284
    H   H16  0.518813  0.719723  0.555876  0.410592
    C   C30  0.279068  0.617751  0.635733  0.503522
    O   O11  0.320542  0.702034  0.638787  -0.506666
    O   O12  0.431396  0.559459  0.672906  -0.568522
    H   H17  0.567456  0.597623  0.698670  0.424510
    C   C31  0.721397  0.380919  0.358790  0.593908
    O   O13  0.567547  0.327232  0.336576  -0.498383
    O   O14  0.842038  0.388147  0.292396  -0.522687
    H   H18  0.781484  0.344190  0.229807  0.395626
