# Generated by REPEAT Assigner based on pymatgen
data_DB0-m18_o16_o58_f0_pcu
_audit_creation_date              2022-05-24
_audit_creation_method            REPEAT_Assigner
_cell_length_a                    12.174079
_cell_length_b                    13.637629
_cell_length_c                    19.539960
_cell_angle_alpha                 90.007750
_cell_angle_beta                  102.213817
_cell_angle_gamma                 93.115969
_cell_volume                      3165.789084
_symmetry_space_group_name_H-M    P1
_symmetry_Int_Tables_number       1
loop_
    _symmetry_equiv_pos_site_id
    _symmetry_equiv_pos_as_xyz
    1  x,y,z
loop_
    _atom_site_type_symbol
    _atom_site_label
    _atom_site_fract_x
    _atom_site_fract_y
    _atom_site_fract_z
    _atom_type_partial_charge
    O   O1   0.044984  0.833426  0.004035  -0.648275
    O   O2   0.860058  0.866413  0.974082  -0.672574
    C   C1   0.938641  0.803548  0.987137  0.729733
    Fe  Fe1  0.879177  0.019229  0.980894  1.097605
    O   O3   0.897028  0.013394  0.878901  -0.625967
    O   O4   0.083525  0.982537  0.903566  -0.678291
    C   C2   0.990370  0.998059  0.858003  0.717343
    Fe  Fe2  0.115977  0.975328  0.012287  1.113158
    O   O5   0.097447  0.976748  0.114114  -0.637656
    O   O6   0.915979  0.021299  0.090137  -0.674727
    C   C3   0.007100  0.000099  0.135457  0.716355
    O   O7   0.951880  0.160644  0.984987  -0.615177
    O   O8   0.135562  0.127323  0.022771  -0.666355
    C   C4   0.057481  0.190710  0.008033  0.731694
    C   C5   0.780388  0.573867  0.015898  -0.263464
    H   H1   0.738632  0.722359  0.001411  0.114626
    H   H2   0.760265  0.392168  0.051863  0.133476
    H   H3   0.698904  0.550994  0.025933  0.127879
    C   C6   0.907601  0.700005  0.991492  -0.090081
    C   C7   0.198410  0.321318  0.002572  -0.053534
    C   C8   0.231249  0.418016  0.997766  -0.138577
    C   C9   0.156501  0.489355  0.998871  -0.155051
    C   C10  0.047603  0.465136  0.007942  0.037352
    C   C11  0.018130  0.367535  0.018953  0.215526
    C   C12  0.967389  0.535426  0.006596  -0.008079
    C   C13  0.862567  0.507322  0.019420  0.260625
    C   C14  0.839624  0.412902  0.037964  -0.245261
    C   C15  0.917344  0.344017  0.039183  -0.232138
    C   C16  0.988334  0.633341  0.992356  -0.117963
    C   C17  0.802442  0.670317  0.001489  -0.080790
    C   C18  0.091456  0.295255  0.011574  -0.194187
    H   H4   0.066516  0.661521  0.981312  0.101292
    H   H5   0.256809  0.266337  0.997284  0.096070
    H   H6   0.189280  0.563004  0.993691  0.124132
    H   H7   0.315200  0.438111  0.990662  0.109095
    H   H8   0.897101  0.272670  0.058238  0.152959
    C   C19  0.074540  0.066056  0.540332  -0.016507
    C   C20  0.077098  0.057476  0.470305  -0.194641
    H   H9   0.134954  0.104892  0.448721  0.090776
    C   C21  0.001954  0.994037  0.426331  0.010096
    C   C22  0.923730  0.936362  0.453141  -0.018019
    C   C23  0.921293  0.944779  0.523181  -0.192729
    H   H10  0.863426  0.897257  0.544674  0.092305
    C   C24  0.996445  0.008211  0.567200  0.010231
    C   C25  0.108541  0.212145  0.618987  -0.129770
    H   H11  0.019138  0.213242  0.616715  0.085816
    C   C26  0.180252  0.283627  0.657203  -0.127259
    H   H12  0.147025  0.339192  0.685382  0.109182
    C   C27  0.294109  0.284712  0.659133  -0.095878
    H   H13  0.350253  0.340809  0.689069  0.103222
    C   C28  0.336211  0.214648  0.622430  -0.160476
    H   H14  0.425457  0.215742  0.623653  0.116249
    C   C29  0.264626  0.143214  0.584069  -0.115003
    H   H15  0.298606  0.088383  0.555680  0.095755
    C   C30  0.150587  0.140772  0.582891  0.182207
    C   C31  0.896602  0.019708  0.664083  -0.146167
    H   H16  0.820413  0.033515  0.626368  0.103152
    C   C32  0.894608  0.016740  0.734334  -0.099732
    C   C33  0.991490  0.999819  0.783229  -0.094629
    C   C34  0.090019  0.985208  0.761118  -0.079474
    H   H17  0.166645  0.970966  0.798239  0.104141
    C   C35  0.091871  0.988470  0.690914  -0.158720
    H   H18  0.169045  0.975185  0.674314  0.088578
    C   C36  0.995586  0.007139  0.642141  0.184776
    C   C37  0.101133  0.979560  0.329418  -0.151479
    H   H19  0.176817  0.964304  0.367122  0.103954
    C   C38  0.102837  0.981298  0.259106  -0.101830
    C   C39  0.006517  0.000136  0.210302  -0.097469
    C   C40  0.908874  0.017905  0.232539  -0.078309
    H   H20  0.832683  0.033470  0.195459  0.107591
    C   C41  0.907171  0.015415  0.302775  -0.170956
    H   H21  0.830611  0.030573  0.319512  0.089940
    C   C42  0.002836  0.994856  0.351436  0.201244
    C   C43  0.888772  0.790469  0.374287  -0.136327
    H   H22  0.978162  0.788762  0.376697  0.086785
    C   C44  0.816567  0.719474  0.335877  -0.117732
    H   H23  0.849409  0.663685  0.307679  0.105216
    C   C45  0.702700  0.719162  0.333775  -0.095396
    H   H24  0.646168  0.663446  0.303687  0.101048
    C   C46  0.661081  0.789503  0.370508  -0.166127
    H   H25  0.571826  0.789008  0.369157  0.118568
    C   C47  0.733161  0.860451  0.409062  -0.113638
    H   H26  0.699576  0.915503  0.437483  0.096194
    C   C48  0.847217  0.862128  0.410404  0.183900
    H   H27  0.816486  0.028032  0.750330  0.102106
    H   H28  0.180287  0.967663  0.242980  0.106203
    C   C49  0.412463  0.846852  0.085220  -0.298123
    H   H29  0.242535  0.828313  0.095588  0.120010
    H   H30  0.625776  0.820146  0.108343  0.126753
    H   H31  0.439691  0.788536  0.121265  0.146540
    N   N1   0.267412  0.941866  0.026509  -0.122224
    C   C50  0.696276  0.123722  0.919763  0.106218
    C   C51  0.587075  0.150568  0.902447  -0.216743
    C   C52  0.505796  0.102826  0.931143  -0.062633
    C   C53  0.534206  0.027360  0.978384  -0.006571
    C   C54  0.646743  0.003229  0.995360  0.236449
    C   C55  0.453964  0.974897  0.008872  -0.055787
    C   C56  0.488432  0.899995  0.054855  0.294377
    C   C57  0.599073  0.877989  0.071768  -0.240189
    C   C58  0.677106  0.929269  0.042857  -0.168523
    C   C59  0.340036  0.994547  0.995630  -0.052490
    C   C60  0.301643  0.868830  0.070590  0.041922
    N   N2   0.725595  0.051244  0.965577  -0.237980
    H   H32  0.305902  0.052474  0.961830  0.153492
    H   H33  0.758615  0.160907  0.895581  0.102448
    H   H34  0.421931  0.127095  0.914482  0.114027
    H   H35  0.564678  0.208839  0.865462  0.131106
    H   H36  0.762024  0.909096  0.058965  0.186180
