# Generated by REPEAT Assigner based on pymatgen
data_DB0-m29_o81_o92_f0_pts.sym.27
_audit_creation_date              2022-05-24
_audit_creation_method            REPEAT_Assigner
_cell_length_a                    15.756616
_cell_length_b                    24.355388
_cell_length_c                    10.976395
_cell_angle_alpha                 114.493692
_cell_angle_beta                  87.938721
_cell_angle_gamma                 74.298556
_cell_volume                      3637.009631
_symmetry_space_group_name_H-M    P1
_symmetry_Int_Tables_number       1
loop_
    _symmetry_equiv_pos_site_id
    _symmetry_equiv_pos_as_xyz
    1  x,y,z
loop_
    _atom_site_type_symbol
    _atom_site_label
    _atom_site_fract_x
    _atom_site_fract_y
    _atom_site_fract_z
    _atom_type_partial_charge
    C   C1   0.896947  0.007592  0.841671  -0.317909
    C   C2   0.308636  0.994860  0.883684  0.118040
    C   C3   0.228525  0.987021  0.839957  -0.347863
    C   C4   0.160895  0.987757  0.926730  0.230235
    C   C5   0.078733  0.984050  0.888631  -0.287529
    C   C6   0.008924  0.989981  0.979236  0.005728
    C   C7   0.812942  0.010936  0.811336  -0.045014
    C   C8   0.752708  0.999555  0.883606  -0.046334
    C   C9   0.922348  0.994434  0.948957  0.208799
    C   C10  0.858197  0.990078  0.032501  0.091668
    C   C11  0.773662  0.989590  0.996107  -0.085456
    C   C12  0.322188  0.998298  0.011405  -0.002835
    C   C13  0.256670  0.994780  0.092103  -0.219909
    C   C14  0.175580  0.991573  0.052268  0.187882
    C   C15  0.109474  0.991330  0.137891  -0.235781
    C   C16  0.026586  0.990631  0.101702  0.191432
    C   C17  0.961203  0.991230  0.189175  -0.217058
    C   C18  0.878521  0.989693  0.154327  -0.138655
    H   H1   0.939103  0.018593  0.781692  0.182208
    H   H2   0.070200  0.974034  0.786098  0.168857
    H   H3   0.795986  0.019952  0.725381  0.163694
    H   H4   0.267659  0.998016  0.191163  0.195037
    H   H5   0.122121  0.992940  0.235262  0.115012
    H   H6   0.974625  0.992357  0.285929  0.151574
    H   H7   0.829950  0.991833  0.228996  0.153471
    O   O1   0.619782  0.014944  0.094164  -0.590381
    C   C19  0.704434  0.982074  0.077235  0.576952
    O   O2   0.582708  0.867801  0.078071  -0.445770
    O   O3   0.726059  0.940820  0.127655  -0.506153
    O   O4   0.584600  0.939992  0.290518  -0.598060
    C   C20  0.597563  0.880514  0.202221  0.610753
    Fe  Fe1  0.540451  0.002770  0.218167  1.499374
    O   O5   0.448524  0.969886  0.114307  -0.544620
    O   O6   0.419611  0.061991  0.093675  -0.475310
    C   C21  0.401901  0.009136  0.069725  0.679019
    O   O7   0.502634  0.089135  0.377103  -0.645748
    O   O8   0.381092  0.057998  0.392537  -0.552079
    C   C22  0.421216  0.101612  0.435835  0.668787
    O   O9   0.556976  0.924524  0.524424  -0.597078
    O   O10  0.701609  0.923294  0.537224  -0.571610
    C   C23  0.642651  0.898456  0.473506  0.727611
    O   O11  0.631600  0.033710  0.779904  -0.657139
    O   O12  0.639697  0.948583  0.821162  -0.467154
    C   C24  0.669044  0.995876  0.833419  0.797444
    O   O13  0.356045  0.015083  0.696769  -0.384999
    O   O14  0.481876  0.075408  0.634184  -0.517343
    C   C25  0.414039  0.122623  0.720521  0.540199
    O   O15  0.459124  0.993390  0.820456  -0.510756
    C   C26  0.376997  0.000398  0.796460  0.498553
    O   O16  0.393100  0.126530  0.841290  -0.498737
    Fe  Fe2  0.530851  0.007498  0.690888  1.436943
    C   C27  0.181586  0.372591  0.661002  0.450515
    O   O17  0.216923  0.392402  0.775118  -0.489109
    N   N1   0.204745  0.309876  0.575431  -0.210313
    C   C28  0.173667  0.291039  0.456050  0.463654
    C   C29  0.327185  0.211258  0.517579  -0.387827
    C   C30  0.373902  0.163463  0.549003  0.159857
    C   C31  0.296920  0.224194  0.777817  -0.067993
    C   C32  0.244428  0.268811  0.742484  -0.257444
    C   C33  0.260186  0.263675  0.612636  0.367945
    C   C34  0.095298  0.398672  0.506811  0.014335
    C   C35  0.122628  0.417059  0.631049  -0.045461
    C   C36  0.092089  0.480125  0.724042  -0.134801
    C   C37  0.123453  0.335378  0.417305  -0.067536
    C   C38  0.361806  0.171024  0.681710  -0.060789
    H   H8   0.283975  0.230352  0.880766  0.136315
    H   H9   0.189861  0.307074  0.817737  0.173261
    H   H10  0.113413  0.496354  0.821832  0.149564
    C   C39  0.638526  0.827260  0.235748  -0.029774
    C   C40  0.938473  0.547600  0.539806  0.108252
    C   C41  0.974000  0.471938  0.305122  0.096881
    C   C42  0.929048  0.532122  0.405655  -0.011418
    C   C43  0.882845  0.604865  0.640549  -0.206404
    C   C44  0.822725  0.646753  0.607156  -0.061952
    C   C45  0.821446  0.634300  0.472986  -0.069772
    C   C46  0.874965  0.577354  0.372221  0.096459
    C   C47  0.873673  0.566374  0.238593  -0.036107
    C   C48  0.831583  0.617411  0.211268  0.333876
    N   N2   0.775867  0.672079  0.311106  -0.132948
    C   C49  0.765868  0.678540  0.439690  0.392289
    C   C50  0.723214  0.785993  0.373388  -0.283825
    C   C51  0.671640  0.836788  0.355777  0.063705
    C   C52  0.649694  0.765474  0.141657  -0.059828
    C   C53  0.691808  0.714718  0.167708  -0.272073
    C   C54  0.731010  0.724318  0.282748  0.305984
    O   O18  0.702245  0.728418  0.536795  -0.451280
    C   C55  0.002417  0.505194  0.570317  -0.078893
    C   C56  0.039835  0.443113  0.472762  0.120780
    C   C57  0.021473  0.425197  0.341819  -0.043737
    C   C58  0.030581  0.523494  0.695708  0.023249
    H   H11  0.753131  0.795853  0.463984  0.184343
    H   H12  0.780039  0.690665  0.688307  0.144146
    H   H13  0.881023  0.617380  0.747162  0.172083
    H   H14  0.009739  0.572128  0.772138  0.076750
    O   O19  0.188731  0.228949  0.375667  -0.508660
    C   C59  0.098926  0.316458  0.290668  -0.062075
    H   H15  0.341195  0.205117  0.414883  0.220363
    H   H16  0.118916  0.266893  0.218498  0.130124
    C   C60  0.969041  0.459828  0.170684  -0.098399
    C   C61  0.919789  0.506085  0.136654  -0.174754
    O   O20  0.852389  0.614828  0.088818  -0.433100
    C   C62  0.050707  0.360892  0.251704  -0.104636
    H   H17  0.004399  0.414416  0.087981  0.125731
    H   H18  0.622966  0.756106  0.048358  0.120999
    H   H19  0.693333  0.667605  0.096644  0.186700
    H   H20  0.033317  0.342635  0.151832  0.106777
    C   C63  0.215498  0.977032  0.701385  0.772707
    O   O21  0.263656  0.929459  0.604908  -0.495316
    O   O22  0.152407  0.021632  0.682331  -0.407427
    C   C64  0.135536  0.016694  0.556675  0.189033
    H   H21  0.064684  0.018901  0.550466  -0.005790
    H   H22  0.178857  0.971704  0.472983  0.039569
    H   H23  0.146948  0.057083  0.543736  0.038937
    C   C65  0.910269  0.486261  0.993051  0.705083
    O   O23  0.973737  0.448498  0.904018  -0.468662
    O   O24  0.829333  0.504426  0.959608  -0.336374
    C   C66  0.818181  0.483426  0.826275  0.055516
    H   H24  0.747195  0.504125  0.821345  0.067854
    H   H25  0.836155  0.430853  0.777008  0.024221
    H   H26  0.861027  0.498616  0.772390  0.044628
