# Generated by REPEAT Assigner based on pymatgen
data_DB0-m3_o2_o7_f0_nbo.sym.29_sqe
_audit_creation_date              2022-05-24
_audit_creation_method            REPEAT_Assigner
_cell_length_a                    30.335070
_cell_length_b                    30.334862
_cell_length_c                    35.569156
_cell_angle_alpha                 90.000000
_cell_angle_beta                  90.000000
_cell_angle_gamma                 90.000000
_cell_volume                      32731.099076
_symmetry_space_group_name_H-M    P1
_symmetry_Int_Tables_number       1
loop_
    _symmetry_equiv_pos_site_id
    _symmetry_equiv_pos_as_xyz
    1  x,y,z
loop_
    _atom_site_type_symbol
    _atom_site_label
    _atom_site_fract_x
    _atom_site_fract_y
    _atom_site_fract_z
    _atom_type_partial_charge
    O   O1    0.065732  0.461071  0.499199  -0.679965
    O   O2    0.463050  0.934528  0.500941  -0.699714
    O   O3    0.934224  0.539029  0.500818  -0.681112
    O   O4    0.537022  0.065545  0.499124  -0.699165
    O   O5    0.065485  0.537041  0.500771  -0.698440
    O   O6    0.461057  0.065789  0.500821  -0.680546
    O   O7    0.934471  0.463061  0.499129  -0.699813
    O   O8    0.539013  0.934283  0.499127  -0.681061
    O   O9    0.565718  0.960943  0.000893  -0.680667
    O   O10   0.960979  0.434246  0.999002  -0.679753
    O   O11   0.434243  0.038951  0.999209  -0.680217
    O   O12   0.039074  0.565670  0.001017  -0.681090
    O   O13   0.565502  0.036908  0.999143  -0.699095
    O   O14   0.963111  0.565505  0.999201  -0.699251
    O   O15   0.434458  0.962983  0.000843  -0.698547
    O   O16   0.036945  0.434411  0.000703  -0.698390
    C   C1    0.086252  0.499110  0.500008  0.654244
    C   C2    0.500979  0.913763  0.500065  0.658738
    C   C3    0.913705  0.500991  0.499950  0.659750
    C   C4    0.499092  0.086310  0.499942  0.654805
    C   C5    0.586253  0.998971  0.999995  0.657740
    C   C6    0.998994  0.413686  0.999836  0.653608
    C   C7    0.413708  0.000921  0.000049  0.653847
    C   C8    0.001060  0.586231  0.000126  0.658328
    O   O17   0.000867  0.460961  0.443955  -0.703615
    O   O18   0.463062  0.001115  0.444154  -0.723495
    O   O19   0.999066  0.536892  0.444064  -0.721668
    O   O20   0.538987  0.998912  0.443920  -0.706394
    O   O21   0.998883  0.539137  0.555998  -0.705698
    O   O22   0.461082  0.000955  0.556092  -0.704139
    O   O23   0.001090  0.463211  0.555890  -0.723490
    O   O24   0.537012  0.999158  0.555857  -0.721366
    O   O25   0.500876  0.963014  0.944143  -0.721036
    O   O26   0.961073  0.499265  0.943888  -0.703801
    O   O27   0.499108  0.038946  0.943959  -0.704027
    O   O28   0.037004  0.500988  0.944129  -0.721014
    O   O29   0.498883  0.036876  0.055896  -0.723263
    O   O30   0.963052  0.498728  0.055826  -0.723311
    O   O31   0.501058  0.960949  0.056080  -0.706648
    O   O32   0.038980  0.500858  0.056067  -0.706026
    C   C9    0.999944  0.498948  0.426342  0.824874
    C   C10   0.500963  0.000034  0.426373  0.827237
    C   C11   0.000018  0.501154  0.573608  0.826097
    C   C12   0.499109  0.000044  0.573642  0.825492
    C   C13   0.500013  0.000933  0.926384  0.825264
    C   C14   0.999101  0.500202  0.926341  0.824783
    C   C15   0.499937  0.998958  0.073652  0.827447
    C   C16   0.000954  0.499709  0.073610  0.827415
    Zn  Zn1   0.999930  0.450184  0.500090  1.309791
    Zn  Zn2   0.450169  0.999987  0.499977  1.310173
    Zn  Zn3   0.000025  0.549917  0.499867  1.310024
    Zn  Zn4   0.549902  0.000085  0.500031  1.310424
    Zn  Zn5   0.499913  0.950079  0.999961  1.310333
    Zn  Zn6   0.950161  0.500058  0.000006  1.309404
    Zn  Zn7   0.500048  0.049814  0.000082  1.309653
    Zn  Zn8   0.049893  0.499860  0.999953  1.310099
    C   C17   0.031553  0.523485  0.173539  -0.544556
    C   C18   0.524108  0.968319  0.173503  -0.538373
    C   C19   0.969514  0.475328  0.173246  -0.548831
    C   C20   0.475928  0.030341  0.173367  -0.542732
    C   C21   0.031782  0.478163  0.826589  -0.550581
    C   C22   0.522243  0.032908  0.826496  -0.548224
    C   C23   0.967216  0.522871  0.826506  -0.547180
    C   C24   0.477558  0.968326  0.826685  -0.551040
    C   C25   0.531791  0.022532  0.673319  -0.550841
    C   C26   0.024038  0.469939  0.673359  -0.544943
    C   C27   0.467194  0.977870  0.673551  -0.547949
    C   C28   0.975824  0.531935  0.673424  -0.539104
    C   C29   0.531532  0.975765  0.326524  -0.540119
    C   C30   0.022370  0.531414  0.326605  -0.552868
    C   C31   0.469527  0.023967  0.326655  -0.546393
    C   C32   0.977722  0.466807  0.326490  -0.549179
    H   H1    0.055602  0.542544  0.188992  0.173912
    H   H2    0.543245  0.944277  0.188894  0.172432
    H   H3    0.945330  0.456184  0.188469  0.174470
    H   H4    0.456845  0.054519  0.188652  0.173701
    H   H5    0.056959  0.460446  0.811282  0.175731
    H   H6    0.539966  0.057992  0.811083  0.174934
    H   H7    0.942153  0.540674  0.811136  0.174688
    H   H8    0.459779  0.943158  0.811421  0.175289
    H   H9    0.556975  0.040310  0.688567  0.175296
    H   H10   0.043134  0.445796  0.688672  0.174131
    H   H11   0.442112  0.960163  0.688981  0.174841
    H   H12   0.956675  0.555991  0.688787  0.172718
    H   H13   0.555562  0.956611  0.311135  0.172992
    H   H14   0.040135  0.556569  0.311311  0.175856
    H   H15   0.445351  0.043050  0.311368  0.174600
    H   H16   0.960014  0.441687  0.311107  0.175336
    C   C33   0.031883  0.523700  0.134773  0.546453
    C   C34   0.524159  0.967996  0.134737  0.543449
    C   C35   0.969516  0.475339  0.134477  0.554328
    C   C36   0.475775  0.030346  0.134598  0.549236
    C   C37   0.031803  0.477953  0.865357  0.556382
    C   C38   0.522393  0.033195  0.865264  0.551488
    C   C39   0.966897  0.522850  0.865274  0.551850
    C   C40   0.477520  0.968273  0.865453  0.555912
    C   C41   0.531823  0.022549  0.634551  0.556063
    C   C42   0.024189  0.469871  0.634590  0.549413
    C   C43   0.466885  0.977699  0.634784  0.551556
    C   C44   0.975772  0.532195  0.634657  0.540802
    C   C45   0.531873  0.975742  0.365290  0.542368
    C   C46   0.022409  0.531530  0.365372  0.558204
    C   C47   0.469540  0.024148  0.365425  0.550379
    C   C48   0.977573  0.466582  0.365259  0.552559
    C   C49   0.000785  0.499576  0.114912  -0.358517
    C   C50   0.499945  0.999093  0.114954  -0.355398
    C   C51   0.999272  0.500341  0.885033  -0.351455
    C   C52   0.499984  0.000795  0.885076  -0.351486
    C   C53   0.499281  0.000088  0.614950  -0.351565
    C   C54   0.000004  0.501079  0.614911  -0.353037
    C   C55   0.500796  0.999984  0.385070  -0.354386
    C   C56   0.999965  0.499026  0.385034  -0.352799
    C   C57   0.000451  0.499352  0.192733  0.375837
    C   C58   0.500049  0.999412  0.192775  0.367426
    C   C59   0.999572  0.500573  0.807207  0.371612
    C   C60   0.499869  0.000559  0.807250  0.375907
    C   C61   0.499559  0.000243  0.692776  0.375036
    C   C62   0.999901  0.500887  0.692732  0.372384
    C   C63   0.500441  0.999823  0.307250  0.372563
    C   C64   0.000078  0.499136  0.307207  0.375546
    C   C65   0.000286  0.499249  0.233041  -0.119646
    C   C66   0.500145  0.999590  0.233084  -0.114562
    C   C67   0.999711  0.500678  0.766898  -0.112515
    C   C68   0.499778  0.000449  0.766941  -0.117299
    C   C69   0.499685  0.000353  0.733085  -0.116141
    C   C70   0.999810  0.500770  0.733041  -0.120334
    C   C71   0.500261  0.999713  0.266941  -0.119051
    C   C72   0.000175  0.499185  0.266898  -0.114729
    C   C73   0.202837  0.538905  0.500367  0.795895
    C   C74   0.540008  0.796934  0.498501  0.805858
    C   C75   0.797121  0.461218  0.498737  0.801686
    C   C76   0.460010  0.203132  0.500589  0.800993
    C   C77   0.203078  0.460037  0.499401  0.802977
    C   C78   0.538876  0.202899  0.499522  0.794609
    C   C79   0.796879  0.540029  0.501474  0.806649
    C   C80   0.461202  0.797182  0.501341  0.799476
    C   C81   0.702852  0.038711  0.999075  0.799418
    C   C82   0.038667  0.297059  0.000182  0.797653
    C   C83   0.297109  0.961170  0.000142  0.798210
    C   C84   0.961401  0.702854  0.998974  0.798434
    C   C85   0.703064  0.959873  0.001236  0.807844
    C   C86   0.040207  0.703020  0.001815  0.805587
    C   C87   0.296899  0.040046  0.999713  0.804733
    C   C88   0.959801  0.296899  0.999112  0.806079
    C   C89   0.157412  0.538654  0.500455  -0.514501
    C   C90   0.540045  0.842359  0.498604  -0.526124
    C   C91   0.842546  0.461472  0.498659  -0.518280
    C   C92   0.459985  0.157708  0.500513  -0.525238
    C   C93   0.157653  0.460007  0.499477  -0.525163
    C   C94   0.538629  0.157474  0.499434  -0.514950
    C   C95   0.842304  0.540063  0.501372  -0.526816
    C   C96   0.461460  0.842606  0.501418  -0.516177
    C   C97   0.657427  0.038473  0.998996  -0.517844
    C   C98   0.038463  0.342484  0.000272  -0.515911
    C   C99   0.342533  0.961403  0.000226  -0.515445
    C   C100  0.961613  0.657429  0.998872  -0.516761
    C   C101  0.657639  0.959859  0.001130  -0.528265
    C   C102  0.040198  0.657594  0.001688  -0.527425
    C   C103  0.342324  0.040056  0.999790  -0.526640
    C   C104  0.959819  0.342325  0.999191  -0.527793
    H   H17   0.140171  0.569809  0.500856  0.205291
    H   H18   0.571284  0.859407  0.497494  0.205925
    H   H19   0.859788  0.430341  0.497539  0.206403
    H   H20   0.428726  0.140656  0.500909  0.206062
    H   H21   0.140604  0.428745  0.499120  0.205694
    H   H22   0.569786  0.140235  0.498996  0.205713
    H   H23   0.859353  0.571302  0.502441  0.205969
    H   H24   0.430332  0.859850  0.502576  0.205996
    H   H25   0.640197  0.069623  0.998139  0.206192
    H   H26   0.069635  0.359693  0.000721  0.205263
    H   H27   0.359763  0.930238  0.000378  0.204895
    H   H28   0.930467  0.640218  0.997697  0.206013
    H   H29   0.640578  0.928615  0.001936  0.205969
    H   H30   0.071419  0.640513  0.002782  0.206442
    H   H31   0.359386  0.071314  0.999682  0.206136
    H   H32   0.928575  0.359407  0.998803  0.206218
    C   C105  0.134567  0.499260  0.499994  0.240270
    C   C106  0.500827  0.865448  0.500046  0.237388
    C   C107  0.865390  0.500840  0.499979  0.237994
    C   C108  0.499238  0.134625  0.499946  0.240593
    C   C109  0.634568  0.999103  0.000026  0.240066
    C   C110  0.999094  0.365370  0.999769  0.242162
    C   C111  0.365394  0.000791  0.000035  0.241751
    C   C112  0.000956  0.634546  0.000223  0.238640
    C   C113  0.225910  0.499542  0.499834  -0.808089
    C   C114  0.500530  0.774106  0.499867  -0.811587
    C   C115  0.774048  0.500550  0.500158  -0.812436
    C   C116  0.499512  0.225968  0.500107  -0.804800
    C   C117  0.725913  0.999356  0.000210  -0.812894
    C   C118  0.999281  0.274027  0.999601  -0.811025
    C   C119  0.274051  0.000547  0.999878  -0.812381
    C   C120  0.000753  0.725889  0.000454  -0.809895
    C   C121  0.296661  0.500790  0.466102  -0.228561
    C   C122  0.499077  0.703361  0.466133  -0.229549
    C   C123  0.702996  0.501557  0.466870  -0.230982
    C   C124  0.498666  0.297028  0.466828  -0.230670
    C   C125  0.296963  0.498710  0.533124  -0.230239
    C   C126  0.500754  0.296711  0.533850  -0.228374
    C   C127  0.703296  0.499112  0.533883  -0.227727
    C   C128  0.501531  0.703047  0.533146  -0.231556
    C   C129  0.796965  0.000178  0.966912  -0.236874
    C   C130  0.000472  0.203230  0.965933  -0.228234
    C   C131  0.203295  0.001200  0.966143  -0.227345
    C   C132  0.001808  0.796905  0.967122  -0.229596
    C   C133  0.796673  0.998915  0.033949  -0.230714
    C   C134  0.999359  0.796678  0.034135  -0.232001
    C   C135  0.203004  0.999528  0.033173  -0.237439
    C   C136  0.998390  0.203019  0.032955  -0.231600
    H   H33   0.278685  0.501552  0.439875  0.148555
    H   H34   0.498165  0.721341  0.439911  0.148571
    H   H35   0.720735  0.502571  0.440532  0.148243
    H   H36   0.497803  0.279296  0.440483  0.148553
    H   H37   0.279226  0.497849  0.559466  0.148545
    H   H38   0.501523  0.278729  0.560074  0.148344
    H   H39   0.721271  0.498201  0.560107  0.148163
    H   H40   0.502553  0.720780  0.559486  0.148201
    H   H41   0.779225  0.000611  0.940563  0.149850
    H   H42   0.001246  0.221169  0.939688  0.148515
    H   H43   0.221266  0.001890  0.939912  0.147913
    H   H44   0.002818  0.779138  0.940797  0.147304
    H   H45   0.778703  0.998392  0.060183  0.148551
    H   H46   0.998440  0.778732  0.060373  0.149143
    H   H47   0.220745  0.998926  0.059519  0.150608
    H   H48   0.997537  0.220793  0.059280  0.148427
    C   C137  0.342083  0.500907  0.465882  -0.212428
    C   C138  0.498953  0.657938  0.465909  -0.213435
    C   C139  0.657572  0.501439  0.466944  -0.211941
    C   C140  0.498762  0.342452  0.466911  -0.211386
    C   C141  0.342388  0.498814  0.533047  -0.211835
    C   C142  0.500863  0.342133  0.534077  -0.212854
    C   C143  0.657874  0.498998  0.534101  -0.214557
    C   C144  0.501403  0.657622  0.533065  -0.211127
    C   C145  0.842389  0.000305  0.966987  -0.207182
    C   C146  0.000586  0.157806  0.965759  -0.213638
    C   C147  0.157873  0.001110  0.965924  -0.213180
    C   C148  0.001679  0.842329  0.967159  -0.212134
    C   C149  0.842095  0.999000  0.034166  -0.211006
    C   C150  0.999235  0.842102  0.034316  -0.211266
    C   C151  0.157579  0.999414  0.033098  -0.207794
    C   C152  0.998491  0.157595  0.032925  -0.211411
    H   H49   0.359061  0.501771  0.439194  0.154643
    H   H50   0.497934  0.640965  0.439222  0.155158
    H   H51   0.640352  0.502375  0.440371  0.156184
    H   H52   0.497963  0.359679  0.440338  0.155744
    H   H53   0.359609  0.498022  0.559624  0.155796
    H   H54   0.501727  0.359105  0.560767  0.154774
    H   H55   0.640895  0.497986  0.560785  0.155261
    H   H56   0.502340  0.640397  0.559636  0.155991
    H   H57   0.859606  0.000844  0.940404  0.155001
    H   H58   0.001458  0.140790  0.939089  0.154621
    H   H59   0.140891  0.001739  0.939233  0.154580
    H   H60   0.002604  0.859517  0.940570  0.156089
    H   H61   0.859077  0.998535  0.060860  0.154368
    H   H62   0.998209  0.859112  0.060985  0.154555
    H   H63   0.140363  0.998713  0.059678  0.155150
    H   H64   0.997706  0.140412  0.059519  0.155808
    C   C153  0.365220  0.499912  0.499390  0.116621
    C   C154  0.500119  0.634797  0.499409  0.115901
    C   C155  0.634739  0.500165  0.500596  0.117647
    C   C156  0.499859  0.365277  0.500573  0.116841
    C   C157  0.865226  0.999702  0.000651  0.113726
    C   C158  0.999596  0.134716  0.999291  0.118697
    C   C159  0.134743  0.000214  0.999437  0.114984
    C   C160  0.000389  0.865199  0.000792  0.116480
    C   C161  0.274083  0.499690  0.499686  0.417651
    C   C162  0.500372  0.725933  0.499715  0.421540
    C   C163  0.725875  0.500397  0.500304  0.419554
    C   C164  0.499655  0.274141  0.500262  0.417098
    C   C165  0.774088  0.999490  0.000358  0.424187
    C   C166  0.999381  0.225853  0.999495  0.420041
    C   C167  0.225878  0.000419  0.999731  0.422879
    C   C168  0.000643  0.774062  0.000573  0.421795
    O   O33   0.498945  0.565997  0.466783  -0.677963
    O   O34   0.565624  0.501094  0.468417  -0.694674
    O   O35   0.498905  0.434399  0.468406  -0.694336
    O   O36   0.434027  0.501102  0.466773  -0.677732
    O   O37   0.501037  0.434076  0.533201  -0.677706
    O   O38   0.565933  0.498993  0.533212  -0.677858
    O   O39   0.501033  0.565674  0.531579  -0.694596
    O   O40   0.434336  0.498957  0.531567  -0.694160
    O   O41   0.000880  0.065859  0.966751  -0.676573
    O   O42   0.065932  0.001093  0.966821  -0.677170
    O   O43   0.001192  0.934265  0.968540  -0.693983
    O   O44   0.934336  0.000813  0.968469  -0.694084
    O   O45   0.999111  0.934057  0.033337  -0.677858
    O   O46   0.065633  0.999124  0.031619  -0.694645
    O   O47   0.998756  0.065651  0.031547  -0.694365
    O   O48   0.934037  0.998801  0.033266  -0.678095
    C   C169  0.500026  0.586478  0.499244  0.664474
    C   C170  0.586421  0.500079  0.500755  0.663549
    C   C171  0.499936  0.413595  0.500740  0.663376
    C   C172  0.413538  0.499994  0.499230  0.663361
    C   C173  0.999737  0.086398  0.999185  0.661005
    C   C174  0.086425  0.000127  0.999279  0.664111
    C   C175  0.000235  0.913518  0.000902  0.662794
    C   C176  0.913544  0.999789  0.000808  0.664433
    Zn  Zn9   0.499990  0.500035  0.457452  1.296011
    Zn  Zn10  0.499969  0.500038  0.542532  1.295720
    Zn  Zn11  0.999972  0.999879  0.957503  1.294868
    Zn  Zn12  0.999997  0.000037  0.042585  1.296559
    N   N1    0.063365  0.550286  0.115606  -0.671131
    H   H65   0.094669  0.539901  0.123988  0.271398
    H   H66   0.058998  0.582753  0.124597  0.256413
    N   N2    0.550680  0.936530  0.115485  -0.669738
    H   H67   0.540344  0.905219  0.123892  0.270846
    H   H68   0.583182  0.940909  0.124380  0.255889
    N   N3    0.938194  0.448877  0.114998  -0.672113
    H   H69   0.906821  0.459220  0.123228  0.271914
    H   H70   0.942476  0.416355  0.123875  0.254671
    N   N4    0.449224  0.061666  0.115204  -0.671041
    H   H71   0.459592  0.093039  0.123410  0.271706
    H   H72   0.416740  0.057373  0.124179  0.254672
    N   N5    0.064531  0.453114  0.884708  -0.687096
    H   H73   0.095289  0.465199  0.876515  0.275951
    H   H74   0.062019  0.420463  0.875682  0.259688
    N   N6    0.547179  0.066072  0.884482  -0.686702
    H   H75   0.535090  0.096765  0.876119  0.275637
    H   H76   0.579846  0.063516  0.875512  0.260938
    N   N7    0.934017  0.547569  0.884550  -0.685968
    H   H77   0.903325  0.535534  0.876129  0.275196
    H   H78   0.936598  0.580275  0.875685  0.260803
    N   N8    0.452771  0.935524  0.884863  -0.686837
    H   H79   0.464825  0.904775  0.876613  0.276026
    H   H80   0.420081  0.938039  0.875943  0.259960
    N   N9    0.564570  0.047275  0.615118  -0.686820
    H   H81   0.595319  0.035212  0.623359  0.276040
    H   H82   0.562074  0.079970  0.624026  0.259765
    N   N10   0.050757  0.438533  0.615233  -0.671334
    H   H83   0.040405  0.407168  0.623475  0.271951
    H   H84   0.083238  0.442858  0.624202  0.254621
    N   N11   0.433990  0.952913  0.615589  -0.686235
    H   H85   0.403306  0.965015  0.623961  0.275427
    H   H86   0.436542  0.920249  0.624570  0.260867
    N   N12   0.949234  0.563615  0.615368  -0.669777
    H   H87   0.959554  0.594945  0.623739  0.271044
    H   H88   0.916735  0.559232  0.624269  0.256419
    N   N13   0.563337  0.949223  0.384545  -0.669381
    H   H89   0.594648  0.959541  0.376120  0.270789
    H   H90   0.558941  0.916716  0.375669  0.256108
    N   N14   0.047140  0.564324  0.384744  -0.686554
    H   H91   0.035066  0.595053  0.376459  0.275874
    H   H92   0.079830  0.561815  0.375825  0.259358
    N   N15   0.438238  0.050723  0.384816  -0.672041
    H   H93   0.406857  0.040359  0.376627  0.272023
    H   H94   0.442537  0.083199  0.375822  0.254986
    N   N16   0.952806  0.433722  0.384516  -0.685998
    H   H95   0.964911  0.403022  0.376187  0.275176
    H   H96   0.920137  0.436246  0.375543  0.260664
    N   N17   0.225427  0.580110  0.500857  -0.964688
    H   H97   0.245384  0.581270  0.524748  0.344765
    H   H98   0.245150  0.582189  0.476871  0.344504
    N   N18   0.581037  0.774089  0.496993  -0.962469
    H   H99   0.583665  0.754115  0.520790  0.343178
    H   H100  0.581394  0.754363  0.472945  0.343162
    N   N19   0.774531  0.420040  0.497382  -0.966293
    H   H101  0.754736  0.417315  0.521279  0.344459
    H   H102  0.754645  0.419526  0.473432  0.344884
    N   N20   0.418945  0.225970  0.501222  -0.961139
    H   H103  0.417931  0.245779  0.525208  0.343158
    H   H104  0.416958  0.245859  0.477330  0.343068
    N   N21   0.225920  0.418973  0.498817  -0.961346
    H   H105  0.245735  0.417926  0.474836  0.343085
    H   H106  0.245802  0.417022  0.522714  0.343032
    N   N22   0.580077  0.225494  0.498986  -0.964670
    H   H107  0.581199  0.245449  0.475092  0.344758
    H   H108  0.582191  0.245219  0.522968  0.344524
    N   N23   0.774037  0.581063  0.502933  -0.962605
    H   H109  0.754070  0.583657  0.479130  0.343425
    H   H110  0.754306  0.581457  0.526978  0.343098
    N   N24   0.420025  0.774594  0.502742  -0.965999
    H   H111  0.417262  0.754798  0.478850  0.344564
    H   H112  0.419546  0.754711  0.526694  0.344752
    N   N25   0.725450  0.079901  0.998156  -0.965883
    H   H113  0.745356  0.082204  0.022019  0.345013
    H   H114  0.745220  0.080837  0.974147  0.344770
    N   N26   0.079847  0.274426  0.000725  -0.963839
    H   H115  0.080954  0.254481  0.024625  0.344367
    H   H116  0.081941  0.254688  0.976749  0.343787
    N   N27   0.274504  0.919970  0.000215  -0.963908
    H   H117  0.254666  0.918406  0.024160  0.344319
    H   H118  0.254663  0.918306  0.976275  0.343857
    N   N28   0.920247  0.725483  0.997576  -0.965026
    H   H119  0.917506  0.745279  0.021470  0.344422
    H   H120  0.919784  0.745369  0.973625  0.344234
    N   N29   0.725884  0.918809  0.002262  -0.962147
    H   H121  0.745961  0.916622  0.978495  0.343280
    H   H122  0.745497  0.917976  0.026366  0.342538
    N   N30   0.081259  0.725823  0.003328  -0.961642
    H   H123  0.083910  0.745797  0.979534  0.342783
    H   H124  0.081632  0.745545  0.027378  0.342599
    N   N31   0.274075  0.081125  0.999546  -0.961969
    H   H125  0.254376  0.082593  0.975514  0.342806
    H   H126  0.254079  0.082675  0.023398  0.343562
    N   N32   0.918715  0.274100  0.998484  -0.961560
    H   H127  0.917687  0.254280  0.974505  0.342387
    H   H128  0.916706  0.254223  0.022382  0.343002
