# Generated by REPEAT Assigner based on pymatgen
data_DB0-m3_o3_o18_f0_pcu.sym.91_sqe
_audit_creation_date              2022-05-24
_audit_creation_method            REPEAT_Assigner
_cell_length_a                    15.955827
_cell_length_b                    18.274163
_cell_length_c                    19.435982
_cell_angle_alpha                 89.989417
_cell_angle_beta                  90.002022
_cell_angle_gamma                 71.769550
_cell_volume                      5382.674831
_symmetry_space_group_name_H-M    P1
_symmetry_Int_Tables_number       1
loop_
    _symmetry_equiv_pos_site_id
    _symmetry_equiv_pos_as_xyz
    1  x,y,z
loop_
    _atom_site_type_symbol
    _atom_site_label
    _atom_site_fract_x
    _atom_site_fract_y
    _atom_site_fract_z
    _atom_type_partial_charge
    O   O1   0.501263  0.433519  0.597606  -0.639964
    O   O2   0.504871  0.563901  0.393894  -0.678378
    O   O3   0.497908  0.560742  0.598802  -0.598692
    O   O4   0.508557  0.436870  0.392759  -0.677469
    C   C1   0.498343  0.497089  0.630381  0.639367
    C   C2   0.507803  0.500397  0.361098  0.732845
    O   O5   0.635903  0.399384  0.498323  -0.682397
    O   O6   0.370477  0.598154  0.493559  -0.655527
    O   O7   0.633234  0.526168  0.498914  -0.666688
    O   O8   0.373041  0.471233  0.492693  -0.639330
    C   C3   0.675928  0.452150  0.499574  0.771603
    C   C4   0.330364  0.545439  0.492469  0.711537
    Zn  Zn1  0.504483  0.415164  0.494696  1.071050
    Zn  Zn2  0.501893  0.582314  0.496801  1.049687
    C   C5   0.772460  0.427806  0.505094  -0.168132
    C   C6   0.233430  0.570687  0.492284  -0.109793
    C   C7   0.908617  0.330720  0.527102  -0.297617
    C   C8   0.096360  0.670606  0.483342  -0.289598
    C   C9   0.818801  0.352063  0.518788  -0.019577
    C   C10  0.186872  0.647557  0.484450  -0.049840
    C   C11  0.816871  0.481571  0.498803  -0.071344
    C   C12  0.188472  0.517596  0.500573  -0.126213
    C   C13  0.908111  0.460986  0.508073  -0.045798
    C   C14  0.096324  0.540399  0.501056  0.013673
    C   C15  0.952748  0.384493  0.522087  0.311767
    C   C16  0.051569  0.617619  0.490901  0.281680
    C   C17  0.955887  0.514063  0.503428  0.083913
    C   C18  0.047881  0.488416  0.509999  0.029675
    C   C19  0.089152  0.411539  0.526789  -0.126271
    C   C20  0.913874  0.592507  0.493639  -0.185836
    C   C21  0.042122  0.360724  0.532290  -0.309957
    C   C22  0.961283  0.643094  0.488269  -0.286546
    H   H1   0.076483  0.301311  0.545026  0.147489
    H   H2   0.926481  0.703640  0.480980  0.133490
    H   H3   0.227956  0.458555  0.505475  0.131263
    H   H4   0.777795  0.538923  0.485360  0.088186
    H   H5   0.220245  0.690239  0.477988  0.097807
    H   H6   0.785626  0.309096  0.524151  0.087150
    H   H7   0.944481  0.271214  0.538336  0.134614
    H   H8   0.060392  0.730915  0.476068  0.134286
    H   H9   0.158115  0.388128  0.538398  0.139029
    H   H10  0.843583  0.618353  0.491325  0.127383
    C   C23  0.497160  0.567915  0.249483  -0.067460
    C   C24  0.511035  0.428962  0.741846  -0.107328
    H   H11  0.487934  0.621789  0.276078  0.092504
    H   H12  0.523020  0.374796  0.715135  0.102559
    C   C25  0.495917  0.567656  0.178504  -0.168560
    C   C26  0.511639  0.429151  0.812837  -0.151679
    H   H13  0.487361  0.621072  0.151298  0.110851
    H   H14  0.522249  0.375299  0.839796  0.105369
    C   C27  0.507306  0.499749  0.142838  0.117401
    C   C28  0.497274  0.497372  0.848717  0.071401
    C   C29  0.520187  0.432108  0.179129  -0.176828
    C   C30  0.481392  0.565436  0.812470  -0.139515
    H   H15  0.527629  0.378502  0.152584  0.100525
    H   H16  0.471449  0.619476  0.838924  0.095042
    C   C31  0.520779  0.432402  0.249996  -0.053172
    C   C32  0.480725  0.565225  0.741618  -0.071723
    H   H17  0.530573  0.378623  0.276835  0.089940
    H   H18  0.467605  0.619310  0.714801  0.121965
    C   C33  0.509020  0.500310  0.285654  -0.096431
    C   C34  0.496383  0.497010  0.705816  -0.044313
    C   C35  0.563099  0.440043  0.030708  -0.133304
    C   C36  0.441198  0.556904  0.961019  -0.133722
    H   H19  0.612743  0.394587  0.057037  0.107128
    H   H20  0.391293  0.602288  0.934856  0.108946
    C   C37  0.560447  0.439278  0.959825  -0.146426
    C   C38  0.444099  0.557801  0.031890  -0.142522
    H   H21  0.608339  0.393374  0.932582  0.106201
    H   H22  0.396460  0.603775  0.059271  0.105261
    C   C39  0.499434  0.497688  0.924377  0.076061
    C   C40  0.505024  0.499353  0.067269  0.052533
    C   C41  0.453459  0.282378  0.447424  0.387752
    C   C42  0.557451  0.714009  0.540439  0.353788
    C   C43  0.456238  0.206044  0.445603  -0.324108
    C   C44  0.560418  0.788723  0.537893  -0.271528
    H   H23  0.418049  0.187213  0.407537  0.123802
    H   H24  0.605436  0.805342  0.571328  0.136869
    C   C45  0.508655  0.153831  0.491276  0.196433
    C   C46  0.504725  0.841859  0.494491  0.162570
    C   C47  0.560179  0.178863  0.536815  -0.220378
    C   C48  0.447437  0.818105  0.453459  -0.234039
    H   H25  0.601398  0.139841  0.573927  0.137128
    H   H26  0.404142  0.857184  0.417490  0.123961
    C   C49  0.557558  0.255060  0.536414  -0.002183
    C   C50  0.447348  0.742689  0.456092  0.034933
    H   H27  0.597923  0.274363  0.572311  0.159015
    H   H28  0.403655  0.724194  0.422732  0.149783
    N   N1   0.504690  0.305603  0.492214  -0.174417
    N   N2   0.501940  0.691805  0.499034  -0.164823
    C   C51  0.585682  0.013613  0.499811  -0.151385
    C   C52  0.428709  0.982182  0.484544  -0.171718
    H   H29  0.648048  0.024805  0.504478  0.116954
    H   H30  0.366001  0.971519  0.480655  0.137421
    C   C53  0.584762  0.938390  0.499908  -0.150369
    C   C54  0.429790  0.057293  0.483869  -0.133818
    H   H31  0.646735  0.892658  0.504407  0.111308
    H   H32  0.368000  0.103256  0.479167  0.137706
    C   C55  0.506184  0.922008  0.492577  0.116012
    C   C56  0.508205  0.073582  0.491664  0.085674
    N   N3   0.400140  0.335307  0.400064  -0.413642
    C   C57  0.314300  0.338974  0.399643  0.691611
    O   O9   0.282422  0.316451  0.449179  -0.521767
    C   C58  0.256860  0.373124  0.339784  -0.527613
    H   H33  0.427316  0.337524  0.352454  0.265411
    H   H34  0.294435  0.393693  0.300340  0.107933
    H   H35  0.200836  0.422479  0.357753  0.174277
    H   H36  0.230942  0.329013  0.316767  0.141145
    N   N4   0.615727  0.660011  0.584235  -0.413398
    C   C59  0.606555  0.678926  0.651561  0.717854
    O   O10  0.537811  0.724196  0.672594  -0.552290
    C   C60  0.679346  0.643295  0.701078  -0.567912
    H   H37  0.679996  0.638711  0.567608  0.252594
    H   H38  0.735794  0.601520  0.674565  0.120094
    H   H39  0.654659  0.612760  0.741781  0.180740
    H   H40  0.701642  0.689104  0.724978  0.149391
