# Generated by REPEAT Assigner based on pymatgen
data_DB0-m3_o11_o15_f0_nbo.sym.54_sqe
_audit_creation_date              2022-05-24
_audit_creation_method            REPEAT_Assigner
_cell_length_a                    19.249262
_cell_length_b                    19.050700
_cell_length_c                    19.126576
_cell_angle_alpha                 109.090541
_cell_angle_beta                  110.024474
_cell_angle_gamma                 109.343506
_cell_volume                      5396.056849
_symmetry_space_group_name_H-M    P1
_symmetry_Int_Tables_number       1
loop_
    _symmetry_equiv_pos_site_id
    _symmetry_equiv_pos_as_xyz
    1  x,y,z
loop_
    _atom_site_type_symbol
    _atom_site_label
    _atom_site_fract_x
    _atom_site_fract_y
    _atom_site_fract_z
    _atom_type_partial_charge
    O   O1   0.416213  0.348266  0.438379  -0.694661
    O   O2   0.407893  0.442349  0.543546  -0.657791
    C   C1   0.385424  0.364570  0.489595  0.690263
    O   O3   0.598467  0.453845  0.538482  -0.668637
    O   O4   0.583740  0.543961  0.640173  -0.648660
    C   C2   0.620052  0.500023  0.618378  0.656201
    Zn  Zn1  0.505969  0.430354  0.428140  1.286176
    Zn  Zn2  0.490607  0.553981  0.560968  1.275568
    O   O5   0.588582  0.542088  0.445483  -0.661940
    O   O6   0.580450  0.636002  0.550839  -0.689487
    O   O7   0.412628  0.440039  0.348880  -0.675497
    O   O8   0.398113  0.530573  0.450604  -0.691528
    C   C3   0.611199  0.619951  0.499673  0.675176
    C   C4   0.376156  0.483524  0.370739  0.727534
    H   H1   0.542342  0.209846  0.560247  0.088845
    C   C5   0.770542  0.655662  0.757067  -0.377978
    C   C6   0.837274  0.732947  0.827916  0.222442
    C   C7   0.890832  0.733386  0.897665  -0.281450
    C   C8   0.881068  0.657525  0.894806  -0.144805
    C   C9   0.816713  0.579210  0.821973  0.076226
    C   C10  0.757393  0.578443  0.755073  0.143341
    C   C11  0.811106  0.502346  0.815842  -0.171926
    C   C12  0.742382  0.424591  0.744866  0.159956
    C   C13  0.677650  0.424013  0.683071  0.141306
    C   C14  0.686394  0.500863  0.686451  -0.156939
    C   C15  0.737770  0.346878  0.733900  -0.246937
    C   C16  0.666690  0.270385  0.667416  -0.071632
    C   C17  0.599170  0.269978  0.611220  -0.073996
    C   C18  0.604433  0.345988  0.618510  -0.241536
    H   H2   0.730209  0.657349  0.703124  0.225423
    H   H3   0.942131  0.793139  0.954817  0.110393
    H   H4   0.924733  0.662326  0.951899  0.174372
    H   H5   0.788934  0.342855  0.775392  0.167369
    H   H6   0.663536  0.210550  0.660276  0.089322
    H   H7   0.549065  0.341482  0.572727  0.170024
    C   C19  0.253712  0.233401  0.556326  -0.070167
    C   C20  0.173671  0.182479  0.490828  -0.164748
    H   H8   0.271396  0.229546  0.614612  0.135094
    H   H9   0.153270  0.192529  0.436403  0.124847
    C   C21  0.315853  0.303343  0.556099  -0.112500
    C   C22  0.322933  0.292586  0.486781  -0.154416
    H   H10  0.360319  0.363442  0.615844  0.144832
    H   H11  0.285357  0.230087  0.429483  0.129154
    C   C23  0.182686  0.493716  0.243408  -0.094490
    C   C24  0.192765  0.510231  0.183784  -0.176257
    H   H12  0.123657  0.480102  0.244007  0.139960
    H   H13  0.254426  0.533365  0.188024  0.132612
    C   C25  0.252923  0.501528  0.314026  -0.068988
    C   C26  0.308222  0.479195  0.301671  -0.185881
    H   H14  0.255311  0.519776  0.375094  0.133544
    H   H15  0.300749  0.452375  0.238406  0.131060
    C   C27  0.744564  0.756793  0.437606  -0.075695
    C   C28  0.822136  0.812747  0.506407  -0.193493
    H   H16  0.728813  0.759329  0.378712  0.137756
    H   H17  0.841905  0.804426  0.562032  0.138401
    C   C29  0.683609  0.684079  0.435953  -0.100079
    C   C30  0.673686  0.692901  0.503502  -0.155417
    H   H18  0.642091  0.623658  0.376195  0.146053
    H   H19  0.708027  0.755436  0.560189  0.130786
    O   O9   0.945587  0.360709  0.916445  -0.697791
    O   O10  0.040642  0.454843  0.898709  -0.662921
    C   C31  0.989598  0.376962  0.878781  0.704320
    O   O11  0.860632  0.459330  0.919259  -0.672970
    O   O12  0.958376  0.549630  0.900960  -0.650548
    C   C32  0.879956  0.503880  0.882126  0.675839
    Zn  Zn3  0.936746  0.442227  0.008001  1.278469
    Zn  Zn4  0.066304  0.566496  0.990051  1.283253
    O   O13  0.962633  0.553786  0.099552  -0.660899
    O   O14  0.057293  0.648060  0.081464  -0.691987
    O   O15  0.044637  0.458859  0.096984  -0.668641
    O   O16  0.142540  0.549871  0.079142  -0.696531
    C   C33  0.013491  0.631586  0.119364  0.679859
    C   C34  0.123006  0.505474  0.116179  0.724036
    O   O17  0.055802  0.087294  0.645783  -0.675725
    O   O18  0.951990  0.091620  0.544219  -0.692209
    C   C35  0.005327  0.118027  0.624174  0.706282
    O   O19  0.136362  0.090062  0.547456  -0.691423
    O   O20  0.029316  0.088060  0.442656  -0.674751
    C   C36  0.110120  0.117235  0.494230  0.708064
    Zn  Zn5  0.068169  0.998108  0.565772  1.291024
    Zn  Zn6  0.927379  0.999688  0.433595  1.289892
    O   O21  0.043657  0.906277  0.455147  -0.691010
    O   O22  0.939810  0.910637  0.353540  -0.669741
    O   O23  0.966209  0.909678  0.556608  -0.677777
    O   O24  0.859172  0.907556  0.451764  -0.694947
    C   C37  0.990542  0.880196  0.375201  0.696666
    C   C38  0.885417  0.880138  0.504783  0.726570
    C   C39  0.985450  0.240075  0.679758  -0.075372
    C   C40  0.009761  0.185548  0.693289  -0.164835
    H   H20  0.965027  0.236530  0.617802  0.137119
    H   H21  0.039410  0.194656  0.757372  0.127553
    C   C41  0.996032  0.312374  0.750127  -0.107839
    C   C42  0.980712  0.304301  0.810880  -0.159715
    H   H22  0.010886  0.371678  0.748493  0.143475
    H   H23  0.956561  0.242606  0.807774  0.129392
    C   C43  0.017750  0.763749  0.319977  -0.103072
    C   C44  0.987980  0.814732  0.306063  -0.138940
    H   H24  0.040815  0.767833  0.382201  0.141914
    H   H25  0.956357  0.804715  0.241813  0.114042
    C   C45  0.009362  0.693787  0.249383  -0.080051
    C   C46  0.022555  0.703450  0.188152  -0.173884
    H   H26  0.997284  0.634679  0.250842  0.142000
    H   H27  0.044108  0.765164  0.191115  0.138301
    C   C47  0.851557  0.816149  0.830482  0.342972
    C   C48  0.872221  0.822227  0.762124  -0.345024
    C   C49  0.774202  0.826489  0.819341  -0.370764
    H   H28  0.906729  0.869717  0.893766  -0.025231
    H   H29  0.816601  0.773991  0.697081  0.071923
    H   H30  0.926810  0.811339  0.769427  0.050342
    H   H31  0.889839  0.887093  0.770055  0.086855
    H   H32  0.719904  0.781537  0.752809  0.087273
    H   H33  0.790740  0.893004  0.833503  0.080785
    H   H34  0.755435  0.814111  0.864675  0.059867
