# Generated by REPEAT Assigner based on pymatgen
data_DB0-m3_o24_o47_f0_fsc.sym.24
_audit_creation_date              2022-05-24
_audit_creation_method            REPEAT_Assigner
_cell_length_a                    8.528084
_cell_length_b                    9.204815
_cell_length_c                    11.205647
_cell_angle_alpha                 90.519989
_cell_angle_beta                  80.743971
_cell_angle_gamma                 92.547949
_cell_volume                      867.323544
_symmetry_space_group_name_H-M    P1
_symmetry_Int_Tables_number       1
loop_
    _symmetry_equiv_pos_site_id
    _symmetry_equiv_pos_as_xyz
    1  x,y,z
loop_
    _atom_site_type_symbol
    _atom_site_label
    _atom_site_fract_x
    _atom_site_fract_y
    _atom_site_fract_z
    _atom_type_partial_charge
    C   C1   0.906646  0.017229  0.250835  -0.136697
    C   C2   0.093355  0.982770  0.749165  -0.136696
    C   C3   0.025491  0.024431  0.319616  -0.163402
    C   C4   0.974510  0.975569  0.680384  -0.163409
    C   C5   0.180321  0.999313  0.270850  -0.265750
    C   C6   0.819680  0.000686  0.729150  -0.265758
    C   C7   0.223662  0.978255  0.148442  0.116064
    C   C8   0.776338  0.021744  0.851558  0.116071
    C   C9   0.110516  0.989953  0.074909  0.186190
    C   C10  0.889485  0.010046  0.925092  0.186180
    C   C11  0.951768  0.005949  0.125469  0.064160
    C   C12  0.048233  0.994050  0.874531  0.064174
    C   C13  0.157712  0.984749  0.950537  -0.330593
    C   C14  0.842288  0.015251  0.049463  -0.330585
    H   H1   0.994457  0.044249  0.414621  0.117099
    H   H2   0.005543  0.955750  0.585379  0.117104
    H   H3   0.720161  0.028171  0.089309  0.154741
    H   H4   0.279840  0.971829  0.910691  0.154739
    O   O1   0.656810  0.877901  0.607599  -0.821597
    O   O2   0.343190  0.122099  0.392401  -0.821592
    O   O3   0.652659  0.128208  0.621763  -0.809088
    O   O4   0.347341  0.871791  0.378238  -0.809083
    C   C15  0.704097  0.002636  0.648565  1.166478
    C   C16  0.295903  0.997364  0.351435  1.166461
    O   O5   0.686237  0.134626  0.370849  -0.806623
    O   O6   0.313763  0.865373  0.629152  -0.806624
    O   O7   0.678414  0.884934  0.358110  -0.651252
    O   O8   0.321586  0.115065  0.641890  -0.651257
    C   C17  0.741474  0.013162  0.320096  0.853937
    C   C18  0.258526  0.986838  0.679904  0.853944
    Zn  Zn1  0.501306  0.161795  0.505221  0.977103
    Zn  Zn2  0.498694  0.838205  0.494779  0.977096
    C   C19  0.393206  0.452547  0.579501  -0.116472
    C   C20  0.606795  0.547452  0.420500  -0.116458
    C   C21  0.373355  0.539670  0.473710  0.501750
    C   C22  0.626645  0.460329  0.526290  0.501734
    N   N1   0.498887  0.647405  0.490168  0.394043
    N   N2   0.501113  0.352594  0.509833  0.394045
    C   C23  0.519393  0.565013  0.599015  -0.190623
    C   C24  0.480607  0.434987  0.400985  -0.190631
    H   H5   0.535658  0.619420  0.685145  0.104786
    H   H6   0.464342  0.380580  0.314855  0.104789
    N   N3   0.383603  0.949176  0.095997  -0.517866
    H   H7   0.458993  0.950821  0.160300  0.212142
    H   H8   0.382437  0.844314  0.059697  0.244647
    N   N4   0.616397  0.050824  0.904004  -0.517877
    H   H9   0.541007  0.049178  0.839700  0.212146
    H   H10  0.617564  0.155686  0.940303  0.244649
    N   N5   0.222076  0.583824  0.445848  -0.880557
    H   H11  0.149093  0.490021  0.443772  0.325666
    H   H12  0.170623  0.648864  0.517059  0.363376
    N   N6   0.777925  0.416175  0.554152  -0.880559
    H   H13  0.850907  0.509978  0.556229  0.325669
    H   H14  0.829377  0.351135  0.482942  0.363380
    N   N7   0.264214  0.399859  0.671521  -0.655003
    H   H15  0.193778  0.487730  0.699182  0.253780
    H   H16  0.314562  0.367725  0.745544  0.309567
    N   N8   0.735786  0.600140  0.328480  -0.655004
    H   H17  0.806223  0.512269  0.300818  0.253782
    H   H18  0.685438  0.632274  0.254457  0.309564
