# Generated by REPEAT Assigner based on pymatgen
data_DB0-m3_o26_o29_f0_pcu.sym.32
_audit_creation_date              2022-05-24
_audit_creation_method            REPEAT_Assigner
_cell_length_a                    16.245176
_cell_length_b                    17.486474
_cell_length_c                    27.601401
_cell_angle_alpha                 89.985894
_cell_angle_beta                  92.925089
_cell_angle_gamma                 89.078182
_cell_volume                      7829.520249
_symmetry_space_group_name_H-M    P1
_symmetry_Int_Tables_number       1
loop_
    _symmetry_equiv_pos_site_id
    _symmetry_equiv_pos_as_xyz
    1  x,y,z
loop_
    _atom_site_type_symbol
    _atom_site_label
    _atom_site_fract_x
    _atom_site_fract_y
    _atom_site_fract_z
    _atom_type_partial_charge
    O   O1   0.416870  0.611165  0.498118  -0.665299
    O   O2   0.570623  0.387845  0.501763  -0.673577
    O   O3   0.558829  0.615617  0.502412  -0.673019
    O   O4   0.428670  0.383400  0.497003  -0.672789
    C   C1   0.485918  0.649184  0.500456  0.732628
    C   C2   0.501579  0.349828  0.499193  0.739369
    O   O5   0.422228  0.496023  0.569727  -0.684066
    O   O6   0.565280  0.502559  0.429949  -0.680383
    O   O7   0.564174  0.500996  0.574243  -0.682602
    O   O8   0.423289  0.498457  0.425378  -0.691742
    C   C3   0.493136  0.498293  0.594652  0.769293
    C   C4   0.494440  0.500742  0.404998  0.774695
    Zn  Zn1  0.400141  0.496616  0.496807  1.081053
    Zn  Zn2  0.587355  0.502397  0.502842  1.067380
    C   C5   0.498400  0.567631  0.823135  0.441373
    C   C6   0.512278  0.433350  0.177086  0.445853
    O   O9   0.490729  0.632000  0.796641  -0.451663
    O   O10  0.515552  0.368634  0.203361  -0.450412
    N   N1   0.495656  0.500331  0.799593  -0.181941
    N   N2   0.498330  0.499642  0.200208  -0.183928
    C   C7   0.494998  0.433903  0.823891  0.459883
    C   C8   0.486143  0.565348  0.175551  0.459843
    C   C9   0.423164  0.482585  0.721219  -0.182836
    C   C10  0.423743  0.511708  0.274086  -0.184441
    C   C11  0.422287  0.482652  0.671209  -0.064080
    C   C12  0.422619  0.511418  0.324024  -0.050842
    C   C13  0.564813  0.515065  0.674795  -0.096654
    C   C14  0.568377  0.489554  0.329350  -0.100340
    C   C15  0.565080  0.516217  0.724698  -0.141261
    C   C16  0.569056  0.488622  0.279464  -0.144240
    C   C17  0.494481  0.499682  0.747998  0.225899
    C   C18  0.496911  0.500011  0.251743  0.225113
    C   C19  0.500515  0.501559  0.899244  0.085149
    C   C20  0.502270  0.499030  0.100782  0.091441
    C   C21  0.504206  0.569674  0.873812  -0.120426
    C   C22  0.517924  0.432057  0.126736  -0.129445
    C   C23  0.512133  0.637563  0.899912  0.046854
    C   C24  0.537140  0.365800  0.101384  0.052581
    C   C25  0.496653  0.433649  0.873894  -0.101661
    C   C26  0.487158  0.565792  0.125623  -0.101741
    C   C27  0.493301  0.498555  0.647750  -0.077316
    C   C28  0.495071  0.500679  0.351921  -0.083533
    H   H1   0.620986  0.528157  0.657379  0.108656
    H   H2   0.625756  0.480595  0.350283  0.108797
    H   H3   0.621080  0.529504  0.745625  0.122858
    H   H4   0.626531  0.479616  0.262057  0.124975
    C   C29  0.491802  0.568149  0.025189  0.053322
    C   C30  0.503132  0.431989  0.974627  0.057014
    C   C31  0.510777  0.431994  0.025303  0.062287
    C   C32  0.498560  0.569000  0.974903  0.059641
    C   C33  0.501669  0.499719  0.050368  0.013951
    C   C34  0.500771  0.500863  0.949650  0.016829
    C   C35  0.474826  0.634339  0.050947  -0.160260
    C   C36  0.497240  0.364439  0.948254  -0.164214
    C   C37  0.472393  0.632930  0.100501  -0.055059
    C   C38  0.493851  0.365486  0.898540  -0.053518
    O   O11  0.473213  0.630624  0.199895  -0.498561
    O   O12  0.492954  0.367767  0.799116  -0.499390
    C   C39  0.506584  0.636703  0.949485  -0.208545
    C   C40  0.530787  0.365958  0.051481  -0.212627
    H   H5   0.364609  0.520443  0.340815  0.101605
    H   H6   0.365748  0.469342  0.650857  0.104294
    H   H7   0.366991  0.520393  0.252466  0.132866
    H   H8   0.367635  0.469780  0.739401  0.132305
    H   H9   0.458530  0.685626  0.119032  0.130082
    H   H10  0.488890  0.311672  0.879494  0.129873
    H   H11  0.459426  0.688317  0.033770  0.148294
    H   H12  0.491487  0.309219  0.964865  0.149731
    H   H13  0.516568  0.690330  0.967745  0.148686
    H   H14  0.549670  0.314075  0.033994  0.148240
    C   C41  0.481327  0.732986  0.501344  -0.101386
    C   C42  0.506181  0.266027  0.498301  -0.105447
    C   C43  0.552511  0.775281  0.504698  -0.056549
    C   C44  0.435008  0.223723  0.494814  -0.056164
    C   C45  0.548266  0.854088  0.505951  -0.221482
    C   C46  0.439274  0.144916  0.493557  -0.222270
    C   C47  0.472440  0.891762  0.503531  0.275001
    C   C48  0.515105  0.107256  0.496098  0.276084
    C   C49  0.401541  0.849196  0.500920  -0.247812
    C   C50  0.585995  0.149829  0.498836  -0.251073
    C   C51  0.405725  0.770459  0.499594  -0.040787
    C   C52  0.581791  0.228564  0.500176  -0.033507
    C   C53  0.463708  0.975758  0.505374  -0.227800
    C   C54  0.523853  0.023267  0.494243  -0.228633
    H   H15  0.612453  0.747450  0.506846  0.093294
    H   H16  0.375064  0.251548  0.492569  0.095072
    H   H17  0.638517  0.260080  0.502579  0.090190
    H   H18  0.348991  0.738950  0.497293  0.094847
    H   H19  0.582594  0.000736  0.483665  0.134837
    H   H20  0.404979  0.998308  0.515963  0.134682
    H   H21  0.341884  0.877608  0.499506  0.125002
    H   H22  0.645657  0.121423  0.500345  0.125453
    H   H23  0.382235  0.114359  0.489283  0.128187
    H   H24  0.605329  0.884625  0.510120  0.127488
    N   N3   0.710434  0.506041  0.506895  -0.107556
    N   N4   0.277060  0.492970  0.492755  -0.128429
    C   C55  0.753948  0.459825  0.478524  0.048642
    C   C56  0.233538  0.539379  0.521003  0.081921
    C   C57  0.838736  0.460734  0.481401  -0.237859
    C   C58  0.148749  0.538462  0.518131  -0.242945
    C   C59  0.879915  0.509896  0.513144  0.241005
    C   C60  0.107580  0.489117  0.486510  0.237415
    C   C61  0.833772  0.557951  0.541917  -0.107813
    C   C62  0.153721  0.440859  0.457866  -0.132916
    C   C63  0.748646  0.554273  0.538271  -0.002360
    C   C64  0.238849  0.444533  0.461511  0.034603
    C   C65  0.970513  0.505318  0.518804  -0.174472
    C   C66  0.016991  0.493706  0.480832  -0.164134
    H   H25  0.722323  0.420777  0.453891  0.139453
    H   H26  0.265156  0.578581  0.545534  0.115323
    H   H27  0.275727  0.407304  0.439778  0.153589
    H   H28  0.711768  0.591344  0.560106  0.171778
    H   H29  0.987999  0.489293  0.444753  0.133765
    H   H30  0.999542  0.509720  0.554874  0.137027
    H   H31  0.115425  0.578854  0.539690  0.176116
    H   H32  0.872039  0.420471  0.459741  0.175662
    C   C67  0.871564  0.614754  0.575316  0.627516
    O   O13  0.939208  0.640723  0.568487  -0.505947
    O   O14  0.827206  0.643285  0.613348  -0.557756
    H   H33  0.860608  0.682958  0.631977  0.414363
    C   C68  0.115915  0.383844  0.424622  0.658150
    O   O15  0.048201  0.358048  0.431474  -0.514298
    O   O16  0.160321  0.354930  0.386720  -0.574784
    H   H34  0.126893  0.315163  0.368193  0.417496
    C   C69  0.533163  0.711100  0.878225  0.622724
    O   O17  0.499252  0.769878  0.891043  -0.504892
    O   O18  0.598130  0.715257  0.847358  -0.557695
    H   H35  0.606445  0.770211  0.837476  0.415818
    C   C70  0.571065  0.295588  0.124597  0.623037
    O   O19  0.547819  0.233322  0.110069  -0.504735
    O   O20  0.636225  0.299367  0.159262  -0.559264
    H   H36  0.654204  0.246009  0.169864  0.414924
