# Generated by REPEAT Assigner based on pymatgen
data_DB0-m29_o91_o109_f0_pts.sym.95
_audit_creation_date              2022-05-24
_audit_creation_method            REPEAT_Assigner
_cell_length_a                    11.674196
_cell_length_b                    21.702135
_cell_length_c                    14.989875
_cell_angle_alpha                 111.018553
_cell_angle_beta                  90.764874
_cell_angle_gamma                 101.927770
_cell_volume                      3452.583842
_symmetry_space_group_name_H-M    P1
_symmetry_Int_Tables_number       1
loop_
    _symmetry_equiv_pos_site_id
    _symmetry_equiv_pos_as_xyz
    1  x,y,z
loop_
    _atom_site_type_symbol
    _atom_site_label
    _atom_site_fract_x
    _atom_site_fract_y
    _atom_site_fract_z
    _atom_type_partial_charge
    C   C1   0.710549  0.981039  0.229570  0.135431
    C   C2   0.817177  0.972948  0.257193  -0.211118
    C   C3   0.910242  0.977974  0.202962  0.193033
    C   C4   0.017399  0.974316  0.237194  -0.151942
    C   C5   0.115065  0.985660  0.190563  0.058839
    C   C6   0.696188  0.990987  0.144585  -0.219122
    C   C7   0.788017  0.992690  0.085714  0.077830
    C   C8   0.897354  0.988442  0.117665  -0.034321
    C   C9   0.994385  0.995535  0.066249  0.070980
    C   C10  0.664674  0.999776  0.957784  -0.166903
    C   C11  0.774282  0.001017  0.997883  0.076100
    C   C12  0.871314  0.008112  0.946469  -0.033195
    C   C13  0.653636  0.010981  0.873634  0.062564
    C   C14  0.751301  0.022324  0.827004  -0.152120
    C   C15  0.104006  0.996812  0.106370  -0.164949
    C   C16  0.980639  0.003834  0.978398  0.078743
    C   C17  0.072446  0.005496  0.919496  -0.214400
    C   C18  0.858438  0.018613  0.861196  0.186667
    C   C19  0.951491  0.023619  0.806950  -0.208969
    C   C20  0.058088  0.015463  0.834521  0.140476
    H   H1   0.612462  0.999579  0.128615  0.216379
    H   H2   0.584292  0.988750  0.988605  0.125141
    H   H3   0.184374  0.007841  0.075533  0.134862
    H   H4   0.156148  0.996865  0.935445  0.203541
    H   H5   0.830046  0.965318  0.323650  0.161750
    H   H6   0.025593  0.966893  0.304307  0.165686
    H   H7   0.743111  0.029772  0.759909  0.166831
    H   H8   0.938627  0.031274  0.740511  0.161699
    O   O1   0.512693  0.990698  0.267729  -0.573231
    C   C21  0.614129  0.980873  0.291758  0.521277
    O   O2   0.319044  0.849195  0.280257  -0.556568
    O   O3   0.629793  0.972296  0.372999  -0.516624
    O   O4   0.388095  0.923192  0.430463  -0.568779
    C   C22  0.343949  0.860797  0.371258  0.635490
    Fe  Fe1  0.402839  0.989824  0.366901  1.475232
    O   O5   0.239257  0.966982  0.302995  -0.568653
    O   O6   0.325593  0.023624  0.210687  -0.510440
    C   C23  0.231258  0.990275  0.233894  0.622960
    O   O7   0.466736  0.081512  0.468960  -0.545677
    O   O8   0.290010  0.099406  0.431231  -0.443021
    C   C24  0.389283  0.119666  0.486003  0.500944
    C   C25  0.265897  0.580994  0.454803  0.478100
    N   N1   0.357179  0.634978  0.474966  -0.198196
    C   C26  0.460888  0.635675  0.516679  0.481794
    C   C27  0.474739  0.581252  0.539919  -0.062711
    C   C28  0.382832  0.525795  0.519430  0.060008
    C   C29  0.277620  0.525594  0.476431  -0.134063
    C   C30  0.580380  0.581869  0.582895  -0.203790
    C   C31  0.595104  0.527223  0.604611  0.389785
    C   C32  0.501490  0.470994  0.585093  -0.285038
    C   C33  0.395800  0.471012  0.542064  0.118222
    C   C34  0.302303  0.416068  0.521979  -0.073563
    C   C35  0.196752  0.415775  0.478682  -0.102131
    C   C36  0.184544  0.470191  0.455744  0.014610
    C   C37  0.510053  0.415034  0.608016  0.568110
    N   N2   0.417027  0.361948  0.588026  -0.209957
    C   C38  0.314229  0.361781  0.545840  0.462374
    O   O9   0.162315  0.581738  0.415452  -0.483312
    O   O10  0.552161  0.688843  0.533455  -0.466194
    H   H9   0.653853  0.624954  0.599617  0.135729
    O   O11  0.611041  0.412330  0.648938  -0.460702
    O   O12  0.221870  0.309241  0.529391  -0.472672
    H   H10  0.122302  0.373228  0.461959  0.141255
    H   H11  0.101178  0.468452  0.421676  0.109693
    C   C39  0.408456  0.241350  0.542181  -0.258899
    H   H12  0.390458  0.234628  0.467922  0.178623
    C   C40  0.413335  0.185657  0.565038  0.136027
    C   C41  0.433650  0.193537  0.661030  -0.060278
    C   C42  0.455560  0.258264  0.730690  -0.099554
    H   H13  0.471482  0.266485  0.805680  0.154692
    C   C43  0.452168  0.313538  0.706707  -0.168739
    H   H14  0.465555  0.363172  0.762794  0.125703
    C   C44  0.426971  0.305255  0.612474  0.253839
    C   C45  0.363322  0.755396  0.521512  -0.278340
    H   H15  0.382874  0.762160  0.595588  0.162879
    C   C46  0.356460  0.810976  0.498983  0.138615
    C   C47  0.334442  0.803045  0.403160  -0.058852
    C   C48  0.311992  0.738312  0.333492  -0.113624
    H   H16  0.294572  0.730044  0.258642  0.151105
    C   C49  0.317002  0.683120  0.357200  -0.168200
    H   H17  0.303339  0.633505  0.301034  0.143877
    C   C50  0.344755  0.691530  0.451101  0.266969
    O   O13  0.529462  0.029783  0.761333  -0.576330
    O   O14  0.443138  0.972873  0.853320  -0.520245
    C   C51  0.537450  0.006378  0.830313  0.640672
    O   O15  0.302441  0.914934  0.595040  -0.567418
    O   O16  0.479338  0.897331  0.632999  -0.462955
    C   C52  0.380148  0.876935  0.578093  0.537753
    O   O17  0.447251  0.147353  0.784136  -0.551085
    O   O18  0.255833  0.005631  0.796209  -0.562857
    C   C53  0.154491  0.015624  0.772313  0.511673
    O   O19  0.380503  0.073315  0.633508  -0.557454
    C   C54  0.423425  0.135773  0.692999  0.626004
    O   O20  0.138923  0.024409  0.691217  -0.514500
    Fe  Fe2  0.365886  0.006732  0.697146  1.475716
    N   N3   0.705415  0.531261  0.648648  -0.565630
    C   C55  0.783693  0.511001  0.585332  0.866360
    O   O21  0.749706  0.473220  0.502740  -0.577153
    C   C56  0.912075  0.534684  0.616357  -0.586017
    H   H18  0.740535  0.575708  0.705281  0.290277
    H   H19  0.932537  0.518762  0.676138  0.149462
    H   H20  0.937818  0.590720  0.640596  0.128335
    H   H21  0.961762  0.512068  0.555136  0.169775
