# Generated by REPEAT Assigner based on pymatgen
data_DB0-m3_o9_o27_f0_nbo_sqe
_audit_creation_date              2022-05-24
_audit_creation_method            REPEAT_Assigner
_cell_length_a                    21.843278
_cell_length_b                    21.852108
_cell_length_c                    24.799388
_cell_angle_alpha                 116.125129
_cell_angle_beta                  116.123452
_cell_angle_gamma                 90.008091
_cell_volume                      9261.736582
_symmetry_space_group_name_H-M    P1
_symmetry_Int_Tables_number       1
loop_
    _symmetry_equiv_pos_site_id
    _symmetry_equiv_pos_as_xyz
    1  x,y,z
loop_
    _atom_site_type_symbol
    _atom_site_label
    _atom_site_fract_x
    _atom_site_fract_y
    _atom_site_fract_z
    _atom_type_partial_charge
    C   C1    0.072798  0.565813  0.636481  0.638045
    C   C2    0.034059  0.247308  0.287619  -0.087813
    C   C3    0.590810  0.272158  0.328070  -0.104762
    C   C4    0.524027  0.196599  0.462249  -0.210914
    C   C5    0.505486  0.188694  0.505620  0.131822
    C   C6    0.488767  0.243696  0.548291  -0.134627
    C   C7    0.490237  0.305581  0.546331  -0.202813
    C   C8    0.507570  0.313063  0.502118  0.125186
    C   C9    0.524967  0.258320  0.459878  -0.108474
    C   C10   0.409027  0.248936  0.594932  -0.217458
    C   C11   0.394848  0.248659  0.643770  -0.121166
    C   C12   0.445094  0.240913  0.697043  -0.077128
    C   C13   0.256147  0.435902  0.447713  -0.181612
    C   C14   0.509480  0.233398  0.701422  -0.187437
    C   C15   0.523291  0.232352  0.651915  -0.099639
    C   C16   0.472898  0.239829  0.598334  0.302545
    C   C17   0.309930  0.495706  0.495266  0.139145
    C   C18   0.299410  0.554065  0.541303  -0.094814
    C   C19   0.235031  0.551226  0.538318  -0.211636
    C   C20   0.181659  0.491287  0.491251  0.153908
    C   C21   0.192126  0.433021  0.445599  -0.173412
    C   C22   0.372247  0.650486  0.660334  -0.142307
    C   C23   0.420661  0.714196  0.707464  -0.152596
    C   C24   0.449240  0.748717  0.685809  -0.101885
    C   C25   0.115517  0.491666  0.492148  0.659936
    C   C26   0.429256  0.719571  0.616963  -0.101701
    C   C27   0.381214  0.655655  0.569912  -0.088466
    C   C28   0.353004  0.620484  0.591434  0.182265
    C   C29   0.108196  0.671865  0.748014  -0.181452
    C   C30   0.142980  0.707146  0.819126  0.097520
    C   C31   0.184016  0.675752  0.855263  -0.536577
    C   C32   0.189105  0.608237  0.819256  0.138783
    C   C33   0.152570  0.572187  0.748059  -0.186088
    C   C34   0.112252  0.603986  0.712072  0.158343
    C   C35   0.289482  0.783339  0.069110  0.962496
    C   C36   0.925130  0.429170  0.363311  0.630434
    C   C37   0.221424  0.713746  0.931028  0.980137
    C   C38   0.294104  0.861517  0.180191  0.142467
    C   C39   0.328612  0.896583  0.251340  -0.197769
    C   C40   0.396901  0.893920  0.288119  0.144008
    C   C41   0.429940  0.854932  0.252890  -0.209758
    C   C42   0.394718  0.818129  0.181717  0.149370
    C   C43   0.326714  0.821576  0.144877  -0.542214
    C   C44   0.894667  0.403873  0.653562  -0.137480
    C   C45   0.845043  0.415740  0.603100  -0.142928
    C   C46   0.857592  0.477398  0.602691  0.247724
    C   C47   0.881902  0.502610  0.506064  0.661999
    C   C48   0.919279  0.527975  0.654121  -0.105876
    C   C49   0.968358  0.516451  0.705149  -0.185902
    C   C50   0.956342  0.454224  0.704586  -0.081981
    C   C51   0.739001  0.491913  0.547635  -0.212106
    C   C52   0.686547  0.505637  0.500522  0.169732
    C   C53   0.698785  0.519890  0.456525  -0.115643
    C   C54   0.763451  0.519583  0.460122  -0.212532
    C   C55   0.815493  0.504604  0.506417  0.130835
    C   C56   0.803313  0.490677  0.550609  -0.130419
    C   C57   0.623153  0.498259  0.338484  -0.156394
    C   C58   0.094115  0.245141  0.338169  -0.119395
    C   C59   0.574811  0.516240  0.292603  -0.175268
    C   C60   0.550228  0.575074  0.316287  -0.045667
    C   C61   0.574085  0.616011  0.385872  -0.118850
    C   C62   0.621802  0.597647  0.431770  -0.149493
    C   C63   0.646094  0.538366  0.408079  0.224694
    C   C64   0.889260  0.423451  0.251679  -0.197059
    C   C65   0.854432  0.387377  0.180616  0.117725
    C   C66   0.813673  0.319795  0.144826  -0.550505
    C   C67   0.808659  0.288534  0.181047  0.142682
    C   C68   0.845115  0.323978  0.252193  -0.176513
    C   C69   0.145379  0.305951  0.390001  -0.206791
    C   C70   0.885377  0.391709  0.287832  0.157433
    C   C71   0.709361  0.212220  0.931199  0.984145
    C   C72   0.776612  0.281621  0.069161  0.970253
    C   C73   0.704465  0.181107  0.820469  0.111080
    C   C74   0.670246  0.145053  0.749407  -0.204678
    C   C75   0.603033  0.103376  0.712622  0.365048
    C   C76   0.570719  0.097158  0.747517  -0.205878
    C   C77   0.605665  0.131662  0.818625  0.123385
    C   C78   0.672564  0.174300  0.855540  -0.558567
    C   C79   0.491635  0.615036  0.491876  0.433851
    C   C80   0.136000  0.369348  0.392335  0.309468
    C   C81   0.377017  0.495024  0.495914  0.632541
    C   C82   0.504849  0.378545  0.499954  0.667969
    C   C83   0.618799  0.503195  0.498107  0.660524
    C   C84   0.503380  0.121454  0.504382  0.689400
    C   C85   0.433749  0.931742  0.363795  0.633860
    C   C86   0.499181  0.879047  0.501245  0.695314
    C   C87   0.566381  0.066113  0.637196  0.560369
    C   C88   0.303440  0.536181  0.281764  -0.065045
    C   C89   0.365605  0.585903  0.332607  -0.268164
    C   C90   0.369391  0.639033  0.391893  0.344021
    C   C91   0.075880  0.371369  0.341481  -0.118646
    C   C92   0.309606  0.644723  0.398035  -0.167633
    C   C93   0.247489  0.594888  0.347323  -0.116244
    C   C94   0.244515  0.540314  0.289389  -0.134130
    C   C95   0.437268  0.758985  0.451719  -0.183975
    C   C96   0.497555  0.811863  0.500003  0.094880
    C   C97   0.555571  0.799492  0.544018  -0.151576
    C   C98   0.551936  0.734648  0.539739  -0.171661
    C   C99   0.492190  0.681206  0.490749  0.426415
    C   C100  0.434654  0.693031  0.445180  -0.226876
    C   C101  0.682718  0.844914  0.598955  -0.162496
    C   C102  0.025282  0.310297  0.288959  -0.181907
    C   C103  0.744282  0.894716  0.651591  -0.151983
    C   C104  0.743452  0.953267  0.704429  -0.061388
    C   C105  0.681050  0.962002  0.704573  -0.202294
    C   C106  0.619210  0.912944  0.651262  -0.104035
    C   C107  0.619923  0.854374  0.598149  0.288374
    C   C108  0.532180  0.221873  0.301388  -0.123836
    C   C109  0.510722  0.217679  0.344515  -0.152203
    C   C110  0.547057  0.264609  0.414330  0.196270
    C   C111  0.606229  0.314574  0.441057  -0.087983
    C   C112  0.628100  0.318110  0.397912  -0.166804
    H   H1    0.994193  0.199527  0.246522  0.095956
    H   H2    0.486980  0.798801  0.722731  0.096832
    H   H3    0.451067  0.746990  0.599864  0.062365
    H   H4    0.365475  0.633180  0.516066  0.087662
    H   H5    0.076405  0.697445  0.720873  0.129800
    H   H6    0.138428  0.759981  0.845954  0.047777
    H   H7    0.220355  0.582309  0.846270  0.037172
    H   H8    0.156426  0.519126  0.720869  0.111844
    H   H9    0.240828  0.864713  0.152679  0.032748
    H   H10   0.301874  0.926989  0.277827  0.127836
    H   H11   0.483186  0.851788  0.280622  0.130557
    H   H12   0.101338  0.195648  0.336798  0.109401
    H   H13   0.421574  0.787711  0.155388  0.033486
    H   H14   0.994980  0.445215  0.744540  0.096939
    H   H15   0.884952  0.355291  0.653423  0.112971
    H   H16   0.796491  0.376313  0.563479  0.083066
    H   H17   0.928683  0.577255  0.655340  0.078277
    H   H18   0.016017  0.556472  0.746032  0.137115
    H   H19   0.729412  0.481123  0.582153  0.132891
    H   H20   0.773255  0.530819  0.425934  0.126731
    H   H21   0.642427  0.452160  0.319694  0.111896
    H   H22   0.556428  0.484364  0.238054  0.124308
    H   H23   0.192754  0.303903  0.429133  0.124569
    H   H24   0.512607  0.589395  0.280349  0.082084
    H   H25   0.555569  0.662711  0.404372  0.073609
    H   H26   0.640838  0.630325  0.486362  0.100433
    H   H27   0.920991  0.476146  0.278577  0.137250
    H   H28   0.858897  0.413184  0.153588  0.041002
    H   H29   0.777599  0.235563  0.154286  0.037393
    H   H30   0.841398  0.298285  0.279583  0.107266
    H   H31   0.756899  0.213677  0.848073  0.045248
    H   H32   0.696196  0.150792  0.722950  0.110118
    H   H33   0.518281  0.064444  0.719532  0.107036
    H   H34   0.069032  0.420492  0.341788  0.084069
    H   H35   0.579401  0.125847  0.844801  0.041257
    H   H36   0.195772  0.501295  0.249553  0.101967
    H   H37   0.300871  0.494051  0.235838  0.096622
    H   H38   0.411530  0.582948  0.326181  0.135512
    H   H39   0.311599  0.687843  0.443095  0.083070
    H   H40   0.201048  0.598763  0.352885  0.109189
    H   H41   0.392349  0.768380  0.416607  0.123076
    H   H42   0.596782  0.725816  0.575446  0.083149
    H   H43   0.683675  0.798599  0.558027  0.097777
    H   H44   0.793316  0.887477  0.651798  0.116420
    H   H45   0.978998  0.311617  0.248369  0.136577
    H   H46   0.791828  0.991944  0.746148  0.095634
    H   H47   0.680806  0.007028  0.746913  0.114637
    H   H48   0.570518  0.919676  0.652029  0.068415
    H   H49   0.607919  0.275169  0.294324  0.098941
    H   H50   0.503213  0.185455  0.246657  0.110655
    H   H51   0.464829  0.177964  0.323323  0.104645
    H   H52   0.636150  0.350289  0.495901  0.096126
    H   H53   0.674784  0.356553  0.418759  0.132863
    H   H54   0.537672  0.153833  0.429443  0.132655
    H   H55   0.477178  0.348534  0.579590  0.126123
    H   H56   0.264147  0.390606  0.411658  0.114257
    H   H57   0.369757  0.255816  0.553656  0.124552
    H   H58   0.344561  0.255215  0.640658  0.109447
    H   H59   0.434295  0.241480  0.735789  0.095985
    H   H60   0.549369  0.229045  0.744119  0.111149
    H   H61   0.574178  0.227215  0.656042  0.055172
    H   H62   0.226255  0.596691  0.573463  0.125985
    H   H63   0.349987  0.623815  0.677735  0.098458
    H   H64   0.436010  0.737220  0.761425  0.118402
    N   N1    0.276798  0.694231  0.966500  -0.367840
    N   N2    0.310647  0.728849  0.034694  -0.355693
    N   N3    0.233865  0.802565  0.033621  -0.350083
    N   N4    0.200513  0.768454  0.965460  -0.370569
    N   N5    0.722349  0.225608  0.033841  -0.357598
    N   N6    0.688886  0.191545  0.965670  -0.367769
    N   N7    0.763850  0.267988  0.966540  -0.366016
    N   N8    0.796836  0.302470  0.034666  -0.355854
    O   O1    0.057430  0.496862  0.602832  -0.639040
    O   O2    0.524731  0.616577  0.551432  -0.636008
    O   O3    0.377775  0.462025  0.437459  -0.669957
    O   O4    0.435768  0.527516  0.554612  -0.656077
    O   O5    0.476426  0.377225  0.440484  -0.658712
    O   O6    0.528462  0.438101  0.557700  -0.697544
    O   O7    0.560338  0.473077  0.438748  -0.636168
    O   O8    0.617529  0.528798  0.556180  -0.719602
    O   O9    0.552721  0.088932  0.499767  -0.701433
    O   O10   0.451493  0.093059  0.505653  -0.690170
    O   O11   0.502539  0.944881  0.398452  -0.673701
    O   O12   0.051786  0.600866  0.602769  -0.694041
    O   O13   0.397743  0.951950  0.396632  -0.671855
    O   O14   0.553628  0.910176  0.505401  -0.690491
    O   O15   0.444689  0.906321  0.495424  -0.698086
    O   O16   0.602600  0.053076  0.604569  -0.661612
    O   O17   0.497522  0.046172  0.602598  -0.663650
    O   O18   0.084488  0.439082  0.490597  -0.692764
    O   O19   0.089944  0.547173  0.498720  -0.685512
    O   O20   0.939287  0.393993  0.397025  -0.638257
    O   O21   0.947568  0.497770  0.396834  -0.692747
    O   O22   0.911721  0.451004  0.508121  -0.688234
    O   O23   0.909298  0.551024  0.500095  -0.678299
    O   O24   0.462346  0.555085  0.434330  -0.580824
    Zn  Zn1   0.998115  0.429714  0.499854  1.287688
    Zn  Zn2   0.000032  0.564856  0.499727  1.301271
    Zn  Zn3   0.460269  0.457097  0.420013  1.261709
    Zn  Zn4   0.535189  0.536844  0.572715  1.305985
    Zn  Zn5   0.568416  0.999058  0.501939  1.300656
    Zn  Zn6   0.431944  0.999300  0.499432  1.299394
