data_DB0-m3_o96_o25_f0_fsc.sym.13_repeat
_audit_creation_date              2024-02-23
_audit_creation_method            'Materials Studio'
_symmetry_space_group_name_H-M    'P1'
_symmetry_Int_Tables_number       1
_symmetry_cell_setting            triclinic
loop_
_symmetry_equiv_pos_as_xyz
  x,y,z
_cell_length_a                    13.1059
_cell_length_b                    13.6644
_cell_length_c                    15.9477
_cell_angle_alpha                 94.5563
_cell_angle_beta                  90.0463
_cell_angle_gamma                 90.6220
loop_
_atom_site_label
_atom_site_type_symbol
_atom_site_fract_x
_atom_site_fract_y
_atom_site_fract_z
_atom_site_U_iso_or_equiv
_atom_site_adp_type
_atom_site_occupancy
C1     C     0.82752   0.06428   0.22179   0.00000  Uiso   1.00
C2     C     0.17248   0.93572   0.77821   0.00000  Uiso   1.00
C3     C     0.77331   0.11570   0.16791   0.00000  Uiso   1.00
C4     C     0.22669   0.88430   0.83209   0.00000  Uiso   1.00
C5     C     0.82425   0.10912   0.09222   0.00000  Uiso   1.00
C6     C     0.17575   0.89088   0.90778   0.00000  Uiso   1.00
N1     N     0.91135   0.05821   0.09949   0.00000  Uiso   1.00
N2     N     0.08865   0.94179   0.90051   0.00000  Uiso   1.00
C7     C     0.91417   0.03235   0.17975   0.00000  Uiso   1.00
C8     C     0.08583   0.96765   0.82025   0.00000  Uiso   1.00
C9     C     0.78622   0.13924   0.02079   0.00000  Uiso   1.00
C10    C     0.21378   0.86076   0.97921   0.00000  Uiso   1.00
C11    C     0.82326   0.10702   0.93609   0.00000  Uiso   1.00
C12    C     0.17674   0.89298   0.06391   0.00000  Uiso   1.00
C13    C     0.76286   0.09761   0.86480   0.00000  Uiso   1.00
C14    C     0.23714   0.90239   0.13520   0.00000  Uiso   1.00
C15    C     0.82109   0.05820   0.80040   0.00000  Uiso   1.00
C16    C     0.17891   0.94180   0.19960   0.00000  Uiso   1.00
C17    C     0.91765   0.04596   0.83349   0.00000  Uiso   1.00
C18    C     0.08235   0.95404   0.16652   0.00000  Uiso   1.00
N3     N     0.91829   0.07666   0.91623   0.00000  Uiso   1.00
N4     N     0.08171   0.92334   0.08377   0.00000  Uiso   1.00
C19    C     0.00837   0.01319   0.78581   0.00000  Uiso   1.00
C20    C     0.99163   0.98681   0.21419   0.00000  Uiso   1.00
H1     H     0.71430   0.17706   0.02372   0.00000  Uiso   1.00
H2     H     0.28570   0.82294   0.97628   0.00000  Uiso   1.00
H3     H     0.00963   0.02284   0.71910   0.00000  Uiso   1.00
H4     H     0.99037   0.97716   0.28090   0.00000  Uiso   1.00
H5     H     0.98149   0.08212   0.95595   0.00000  Uiso   1.00
H6     H     0.01851   0.91788   0.04405   0.00000  Uiso   1.00
C21    C     0.33772   0.87977   0.14651   0.00000  Uiso   1.00
C22    C     0.66228   0.12023   0.85350   0.00000  Uiso   1.00
C23    C     0.37892   0.89808   0.22601   0.00000  Uiso   1.00
C24    C     0.62108   0.10192   0.77399   0.00000  Uiso   1.00
C25    C     0.32185   0.94178   0.29210   0.00000  Uiso   1.00
C26    C     0.67815   0.05822   0.70790   0.00000  Uiso   1.00
C27    C     0.21976   0.96456   0.27920   0.00000  Uiso   1.00
C28    C     0.78025   0.03544   0.72080   0.00000  Uiso   1.00
C29    C     0.78838   0.04214   0.29822   0.00000  Uiso   1.00
C30    C     0.21162   0.95786   0.70178   0.00000  Uiso   1.00
C31    C     0.69301   0.07843   0.31973   0.00000  Uiso   1.00
C32    C     0.30699   0.92157   0.68027   0.00000  Uiso   1.00
C33    C     0.64213   0.13873   0.26749   0.00000  Uiso   1.00
C34    C     0.35787   0.86127   0.73251   0.00000  Uiso   1.00
C35    C     0.68099   0.15631   0.18994   0.00000  Uiso   1.00
C36    C     0.31901   0.84369   0.81006   0.00000  Uiso   1.00
H7     H     0.38419   0.84823   0.09563   0.00000  Uiso   1.00
H8     H     0.61581   0.15178   0.90437   0.00000  Uiso   1.00
H9     H     0.17411   0.99817   0.32981   0.00000  Uiso   1.00
H10    H     0.82589   0.00183   0.67019   0.00000  Uiso   1.00
H11    H     0.82737   0.99432   0.33818   0.00000  Uiso   1.00
H12    H     0.17263   0.00568   0.66182   0.00000  Uiso   1.00
H13    H     0.56719   0.16629   0.28392   0.00000  Uiso   1.00
H14    H     0.43281   0.83371   0.71608   0.00000  Uiso   1.00
H15    H     0.63726   0.19802   0.14811   0.00000  Uiso   1.00
H16    H     0.36275   0.80198   0.85189   0.00000  Uiso   1.00
H17    H     0.45822   0.88116   0.23578   0.00000  Uiso   1.00
H18    H     0.54178   0.11884   0.76422   0.00000  Uiso   1.00
O1     O     0.37263   0.05203   0.41095   0.00000  Uiso   1.00
O2     O     0.62737   0.94797   0.58905   0.00000  Uiso   1.00
O3     O     0.43497   0.89461   0.39762   0.00000  Uiso   1.00
O4     O     0.56503   0.10539   0.60238   0.00000  Uiso   1.00
C37    C     0.37455   0.96285   0.37323   0.00000  Uiso   1.00
C38    C     0.62545   0.03715   0.62677   0.00000  Uiso   1.00
O5     O     0.63741   0.95529   0.40888   0.00000  Uiso   1.00
O6     O     0.36259   0.04471   0.59113   0.00000  Uiso   1.00
O7     O     0.57529   0.11269   0.42779   0.00000  Uiso   1.00
O8     O     0.42471   0.88731   0.57221   0.00000  Uiso   1.00
C39    C     0.63773   0.04813   0.39248   0.00000  Uiso   1.00
C40    C     0.36227   0.95187   0.60752   0.00000  Uiso   1.00
Zn1    Zn    0.54000   0.89797   0.49017   0.00000  Uiso   1.00
Zn2    Zn    0.46000   0.10203   0.50983   0.00000  Uiso   1.00
C41    C     0.42117   0.50353   0.55386   0.00000  Uiso   1.00
C42    C     0.57883   0.49647   0.44614   0.00000  Uiso   1.00
C43    C     0.52873   0.54095   0.57064   0.00000  Uiso   1.00
C44    C     0.47127   0.45905   0.42937   0.00000  Uiso   1.00
H19    H     0.35825   0.50636   0.60041   0.00000  Uiso   1.00
H20    H     0.64175   0.49364   0.39959   0.00000  Uiso   1.00
H21    H     0.63728   0.40678   0.55804   0.00000  Uiso   1.00
H22    H     0.36272   0.59322   0.44196   0.00000  Uiso   1.00
N5     N     0.57713   0.77447   0.47994   0.00000  Uiso   1.00
N6     N     0.42287   0.22553   0.52007   0.00000  Uiso   1.00
C45    C     0.42421   0.55126   0.47009   0.00000  Uiso   1.00
C46    C     0.57579   0.44874   0.52991   0.00000  Uiso   1.00
C47    C     0.53230   0.58831   0.48921   0.00000  Uiso   1.00
C48    C     0.46770   0.41169   0.51079   0.00000  Uiso   1.00
C49    C     0.56250   0.69108   0.48277   0.00000  Uiso   1.00
C50    C     0.43750   0.30892   0.51724   0.00000  Uiso   1.00
O9     O     0.56193   0.58790   0.64673   0.00000  Uiso   1.00
H23    H     0.55564   0.53717   0.68748   0.00000  Uiso   1.00
O10    O     0.43807   0.41210   0.35327   0.00000  Uiso   1.00
H24    H     0.44436   0.46283   0.31252   0.00000  Uiso   1.00
