# Generated by REPEAT Assigner based on pymatgen
data_DB0-m2_o9_o24_f0_nbo.sym.83
_audit_creation_date              2022-05-24
_audit_creation_method            REPEAT_Assigner
_cell_length_a                    18.516802
_cell_length_b                    18.558264
_cell_length_c                    18.757276
_cell_angle_alpha                 109.182544
_cell_angle_beta                  109.717544
_cell_angle_gamma                 109.030031
_cell_volume                      4991.178463
_symmetry_space_group_name_H-M    P1
_symmetry_Int_Tables_number       1
loop_
    _symmetry_equiv_pos_site_id
    _symmetry_equiv_pos_as_xyz
    1  x,y,z
loop_
    _atom_site_type_symbol
    _atom_site_label
    _atom_site_fract_x
    _atom_site_fract_y
    _atom_site_fract_z
    _atom_type_partial_charge
    C   C1    0.874865  0.494778  0.881087  0.661473
    C   C2    0.050850  0.226695  0.118015  -0.119960
    C   C3    0.491343  0.700356  0.683605  -0.212926
    C   C4    0.495792  0.776806  0.683345  0.138600
    C   C5    0.491052  0.835603  0.747477  -0.237940
    C   C6    0.484292  0.821250  0.813111  0.064446
    C   C7    0.483040  0.747151  0.815176  -0.096585
    C   C8    0.583450  0.875052  0.647691  -0.091756
    C   C9    0.597162  0.898656  0.589085  -0.108374
    C   C10   0.534762  0.848634  0.502155  -0.140145
    C   C11   0.458693  0.775257  0.474117  -0.055181
    C   C12   0.445190  0.750955  0.532535  -0.181461
    C   C13   0.759210  0.201826  0.037851  0.043452
    C   C14   0.508486  0.800211  0.619514  0.099665
    C   C15   0.807629  0.918798  0.806769  0.060181
    C   C16   0.824550  0.941394  0.748175  0.044173
    C   C17   0.829759  0.018087  0.750720  -0.106571
    C   C18   0.815307  0.070903  0.809003  -0.087713
    C   C19   0.796933  0.047821  0.866014  -0.050758
    C   C20   0.794165  0.972728  0.865692  -0.167154
    C   C21   0.665136  0.068878  0.356829  0.170410
    C   C22   0.729501  0.073619  0.333445  0.024231
    C   C23   0.815033  0.141036  0.390065  -0.073329
    C   C24   0.676530  0.193599  0.004224  -0.066783
    C   C25   0.836780  0.204731  0.469123  -0.148893
    C   C26   0.772760  0.201468  0.491551  -0.075280
    C   C27   0.687285  0.133768  0.435820  -0.220299
    C   C28   0.661693  0.247485  0.971170  -0.113162
    C   C29   0.729939  0.306423  0.970503  -0.062745
    C   C30   0.812304  0.313399  0.002815  -0.116538
    C   C31   0.827584  0.260700  0.037510  0.015562
    C   C32   0.536994  0.242484  0.861665  -0.236591
    C   C33   0.459523  0.245561  0.834264  -0.089021
    C   C34   0.422595  0.255207  0.886983  -0.158201
    C   C35   0.881638  0.380481  0.003339  0.786655
    C   C36   0.463503  0.262170  0.967271  -0.047204
    C   C37   0.540929  0.259016  0.994532  -0.198823
    C   C38   0.577617  0.248009  0.941431  0.266844
    C   C39   0.758155  0.221447  0.687606  0.009393
    C   C40   0.774327  0.305130  0.705594  -0.176245
    C   C41   0.719514  0.334262  0.723638  0.109307
    C   C42   0.645418  0.277206  0.718302  -0.101237
    C   C43   0.628484  0.193026  0.698919  -0.140874
    C   C44   0.685422  0.165540  0.684672  -0.097892
    C   C45   0.670433  0.428937  0.682336  -0.157842
    C   C46   0.115741  0.500736  0.118963  0.508127
    C   C47   0.679844  0.509596  0.693352  -0.058522
    C   C48   0.754338  0.585099  0.766644  0.032445
    C   C49   0.816410  0.577787  0.825958  -0.176820
    C   C50   0.807854  0.497309  0.813377  0.026976
    C   C51   0.734363  0.422060  0.740106  -0.011439
    C   C52   0.847739  0.731735  0.794988  -0.188167
    C   C53   0.861400  0.812701  0.804921  -0.152498
    C   C54   0.797519  0.835900  0.803466  0.109212
    C   C55   0.723817  0.780700  0.800236  -0.156004
    C   C56   0.710351  0.699776  0.790752  -0.177589
    C   C57   0.111847  0.615712  0.998219  0.795306
    C   C58   0.770538  0.673476  0.784031  0.152682
    C   C59   0.997742  0.480094  0.719989  -0.153760
    C   C60   0.071451  0.541979  0.800127  -0.094206
    C   C61   0.085349  0.626113  0.840860  0.062543
    C   C62   0.027149  0.648938  0.799000  -0.142601
    C   C63   0.953488  0.587008  0.718676  -0.081351
    C   C64   0.938368  0.502428  0.679543  -0.058110
    C   C65   0.226082  0.763520  0.930314  -0.080207
    C   C66   0.304827  0.823317  0.006862  -0.162429
    C   C67   0.320771  0.813612  0.080003  0.182847
    C   C68   0.021156  0.233762  0.044149  -0.145807
    C   C69   0.257551  0.744949  0.075871  -0.274897
    C   C70   0.179730  0.684145  0.998753  -0.067018
    C   C71   0.164663  0.692384  0.925046  0.042420
    C   C72   0.464605  0.850718  0.191713  -0.225591
    C   C73   0.549142  0.912926  0.258571  -0.040372
    C   C74   0.572786  0.000652  0.295870  -0.028353
    C   C75   0.508871  0.024455  0.272575  -0.028181
    C   C76   0.424784  0.962414  0.204882  -0.261653
    C   C77   0.403758  0.876114  0.161773  0.120226
    C   C78   0.170909  0.458933  0.241478  -0.014206
    C   C79   0.951614  0.249835  0.020064  0.079247
    C   C80   0.246169  0.542670  0.324062  -0.123267
    C   C81   0.309306  0.510926  0.313920  0.218211
    C   C82   0.235078  0.427240  0.232327  0.004511
    C   C83   0.249625  0.471150  0.178888  -0.113823
    C   C84   0.325025  0.554942  0.261639  -0.105003
    C   C85   0.260602  0.586469  0.270656  -0.023220
    C   C86   0.186495  0.502814  0.189216  0.207930
    C   C87   0.497611  0.127417  0.124977  0.659156
    C   C88   0.607450  0.125463  0.003238  0.625972
    C   C89   0.485705  0.888232  0.882912  0.666234
    C   C90   0.911803  0.260371  0.070353  -0.021401
    C   C91   0.373024  0.891416  0.006832  0.756141
    C   C92   0.494302  0.632456  0.617803  0.771360
    C   C93   0.612033  0.511357  0.624710  0.651366
    C   C94   0.494457  0.389507  0.390182  0.595629
    C   C95   0.378664  0.512661  0.385438  0.573364
    C   C96   0.779420  0.290182  0.258364  -0.133654
    C   C97   0.701366  0.263214  0.259702  -0.179550
    C   C98   0.652054  0.304138  0.244593  0.167332
    C   C99   0.683661  0.374880  0.232310  -0.115336
    C   C100  0.761355  0.401359  0.230303  -0.127522
    C   C101  0.943690  0.255305  0.145759  -0.057529
    C   C102  0.809085  0.358821  0.242997  -0.047967
    C   C103  0.566952  0.340388  0.311479  -0.061782
    C   C104  0.494738  0.319079  0.323782  -0.106371
    C   C105  0.425200  0.232727  0.271741  0.015354
    C   C106  0.427132  0.173144  0.206006  -0.155456
    C   C107  0.499295  0.194773  0.194696  0.051300
    C   C108  0.571050  0.278518  0.249705  -0.099284
    C   C109  0.364189  0.191121  0.359119  -0.180636
    C   C110  0.293727  0.155217  0.370307  -0.117067
    C   C111  0.209528  0.125512  0.307306  -0.144210
    C   C112  0.012702  0.238339  0.169309  -0.152910
    C   C113  0.195765  0.131224  0.232880  -0.026557
    C   C114  0.266242  0.167506  0.221785  -0.222687
    C   C115  0.350799  0.198941  0.285587  0.243767
    C   C116  0.539296  0.699189  0.998128  -0.075060
    C   C117  0.545579  0.722084  0.936752  -0.120908
    C   C118  0.478360  0.729313  0.884262  0.198634
    C   C119  0.403841  0.711557  0.892067  -0.176806
    C   C120  0.397025  0.687217  0.952530  -0.126112
    C   C121  0.464891  0.681498  0.005843  -0.131088
    C   C122  0.485085  0.687061  0.750167  -0.007563
    Cl  Cl1   0.830440  0.870708  0.663867  -0.097634
    Cl  Cl2   0.703904  0.000618  0.229568  -0.112100
    Cu  Cu1   0.997351  0.438110  0.941417  0.878823
    Cu  Cu2   0.994549  0.558867  0.059326  0.964690
    Cu  Cu3   0.551559  0.004303  0.061757  0.891823
    Cu  Cu4   0.429061  0.009559  0.945375  0.968240
    Cu  Cu5   0.433562  0.452953  0.505325  0.921974
    Cu  Cu6   0.556846  0.570180  0.503389  0.905467
    H   H1    0.104216  0.212346  0.135788  0.159421
    H   H2    0.361900  0.257716  0.865576  0.112634
    H   H3    0.435054  0.270372  0.009087  0.082027
    H   H4    0.572798  0.265428  0.057794  0.137374
    H   H5    0.672296  0.099800  0.669982  0.073682
    H   H6    0.801790  0.199234  0.674457  0.057941
    H   H7    0.829318  0.347237  0.703996  0.109971
    H   H8    0.600513  0.298474  0.729472  0.091685
    H   H9    0.570423  0.148348  0.694692  0.100672
    H   H10   0.613943  0.369642  0.625491  0.131649
    H   H11   0.873166  0.636329  0.883449  0.099137
    H   H12   0.050640  0.223988  0.003463  0.084336
    H   H13   0.896689  0.713158  0.792892  0.162417
    H   H14   0.921748  0.857122  0.812265  0.101944
    H   H15   0.674704  0.799292  0.801979  0.128653
    H   H16   0.651222  0.656027  0.785783  0.119448
    H   H17   0.880531  0.453905  0.616726  0.067988
    H   H18   0.986707  0.414132  0.688688  0.119275
    H   H19   0.118848  0.524561  0.830470  0.083789
    H   H20   0.038901  0.715250  0.829462  0.082254
    H   H21   0.907521  0.604678  0.686142  0.091465
    H   H22   0.214853  0.769259  0.872511  0.117461
    H   H23   0.925437  0.248198  0.958570  0.064714
    H   H24   0.268977  0.738667  0.133427  0.140893
    H   H25   0.447952  0.782915  0.159062  0.137226
    H   H26   0.597720  0.893006  0.278792  0.086927
    H   H27   0.526001  0.092656  0.302208  0.085601
    H   H28   0.376700  0.982215  0.182496  0.111588
    H   H29   0.245156  0.572103  0.385326  0.058692
    H   H30   0.105449  0.420590  0.232424  0.022695
    H   H31   0.228283  0.362012  0.219197  0.004118
    H   H32   0.249415  0.440924  0.117008  0.060779
    H   H33   0.390376  0.595481  0.271425  0.055510
    H   H34   0.913561  0.262615  0.186048  0.097267
    H   H35   0.268430  0.652133  0.283976  0.030227
    H   H36   0.870153  0.379869  0.241728  0.068945
    H   H37   0.817545  0.257683  0.269779  0.104365
    H   H38   0.680046  0.211082  0.274386  0.134566
    H   H39   0.646598  0.408615  0.222312  0.088377
    H   H40   0.784957  0.455671  0.218975  0.102353
    H   H41   0.623053  0.405660  0.352299  0.104255
    H   H42   0.372552  0.106953  0.164831  0.102587
    H   H43   0.430041  0.213216  0.408046  0.113016
    H   H44   0.304458  0.149825  0.428220  0.112432
    H   H45   0.036350  0.233367  0.227679  0.101539
    H   H46   0.154221  0.097004  0.315885  0.113065
    H   H47   0.129584  0.106779  0.183011  0.060743
    H   H48   0.255108  0.171477  0.163131  0.103719
    H   H49   0.459412  0.662328  0.053128  0.104283
    H   H50   0.592241  0.694019  0.039438  0.093160
    H   H51   0.603406  0.734431  0.929843  0.076815
    H   H52   0.349831  0.714557  0.849440  0.089607
    H   H53   0.338101  0.671770  0.957644  0.118149
    H   H54   0.483381  0.629483  0.753292  0.075774
    H   H55   0.494631  0.894883  0.747379  0.111089
    H   H56   0.769150  0.157453  0.060405  0.056604
    H   H57   0.632102  0.914653  0.715859  0.082920
    H   H58   0.656764  0.956276  0.611121  0.131558
    H   H59   0.545189  0.867169  0.456043  0.081123
    H   H60   0.409934  0.737049  0.406165  0.097348
    H   H61   0.385353  0.693440  0.510307  0.102942
    H   H62   0.841772  0.035061  0.704397  0.086451
    H   H63   0.816716  0.129495  0.808795  0.095455
    H   H64   0.783484  0.087924  0.910361  0.049280
    H   H65   0.780095  0.955830  0.911216  0.106872
    H   H66   0.864811  0.145026  0.371382  0.098291
    H   H67   0.719927  0.349964  0.946579  0.072713
    H   H68   0.903675  0.258096  0.512845  0.111106
    H   H69   0.789602  0.252634  0.552615  0.120635
    H   H70   0.637668  0.131976  0.454333  0.108452
    H   H71   0.565190  0.234623  0.819888  0.150035
    H   H72   0.427794  0.240472  0.771381  0.105512
    O   O1    0.924057  0.463178  0.861171  -0.492351
    O   O2    0.458184  0.114416  0.045129  -0.581952
    O   O3    0.631136  0.108671  0.067926  -0.545328
    O   O4    0.526415  0.081062  0.936702  -0.544174
    O   O5    0.554773  0.931275  0.961757  -0.573796
    O   O6    0.419053  0.904111  0.863483  -0.596265
    O   O7    0.453002  0.900952  0.037968  -0.462419
    O   O8    0.350538  0.937547  0.972151  -0.649692
    O   O9    0.460419  0.553017  0.608156  -0.601028
    O   O10   0.531337  0.652369  0.572728  -0.517949
    O   O11   0.530850  0.444280  0.578534  -0.592148
    O   O12   0.887464  0.530437  0.961037  -0.588733
    O   O13   0.635068  0.577617  0.609432  -0.533867
    O   O14   0.425824  0.371200  0.402075  -0.470896
    O   O15   0.562910  0.469584  0.434331  -0.551267
    O   O16   0.355411  0.479877  0.431915  -0.633489
    O   O17   0.459518  0.544690  0.397691  -0.582647
    O   O18   0.892075  0.358843  0.934510  -0.595771
    O   O19   0.925084  0.461362  0.069039  -0.604485
    O   O20   0.070130  0.431783  0.040105  -0.573266
    O   O21   0.101987  0.568392  0.139120  -0.570036
    O   O22   0.102330  0.536198  0.966851  -0.579553
    O   O23   0.064668  0.637530  0.031406  -0.611770
    O   O24   0.529748  0.078281  0.143901  -0.518649
