# Generated by REPEAT Assigner based on pymatgen
data_DB0-m9_o2_o11_f0_sra.sym.28_sqe
_audit_creation_date              2022-05-24
_audit_creation_method            REPEAT_Assigner
_cell_length_a                    19.583366
_cell_length_b                    6.713459
_cell_length_c                    16.710126
_cell_angle_alpha                 90.000000
_cell_angle_beta                  108.691160
_cell_angle_gamma                 90.000000
_cell_volume                      2081.049939
_symmetry_space_group_name_H-M    P1
_symmetry_Int_Tables_number       1
loop_
    _symmetry_equiv_pos_site_id
    _symmetry_equiv_pos_as_xyz
    1  x,y,z
loop_
    _atom_site_type_symbol
    _atom_site_label
    _atom_site_fract_x
    _atom_site_fract_y
    _atom_site_fract_z
    _atom_type_partial_charge
    O  O1   0.582113  0.400391  0.467377  -0.630504
    O  O2   0.064618  0.615803  0.942987  -0.444392
    O  O3   0.397921  0.027899  0.425818  -0.565267
    O  O4   0.911702  0.961957  0.900840  -0.568456
    O  O5   0.459057  0.854238  0.580114  -0.479000
    O  O6   0.932245  0.114796  0.056571  -0.498927
    C  C1   0.388108  0.197641  0.383750  0.595650
    C  C2   0.882051  0.786838  0.883494  0.666128
    O  O7   0.536647  0.085777  0.410946  -0.386010
    O  O8   0.056950  0.955858  0.924944  -0.357995
    O  O9   0.595487  0.909270  0.564171  -0.444514
    O  O10  0.086364  0.108686  0.082333  -0.502820
    C  C3   0.587872  0.225906  0.431719  0.559818
    C  C4   0.083251  0.783381  0.916497  0.359684
    O  O11  0.433676  0.349476  0.398194  -0.545454
    O  O12  0.910459  0.620707  0.918074  -0.575721
    O  O13  0.506470  0.220946  0.554236  -0.648134
    O  O14  0.007095  0.787241  0.052509  -0.536442
    V  V1   0.496181  0.943638  0.489347  1.568991
    V  V2   0.996619  0.063661  0.989349  1.434571
    O  O15  0.564868  0.591936  0.607124  -0.559120
    O  O16  0.085910  0.449877  0.099060  -0.568793
    C  C5   0.610089  0.743682  0.610115  0.570601
    C  C6   0.115049  0.274678  0.116941  0.671140
    O  O17  0.413487  0.533791  0.535495  -0.531641
    O  O18  0.940747  0.455281  0.075681  -0.493788
    C  C7   0.417356  0.698147  0.579706  0.531516
    C  C8   0.914754  0.281620  0.084134  0.488412
    V  V3   0.499524  0.444449  0.508278  1.579674
    V  V4   0.000658  0.563112  0.010690  1.446681
    O  O19  0.491032  0.716789  0.443632  -0.636205
    O  O20  0.990202  0.291363  0.947599  -0.496956
    C  C9   0.313710  0.898872  0.713683  -0.169911
    C  C10  0.800838  0.080316  0.205912  -0.212581
    H  H1   0.306370  0.039604  0.741129  0.107881
    H  H2   0.785998  0.935825  0.223151  0.115877
    C  C11  0.360470  0.887825  0.667266  -0.106914
    C  C12  0.845109  0.089720  0.156385  -0.109079
    H  H3   0.388500  0.019757  0.657609  0.121488
    H  H4   0.863167  0.954042  0.134673  0.123347
    C  C13  0.370241  0.709488  0.631699  0.026827
    C  C14  0.867198  0.271496  0.135568  0.073558
    C  C15  0.334568  0.541181  0.644282  -0.089323
    C  C16  0.844778  0.444184  0.164025  -0.134225
    H  H5   0.342301  0.401184  0.616396  0.117450
    H  H6   0.861921  0.587017  0.147441  0.125572
    C  C17  0.289242  0.550902  0.692579  -0.205173
    C  C18  0.799956  0.435438  0.212920  -0.239478
    H  H7   0.261195  0.418714  0.701824  0.141427
    H  H8   0.781769  0.572789  0.232797  0.182939
    C  C19  0.277896  0.730484  0.726392  0.137349
    C  C20  0.777719  0.253291  0.234340  0.207158
    C  C21  0.211441  0.578168  0.814060  -0.058937
    C  C22  0.722566  0.406353  0.333814  -0.034718
    H  H9   0.236084  0.436262  0.809809  0.096196
    H  H10  0.752246  0.541873  0.334188  0.066188
    C  C23  0.165056  0.594620  0.860925  -0.144044
    C  C24  0.677369  0.396747  0.382262  -0.094449
    H  H11  0.153635  0.465462  0.893087  0.124610
    H  H12  0.671434  0.525476  0.418206  0.083435
    C  C25  0.133680  0.775225  0.867935  0.081716
    C  C26  0.639565  0.224859  0.384826  -0.007870
    C  C27  0.149752  0.941875  0.827561  -0.112097
    C  C28  0.649159  0.059562  0.340156  -0.108411
    C  C29  0.196078  0.923566  0.780981  -0.140438
    C  C30  0.693018  0.070863  0.290222  -0.053505
    H  H13  0.207210  0.053019  0.748868  0.152677
    H  H14  0.697892  0.941057  0.254473  0.101514
    C  C31  0.227620  0.743646  0.774693  0.022043
    C  C32  0.730096  0.243797  0.286619  -0.039471
    C  C33  0.717015  0.912638  0.696960  -0.019053
    C  C34  0.209545  0.084407  0.216523  -0.027278
    C  C35  0.676084  0.749246  0.682667  -0.273440
    C  C36  0.182517  0.261818  0.187084  -0.319950
    H  H15  0.699696  0.039272  0.655098  0.087344
    H  H16  0.180225  0.950867  0.189068  0.109738
    H  H17  0.689697  0.622064  0.724468  0.167701
    H  H18  0.208467  0.397921  0.216058  0.182857
    C  C37  0.784238  0.928647  0.768529  -0.042955
    C  C38  0.276610  0.065947  0.287912  -0.042377
    C  C39  0.814204  0.770098  0.813998  -0.290109
    C  C40  0.321973  0.218431  0.312177  -0.237879
    H  H19  0.811026  0.071753  0.782873  0.123866
    H  H20  0.290152  0.924143  0.320138  0.124147
    H  H21  0.790099  0.624290  0.798981  0.171196
    H  H22  0.311445  0.358531  0.278481  0.149817
    C  C41  0.118922  0.140267  0.829799  0.662241
    O  O21  0.103277  0.196838  0.890917  -0.457919
    O  O22  0.113724  0.272073  0.763836  -0.618163
    H  H23  0.091988  0.402625  0.773923  0.404278
    C  C42  0.617392  0.866726  0.347811  0.657332
    O  O23  0.619137  0.732879  0.299210  -0.500122
    O  O24  0.593338  0.827132  0.415766  -0.686538
    H  H24  0.583051  0.679687  0.416539  0.523910
