# Generated by REPEAT Assigner based on pymatgen
data_DB0-m29_o90_o101_f0_pts.sym.110
_audit_creation_date              2022-05-24
_audit_creation_method            REPEAT_Assigner
_cell_length_a                    16.757780
_cell_length_b                    17.021007
_cell_length_c                    11.292147
_cell_angle_alpha                 108.356452
_cell_angle_beta                  95.382375
_cell_angle_gamma                 107.699870
_cell_volume                      2847.588660
_symmetry_space_group_name_H-M    P1
_symmetry_Int_Tables_number       1
loop_
    _symmetry_equiv_pos_site_id
    _symmetry_equiv_pos_as_xyz
    1  x,y,z
loop_
    _atom_site_type_symbol
    _atom_site_label
    _atom_site_fract_x
    _atom_site_fract_y
    _atom_site_fract_z
    _atom_type_partial_charge
    C   C1   0.808575  0.008018  0.157919  0.228463
    C   C2   0.728096  0.999962  0.100408  -0.205914
    C   C3   0.716052  0.003828  0.979556  0.143585
    C   C4   0.782368  0.011320  0.915218  -0.252248
    C   C5   0.860985  0.011663  0.967578  0.152168
    C   C6   0.874071  0.010935  0.089833  -0.234401
    C   C7   0.926056  0.011602  0.898699  0.097764
    C   C8   0.004191  0.011110  0.953224  0.150397
    C   C9   0.018076  0.014267  0.077213  -0.374432
    C   C10  0.952547  0.012626  0.143540  0.281191
    C   C11  0.069684  0.009790  0.886723  -0.259104
    C   C12  0.146054  0.007696  0.941032  0.271385
    C   C13  0.159519  0.008413  0.063986  -0.164307
    C   C14  0.097406  0.019428  0.135902  0.364442
    C   C15  0.209476  0.006619  0.870979  -0.187922
    C   C16  0.288530  0.008723  0.922930  -0.065758
    C   C17  0.301086  0.005699  0.044454  0.082852
    C   C18  0.235658  0.000312  0.111299  -0.072136
    H   H1   0.768497  0.012255  0.820685  0.147916
    H   H2   0.062972  0.009125  0.790600  0.095027
    H   H3   0.197349  0.006679  0.775376  0.140392
    H   H4   0.960825  0.006258  0.234792  -0.117935
    O   O1   0.601348  0.028954  0.156688  -0.508270
    C   C19  0.657607  0.991302  0.169866  0.602627
    O   O2   0.470742  0.825632  0.155883  -0.515653
    O   O3   0.649564  0.944498  0.243504  -0.482531
    O   O4   0.506470  0.927760  0.356212  -0.476119
    C   C20  0.484470  0.844749  0.279735  0.522896
    Fe  Fe1  0.515945  0.010872  0.264326  1.405341
    O   O5   0.399846  0.957724  0.148437  -0.530757
    O   O6   0.446293  0.097166  0.147377  -0.494264
    C   C21  0.385683  0.019240  0.112310  0.562098
    O   O7   0.552284  0.132816  0.397037  -0.610869
    O   O8   0.424705  0.069951  0.443046  -0.568242
    C   C22  0.493727  0.139204  0.465184  0.620251
    O   O9   0.451501  0.887901  0.628689  -0.668114
    O   O10  0.582969  0.935712  0.583949  -0.570499
    C   C23  0.507170  0.874174  0.557617  0.664229
    O   O11  0.624848  0.050395  0.859917  -0.655568
    O   O12  0.564487  0.925481  0.900700  -0.498227
    C   C24  0.632110  0.993774  0.913012  0.628477
    O   O13  0.340708  0.017176  0.733393  -0.527509
    O   O14  0.516523  0.094122  0.671400  -0.461138
    C   C25  0.506960  0.167206  0.741059  0.507409
    O   O15  0.428243  0.003380  0.884906  -0.514699
    C   C26  0.355231  0.010518  0.845433  0.592460
    O   O16  0.498232  0.178586  0.858917  -0.509973
    Fe  Fe2  0.504431  0.009995  0.761786  1.465258
    C   C27  0.503085  0.224387  0.561097  0.026651
    C   C28  0.502574  0.292344  0.519193  -0.076278
    H   H5   0.497285  0.280553  0.418495  0.104892
    C   C29  0.501938  0.371664  0.601982  -0.341705
    C   C30  0.507666  0.384582  0.730740  0.194592
    C   C31  0.509743  0.317450  0.772893  -0.109742
    H   H6   0.514553  0.329800  0.873638  0.096850
    C   C32  0.506243  0.236591  0.689488  0.010465
    N   N1   0.453021  0.493875  0.606590  -0.248980
    N   N2   0.446301  0.555300  0.562436  -0.389794
    C   C33  0.479399  0.563687  0.461241  1.003190
    N   N3   0.515955  0.506164  0.401602  -0.343537
    N   N4   0.522637  0.444537  0.445878  -0.260688
    C   C34  0.493225  0.439147  0.551134  0.765595
    C   C35  0.467986  0.622144  0.288846  0.132176
    H   H7   0.459691  0.557853  0.220457  0.022322
    C   C36  0.468869  0.689862  0.245924  -0.176017
    H   H8   0.461745  0.676357  0.144660  0.150905
    C   C37  0.480626  0.773604  0.330606  0.064539
    C   C38  0.489520  0.787354  0.460277  -0.037855
    C   C39  0.487960  0.719226  0.502809  0.259891
    C   C40  0.477029  0.635871  0.417228  -0.619659
    S   S1   0.829000  0.022187  0.324065  0.009083
    C   C41  0.859134  0.141499  0.375308  -0.125871
    H   H9   0.883697  0.171168  0.480061  0.092601
    H   H10  0.802471  0.158673  0.351533  0.064531
    H   H11  0.910380  0.168094  0.328025  0.041968
    S   S2   0.517652  0.488226  0.848535  -0.097320
    C   C42  0.633734  0.524351  0.884014  -0.012523
    H   H12  0.660658  0.597298  0.932522  0.067094
    H   H13  0.656989  0.506277  0.794027  0.021054
    H   H14  0.654809  0.492885  0.947237  0.036969
    S   S3   0.511876  0.745551  0.671776  0.074290
    C   C43  0.623791  0.758832  0.674418  -0.019237
    H   H15  0.663698  0.811868  0.764855  0.035609
    H   H16  0.643575  0.778101  0.593613  0.027135
    H   H17  0.633209  0.695873  0.667103  0.026546
    S   S4   0.908484  0.010243  0.738413  -0.176472
    C   C44  0.949122  0.130157  0.791824  0.159686
    H   H18  0.005729  0.152379  0.750952  -0.002035
    H   H19  0.968392  0.158704  0.897397  -0.030471
    H   H20  0.898300  0.153042  0.760981  0.023486
    S   S5   0.250826  0.973245  0.251068  0.177896
    C   C45  0.189214  0.856809  0.164695  -0.045639
    H   H21  0.119812  0.845590  0.155596  0.013002
    H   H22  0.206611  0.817379  0.217526  0.084315
    H   H23  0.204367  0.835717  0.068745  0.059147
    S   S6   0.124013  0.061817  0.307800  -0.048952
    C   C46  0.153079  0.175807  0.317452  -0.097147
    H   H24  0.193706  0.220152  0.412750  0.089549
    H   H25  0.094453  0.192047  0.303576  0.069732
    H   H26  0.190118  0.185697  0.243692  0.054119
