# Generated by REPEAT Assigner based on pymatgen
data_DB0-m3_o21_o150_f0_fsc.sym.31
_audit_creation_date              2022-05-24
_audit_creation_method            REPEAT_Assigner
_cell_length_a                    12.512522
_cell_length_b                    8.550126
_cell_length_c                    15.035581
_cell_angle_alpha                 90.000000
_cell_angle_beta                  96.304982
_cell_angle_gamma                 90.000000
_cell_volume                      1598.831572
_symmetry_space_group_name_H-M    P1
_symmetry_Int_Tables_number       1
loop_
    _symmetry_equiv_pos_site_id
    _symmetry_equiv_pos_as_xyz
    1  x,y,z
loop_
    _atom_site_type_symbol
    _atom_site_label
    _atom_site_fract_x
    _atom_site_fract_y
    _atom_site_fract_z
    _atom_type_partial_charge
    H   H1   0.048055  0.993600  0.563938  0.153445
    H   H2   0.951987  0.993473  0.436071  0.153151
    C   C1   0.024137  0.133139  0.676489  0.068784
    C   C2   0.975942  0.853892  0.323548  0.065219
    C   C3   0.975923  0.133084  0.323551  0.066228
    C   C4   0.024029  0.853947  0.676418  0.063410
    C   C5   0.014126  0.133711  0.766902  -0.339268
    C   C6   0.986142  0.853295  0.233178  -0.335166
    C   C7   0.985946  0.133719  0.233145  -0.336160
    C   C8   0.013771  0.853287  0.766774  -0.335047
    H   H3   0.007010  0.243063  0.801854  0.123723
    H   H4   0.993414  0.743928  0.198276  0.122959
    H   H5   0.993099  0.243095  0.198225  0.123126
    H   H6   0.006444  0.743896  0.801639  0.122837
    C   C9   0.017722  0.993427  0.813217  0.362795
    C   C10  0.982250  0.993489  0.186780  0.360281
    C   C11  0.036299  0.993560  0.633632  -0.266430
    C   C12  0.963727  0.993482  0.366374  -0.266174
    C   C13  0.911199  0.993224  0.938133  -0.055755
    C   C14  0.088760  0.994034  0.061861  -0.056829
    H   H7   0.842759  0.992959  0.887632  0.084942
    H   H8   0.157205  0.994245  0.112357  0.085161
    C   C15  0.896933  0.993323  0.028086  -0.164179
    C   C16  0.103024  0.993932  0.971909  -0.163578
    C   C17  0.987837  0.993485  0.090404  -0.000244
    C   C18  0.012124  0.993317  0.909591  -0.001557
    C   C19  0.647637  0.493474  0.487238  0.120997
    C   C20  0.352379  0.493523  0.512765  0.121227
    Zn  Zn1  0.881047  0.493489  0.501219  1.084375
    Zn  Zn2  0.118970  0.493519  0.498783  1.087969
    N   N1   0.259451  0.493532  0.499837  -0.059741
    N   N2   0.740565  0.493469  0.500165  -0.058469
    C   C21  0.467428  0.493508  0.532836  -0.061802
    C   C22  0.532588  0.493486  0.467166  -0.062195
    O   O1   0.103062  0.662721  0.589680  -0.710310
    O   O2   0.896951  0.324307  0.410312  -0.708606
    O   O3   0.896930  0.662640  0.410286  -0.709697
    O   O4   0.103088  0.324388  0.589726  -0.709279
    O   O5   0.919657  0.656841  0.596075  -0.688872
    O   O6   0.080353  0.330156  0.403930  -0.688800
    O   O7   0.080335  0.656805  0.403893  -0.689603
    O   O8   0.919688  0.330192  0.596106  -0.688271
    C   C23  0.016018  0.711873  0.622222  0.826931
    C   C24  0.983980  0.275160  0.377756  0.824030
    C   C25  0.983965  0.711794  0.377729  0.825785
    C   C26  0.016069  0.275237  0.622297  0.822961
    C   C27  0.785071  0.993423  0.051828  0.596556
    O   O9   0.711217  0.996206  0.991786  -0.477177
    C   C28  0.756541  0.989447  0.145532  -0.373844
    H   H9   0.786142  0.880647  0.179595  0.113475
    H   H10  0.667620  0.988758  0.142909  0.106322
    H   H11  0.785521  0.095872  0.182435  0.114113
    C   C29  0.214879  0.994466  0.948159  0.597243
    O   O10  0.288720  0.999162  0.008168  -0.476982
    C   C30  0.243420  0.987992  0.854501  -0.376611
    H   H12  0.213683  0.878457  0.821348  0.113981
    H   H13  0.332340  0.986983  0.857139  0.106966
    H   H14  0.214575  0.093577  0.816707  0.115049
    C   C31  0.493526  0.493479  0.370619  0.602571
    O   O11  0.560440  0.493466  0.317494  -0.444668
    C   C32  0.377733  0.493487  0.333765  -0.327590
    H   H15  0.337289  0.385763  0.353919  0.101200
    H   H16  0.373235  0.493476  0.259690  0.130703
    H   H17  0.337300  0.601228  0.353908  0.101132
    C   C33  0.506490  0.493516  0.629383  0.602479
    O   O12  0.439575  0.493533  0.682509  -0.444728
    C   C34  0.622283  0.493503  0.666237  -0.327643
    H   H18  0.662714  0.385762  0.646093  0.101234
    H   H19  0.626780  0.493513  0.740312  0.130834
    H   H20  0.662729  0.601227  0.646084  0.101082
