# Generated by REPEAT Assigner based on pymatgen
data_DB0-m29_o81_o1530_f0_pts.sym.42
_audit_creation_date              2022-05-24
_audit_creation_method            REPEAT_Assigner
_cell_length_a                    15.654127
_cell_length_b                    14.292807
_cell_length_c                    13.363044
_cell_angle_alpha                 86.785323
_cell_angle_beta                  87.104007
_cell_angle_gamma                 113.598495
_cell_volume                      2726.807804
_symmetry_space_group_name_H-M    P1
_symmetry_Int_Tables_number       1
loop_
    _symmetry_equiv_pos_site_id
    _symmetry_equiv_pos_as_xyz
    1  x,y,z
loop_
    _atom_site_type_symbol
    _atom_site_label
    _atom_site_fract_x
    _atom_site_fract_y
    _atom_site_fract_z
    _atom_type_partial_charge
    C   C1   0.870239  0.995358  0.889471  -0.287038
    C   C2   0.272538  0.984733  0.936305  0.054468
    C   C3   0.184130  0.972006  0.911009  -0.201410
    C   C4   0.117435  0.972799  0.982492  0.128389
    C   C5   0.033109  0.968543  0.952666  -0.220146
    C   C6   0.966381  0.976469  0.020784  -0.033018
    C   C7   0.789592  0.000818  0.860931  -0.087645
    C   C8   0.718097  0.989942  0.930608  0.030799
    C   C9   0.883423  0.981559  0.990355  0.219240
    C   C10  0.814136  0.978388  0.061986  0.022715
    C   C11  0.729339  0.978733  0.032436  -0.056469
    C   C12  0.291593  0.993020  0.037039  -0.065242
    C   C13  0.222634  0.987749  0.108559  -0.272000
    C   C14  0.135922  0.980365  0.081675  0.207747
    C   C15  0.068224  0.981996  0.152149  -0.178093
    C   C16  0.983490  0.979601  0.121607  0.159740
    C   C17  0.916118  0.982031  0.191341  -0.176920
    C   C18  0.832747  0.980293  0.162264  -0.115996
    H   H1   0.922313  0.006768  0.829124  0.153392
    H   H2   0.167713  0.965770  0.833500  0.147992
    H   H3   0.022188  0.957926  0.874693  0.148037
    H   H4   0.782046  0.010698  0.781576  0.158169
    H   H5   0.240767  0.994592  0.185378  0.218857
    H   H6   0.925646  0.984786  0.270681  0.114388
    H   H7   0.785275  0.985116  0.220906  0.132128
    O   O1   0.611403  0.034511  0.096658  -0.550001
    C   C19  0.653612  0.971616  0.107144  0.502487
    O   O2   0.432958  0.780288  0.241253  -0.498824
    O   O3   0.625875  0.900051  0.181857  -0.443228
    O   O4   0.494024  0.923073  0.328413  -0.636213
    C   C20  0.455245  0.822837  0.326036  0.680273
    Fe  Fe1  0.513998  0.015751  0.205570  1.480095
    O   O5   0.389683  0.951798  0.147759  -0.601108
    O   O6   0.453589  0.100491  0.048182  -0.502844
    C   C21  0.383483  0.011793  0.072915  0.777741
    O   O7   0.557353  0.158154  0.250110  -0.682520
    O   O8   0.401259  0.113582  0.274232  -0.591109
    C   C22  0.486971  0.178445  0.284749  0.694907
    O   O9   0.441881  0.890666  0.698039  -0.598551
    O   O10  0.581801  0.878237  0.697985  -0.541362
    C   C23  0.494680  0.841781  0.674834  0.614541
    O   O11  0.640064  0.047246  0.808320  -0.623456
    O   O12  0.549937  0.923922  0.929395  -0.517684
    C   C24  0.632479  0.990344  0.891671  0.683902
    O   O13  0.314386  0.961635  0.765981  -0.479733
    O   O14  0.555512  0.131420  0.641495  -0.646737
    C   C25  0.507613  0.188658  0.637447  0.625567
    O   O15  0.430971  0.021214  0.870534  -0.545808
    C   C26  0.341738  0.987627  0.855333  0.564097
    O   O16  0.436968  0.170247  0.703629  -0.497893
    Fe  Fe2  0.516266  0.023869  0.754766  1.465710
    C   C27  0.470908  0.625023  0.514854  0.125767
    C   C28  0.480347  0.680145  0.599468  0.075162
    C   C29  0.503135  0.645031  0.687814  -0.181311
    C   C30  0.519380  0.558114  0.693293  -0.113514
    C   C31  0.507618  0.498885  0.612262  0.146397
    C   C32  0.482525  0.531599  0.522461  0.015719
    C   C33  0.523090  0.408820  0.620773  -0.115931
    C   C34  0.509207  0.347629  0.539814  -0.120593
    C   C35  0.488134  0.382741  0.449488  0.391790
    C   C36  0.472889  0.471490  0.441858  -0.326399
    C   C37  0.517690  0.253316  0.544559  0.078641
    C   C38  0.519895  0.207017  0.457439  -0.215310
    C   C39  0.501686  0.243724  0.367976  0.162357
    C   C40  0.481530  0.329037  0.364787  -0.370829
    C   C41  0.456090  0.668842  0.424121  -0.176833
    C   C42  0.448085  0.761994  0.420679  -0.057217
    C   C43  0.448986  0.809079  0.507445  -0.086691
    C   C44  0.468299  0.771299  0.595521  -0.035003
    H   H8   0.509519  0.684569  0.755315  0.160840
    H   H9   0.539416  0.538765  0.764694  0.094507
    H   H10  0.524907  0.133685  0.460702  0.163432
    H   H11  0.462572  0.354770  0.295057  0.155191
    H   H12  0.452819  0.490665  0.370537  0.174316
    H   H13  0.457540  0.637380  0.353236  0.141274
    H   H14  0.444764  0.882766  0.505106  0.145505
    C   C45  0.571761  0.391025  0.706702  0.134934
    C   C46  0.525681  0.356079  0.801224  0.080924
    C   C47  0.573179  0.341285  0.880495  -0.401735
    C   C48  0.666910  0.360797  0.866777  0.431033
    O   O17  0.710398  0.345086  0.946761  -0.246739
    C   C49  0.803215  0.361614  0.943090  0.029492
    C   C50  0.713200  0.395796  0.771984  -0.255060
    C   C51  0.665587  0.410786  0.692798  -0.186717
    H   H15  0.452268  0.340593  0.813221  0.069427
    H   H16  0.536671  0.314272  0.954141  0.187488
    H   H17  0.820415  0.342667  0.018992  0.077059
    H   H18  0.847516  0.443372  0.919961  0.027827
    H   H19  0.817288  0.311452  0.890133  0.034988
    H   H20  0.786509  0.412362  0.757308  0.146277
    H   H21  0.702318  0.438614  0.619333  0.137789
    C   C52  0.088429  0.992530  0.257814  0.226679
    C   C53  0.070042  0.906943  0.322502  -0.113742
    C   C54  0.089565  0.917567  0.421727  -0.337895
    C   C55  0.127620  0.013456  0.457259  0.432044
    O   O18  0.145680  0.020082  0.555015  -0.315325
    C   C56  0.183618  0.110752  0.599223  0.078612
    C   C57  0.146077  0.099480  0.391921  -0.189866
    C   C58  0.126436  0.088584  0.292737  -0.235413
    H   H22  0.040333  0.831513  0.295449  0.114593
    H   H23  0.075017  0.850220  0.472141  0.156778
    H   H24  0.191070  0.094195  0.679571  0.072713
    H   H25  0.136809  0.151856  0.594669  -0.006822
    H   H26  0.253920  0.158877  0.562081  0.032888
    H   H27  0.175802  0.176147  0.415881  0.121518
    H   H28  0.140998  0.155758  0.242064  0.130646
