# Generated by REPEAT Assigner based on pymatgen
data_DB0-m3_o19_o24_f0_nbo.sym.17
_audit_creation_date              2022-05-24
_audit_creation_method            REPEAT_Assigner
_cell_length_a                    23.821668
_cell_length_b                    21.611785
_cell_length_c                    23.830366
_cell_angle_alpha                 90.000000
_cell_angle_beta                  90.000000
_cell_angle_gamma                 90.000000
_cell_volume                      12268.558387
_symmetry_space_group_name_H-M    P1
_symmetry_Int_Tables_number       1
loop_
    _symmetry_equiv_pos_site_id
    _symmetry_equiv_pos_as_xyz
    1  x,y,z
loop_
    _atom_site_type_symbol
    _atom_site_label
    _atom_site_fract_x
    _atom_site_fract_y
    _atom_site_fract_z
    _atom_type_partial_charge
    O   O1    0.550105  0.499580  0.916813  -0.693815
    O   O2    0.552930  0.501677  0.084103  -0.681460
    O   O3    0.050105  0.999580  0.416813  -0.693870
    O   O4    0.052930  0.001677  0.584103  -0.681467
    O   O5    0.453091  0.499962  0.917142  -0.712298
    O   O6    0.455936  0.501687  0.084354  -0.715362
    O   O7    0.953091  0.999962  0.417142  -0.712305
    O   O8    0.955936  0.001687  0.584354  -0.715349
    C   C1    0.501466  0.499471  0.890941  0.916719
    C   C2    0.504457  0.501998  0.110263  0.908159
    C   C3    0.001466  0.999471  0.390941  0.916788
    C   C4    0.004457  0.001998  0.610263  0.908151
    O   O9    0.554628  0.409394  0.002286  -0.608400
    O   O10   0.548237  0.594329  0.000454  -0.645012
    O   O11   0.054628  0.909394  0.502286  -0.608385
    O   O12   0.048237  0.094329  0.500454  -0.644997
    O   O13   0.457842  0.407771  0.000665  -0.694147
    O   O14   0.451432  0.591363  0.999228  -0.674834
    O   O15   0.957842  0.907771  0.500665  -0.694140
    O   O16   0.951432  0.091363  0.499228  -0.674823
    C   C5    0.506735  0.379696  0.001587  0.355760
    C   C6    0.499185  0.621682  0.999324  0.391574
    C   C7    0.006735  0.879696  0.501587  0.355744
    C   C8    0.999185  0.121682  0.499324  0.391583
    Zn  Zn1   0.566630  0.502471  0.000188  1.274306
    Zn  Zn2   0.066630  0.002471  0.500188  1.274304
    Zn  Zn3   0.439426  0.498947  0.001019  1.334013
    Zn  Zn4   0.939426  0.998947  0.501019  1.333999
    C   C9    0.480085  0.271774  0.956274  0.043271
    C   C10   0.474018  0.729338  0.045507  -0.061855
    C   C11   0.480923  0.271456  0.047175  0.046889
    C   C12   0.464479  0.727926  0.955811  -0.004886
    C   C13   0.980085  0.771774  0.456274  0.043232
    C   C14   0.974018  0.229338  0.545507  -0.061287
    C   C15   0.980923  0.771456  0.547175  0.046826
    C   C16   0.964479  0.227926  0.455811  -0.004163
    C   C17   0.453451  0.232394  0.001820  -0.172165
    C   C18   0.440881  0.767298  0.003238  -0.089015
    C   C19   0.953451  0.732394  0.501820  -0.171984
    C   C20   0.940881  0.267298  0.503238  -0.090150
    C   C21   0.505168  0.191286  0.001244  0.356308
    C   C22   0.490884  0.810975  0.997478  0.468099
    C   C23   0.005168  0.691286  0.501244  0.356339
    C   C24   0.990884  0.310975  0.497478  0.469862
    C   C25   0.531849  0.230639  0.955455  -0.124224
    C   C26   0.523992  0.772803  0.039949  -0.081385
    C   C27   0.532709  0.230300  0.046699  -0.127163
    C   C28   0.514398  0.771457  0.949759  -0.163487
    C   C29   0.031849  0.730639  0.455455  -0.124278
    C   C30   0.023992  0.272803  0.539949  -0.082098
    C   C31   0.032709  0.730300  0.546699  -0.127176
    C   C32   0.014398  0.271457  0.449759  -0.164450
    C   C33   0.559622  0.269452  0.000936  -0.087772
    C   C34   0.547443  0.733969  0.992341  -0.002180
    C   C35   0.059622  0.769452  0.500936  -0.087758
    C   C36   0.047443  0.233969  0.492341  -0.001624
    C   C37   0.507706  0.310675  0.001586  0.253769
    C   C38   0.497512  0.690613  0.998207  0.215836
    C   C39   0.007706  0.810675  0.501586  0.253794
    C   C40   0.997512  0.190613  0.498207  0.215386
    C   C41   0.500994  0.499170  0.830762  -0.247791
    C   C42   0.504119  0.502497  0.170429  -0.252051
    C   C43   0.000994  0.999170  0.330762  -0.247806
    C   C44   0.004119  0.002497  0.670429  -0.252051
    C   C45   0.500063  0.499078  0.780214  0.123900
    C   C46   0.502746  0.502800  0.220959  0.126317
    C   C47   0.000063  0.999078  0.280214  0.123908
    C   C48   0.002746  0.002800  0.720959  0.126326
    C   C49   0.498672  0.499101  0.720988  -0.077425
    C   C50   0.500457  0.503018  0.280146  -0.074540
    C   C51   0.998672  0.999101  0.220988  -0.077438
    C   C52   0.000457  0.003018  0.780146  -0.074562
    C   C53   0.497524  0.499177  0.670439  -0.026970
    C   C54   0.498475  0.503087  0.330662  -0.032223
    C   C55   0.997524  0.999177  0.170439  -0.026950
    C   C56   0.998475  0.003087  0.830662  -0.032189
    O   O17   0.412031  0.007111  0.048415  -0.654344
    O   O18   0.413149  0.004639  0.951549  -0.659087
    O   O19   0.912031  0.507111  0.548415  -0.654345
    O   O20   0.913149  0.504639  0.451549  -0.659083
    C   C57   0.386591  0.007500  0.999679  0.801266
    C   C58   0.886591  0.507500  0.499679  0.801246
    O   O21   0.498360  0.093478  0.049498  -0.645689
    O   O22   0.493914  0.909301  0.949457  -0.625183
    O   O23   0.501887  0.093534  0.952769  -0.649209
    O   O24   0.490165  0.909172  0.046096  -0.665965
    O   O25   0.998360  0.593478  0.549498  -0.645689
    O   O26   0.993914  0.409301  0.449457  -0.625029
    O   O27   0.001887  0.593534  0.452769  -0.649214
    O   O28   0.990165  0.409172  0.546096  -0.665909
    C   C59   0.502016  0.122332  0.001209  0.351169
    C   C60   0.491211  0.880243  0.997665  0.306394
    C   C61   0.002016  0.622332  0.501209  0.351106
    C   C62   0.991211  0.380243  0.497665  0.305443
    Zn  Zn5   0.495601  0.000936  0.062956  1.299667
    Zn  Zn6   0.496712  0.001803  0.935898  1.284520
    Zn  Zn7   0.995601  0.500936  0.562956  1.299709
    Zn  Zn8   0.996712  0.501803  0.435898  1.284529
    O   O29   0.579180  0.998087  0.047351  -0.720196
    O   O30   0.580316  0.995843  0.950424  -0.703736
    O   O31   0.079180  0.498087  0.547351  -0.720221
    O   O32   0.080316  0.495843  0.450424  -0.703760
    C   C63   0.605792  0.995626  0.999194  0.977606
    C   C64   0.105792  0.495626  0.499194  0.977920
    O   O33   0.414005  0.443660  0.501476  -0.633262
    O   O34   0.411583  0.550543  0.499360  -0.646901
    O   O35   0.914005  0.943660  0.001476  -0.633267
    O   O36   0.911583  0.050543  0.999360  -0.646902
    C   C65   0.386724  0.496367  0.500376  0.693661
    C   C66   0.886724  0.996367  0.000376  0.693712
    O   O37   0.496385  0.445859  0.584143  -0.633147
    O   O38   0.496227  0.556452  0.416922  -0.634498
    O   O39   0.496484  0.449493  0.416798  -0.646999
    O   O40   0.496168  0.552805  0.584257  -0.647155
    O   O41   0.996385  0.945859  0.084143  -0.633142
    O   O42   0.996227  0.056452  0.916922  -0.634495
    O   O43   0.996484  0.949493  0.916798  -0.646991
    O   O44   0.996168  0.052805  0.084257  -0.647143
    C   C67   0.496510  0.499278  0.610248  0.681927
    C   C68   0.496646  0.503025  0.390822  0.685730
    C   C69   0.996510  0.999278  0.110248  0.681897
    C   C70   0.996646  0.003025  0.890822  0.685691
    Zn  Zn9   0.498395  0.431078  0.500186  1.285360
    Zn  Zn10  0.494640  0.571329  0.500876  1.287747
    Zn  Zn11  0.998395  0.931078  0.000186  1.285343
    Zn  Zn12  0.994640  0.071329  0.000876  1.287733
    O   O45   0.581193  0.451843  0.501686  -0.641500
    O   O46   0.578762  0.558753  0.499544  -0.629737
    O   O47   0.081193  0.951843  0.001686  -0.641473
    O   O48   0.078762  0.058753  0.999544  -0.629722
    C   C71   0.605998  0.506040  0.500621  0.676436
    C   C72   0.105998  0.006040  0.000621  0.676441
    C   C73   0.326450  0.008968  0.999157  -0.246146
    C   C74   0.826450  0.508968  0.499157  -0.246143
    C   C75   0.275908  0.009221  0.999222  0.137790
    C   C76   0.775908  0.509221  0.499222  0.137848
    C   C77   0.716695  0.508656  0.499665  -0.077548
    C   C78   0.216695  0.008656  0.999665  -0.077455
    C   C79   0.666154  0.507657  0.500146  -0.029541
    C   C80   0.166154  0.007657  0.000146  -0.029607
    C   C81   0.666010  0.994147  0.999833  -0.286813
    C   C82   0.166010  0.494147  0.499833  -0.287145
    C   C83   0.716601  0.993701  0.000137  0.144238
    C   C84   0.216601  0.493701  0.500137  0.144488
    C   C85   0.275895  0.493985  0.500303  -0.079260
    C   C86   0.775895  0.993985  0.000303  -0.079103
    C   C87   0.326488  0.494804  0.500352  -0.036588
    C   C88   0.826488  0.994804  0.000352  -0.036687
    C   C89   0.395698  0.201645  0.002254  0.244184
    C   C90   0.348185  0.247442  0.993944  -0.445551
    H   H1    0.357937  0.292240  0.013996  0.111413
    H   H2    0.340828  0.254642  0.948527  0.107672
    H   H3    0.309353  0.228194  0.012725  0.086810
    H   H4    0.393499  0.166603  0.968381  0.006066
    H   H5    0.389534  0.177186  0.042556  -0.002306
    C   C91   0.378224  0.781441  0.010180  -0.086448
    C   C92   0.363275  0.846971  0.993518  -0.180038
    H   H6    0.378005  0.879064  0.026579  0.107773
    H   H7    0.382280  0.859107  0.952583  0.070400
    H   H8    0.316999  0.851025  0.990228  0.034660
    H   H9    0.353208  0.748936  0.984469  0.056557
    H   H10   0.365254  0.774933  0.054303  0.040245
    C   C93   0.895698  0.701645  0.502254  0.243968
    C   C94   0.848185  0.747442  0.493944  -0.445379
    H   H11   0.857937  0.792240  0.513996  0.111371
    H   H12   0.840828  0.754642  0.448527  0.107606
    H   H13   0.809353  0.728194  0.512725  0.086785
    H   H14   0.893499  0.666603  0.468381  0.006123
    H   H15   0.889534  0.677186  0.542556  -0.002258
    C   C95   0.878224  0.281441  0.510180  -0.086144
    C   C96   0.863275  0.346971  0.493518  -0.180244
    H   H16   0.878005  0.379064  0.526579  0.107874
    H   H17   0.882280  0.359107  0.452583  0.070492
    H   H18   0.816999  0.351025  0.490228  0.034677
    H   H19   0.853208  0.248936  0.484469  0.056533
    H   H20   0.865254  0.274933  0.554303  0.040202
    C   C97   0.449863  0.303642  0.907723  0.218843
    C   C98   0.431410  0.258233  0.862831  -0.424107
    H   H21   0.466015  0.250564  0.832602  0.103936
    H   H22   0.418963  0.213602  0.881858  0.094861
    H   H23   0.395156  0.277990  0.839816  0.084312
    H   H24   0.412436  0.327974  0.924181  -0.009642
    H   H25   0.477519  0.338965  0.888487  -0.007172
    C   C99   0.449903  0.698303  0.097713  0.256845
    C   C100  0.439103  0.744218  0.144670  -0.416439
    H   H26   0.477126  0.748583  0.171120  0.099877
    H   H27   0.427811  0.790177  0.127468  0.097319
    H   H28   0.404243  0.726905  0.171191  0.084845
    H   H29   0.409793  0.675530  0.086297  -0.030199
    H   H30   0.479144  0.662201  0.113088  -0.005729
    C   C101  0.452426  0.303379  0.096822  0.206163
    C   C102  0.435727  0.258404  0.142735  -0.419468
    H   H31   0.423691  0.213147  0.124837  0.101180
    H   H32   0.471142  0.252062  0.172283  0.102577
    H   H33   0.399672  0.277845  0.166278  0.082580
    H   H34   0.480916  0.338668  0.114873  -0.002675
    H   H35   0.414438  0.327836  0.082068  -0.005662
    C   C103  0.430560  0.694457  0.910600  0.262830
    C   C104  0.407369  0.738169  0.866575  -0.424267
    H   H36   0.393318  0.781869  0.886073  0.094713
    H   H37   0.439797  0.747889  0.834503  0.106519
    H   H38   0.371156  0.715788  0.845559  0.080392
    H   H39   0.457028  0.659232  0.889606  -0.011876
    H   H40   0.395020  0.669988  0.930773  -0.021926
    C   C105  0.949863  0.803642  0.407723  0.218802
    C   C106  0.931410  0.758233  0.362831  -0.424064
    H   H41   0.966015  0.750564  0.332602  0.103924
    H   H42   0.918963  0.713602  0.381858  0.094844
    H   H43   0.895156  0.777990  0.339816  0.084312
    H   H44   0.912436  0.827974  0.424181  -0.009615
    H   H45   0.977519  0.838965  0.388487  -0.007180
    C   C107  0.949903  0.198303  0.597713  0.256862
    C   C108  0.939103  0.244218  0.644670  -0.416469
    H   H46   0.977126  0.248583  0.671120  0.099881
    H   H47   0.927811  0.290177  0.627468  0.097330
    H   H48   0.904243  0.226905  0.671191  0.084848
    H   H49   0.909793  0.175530  0.586297  -0.030203
    H   H50   0.979144  0.162201  0.613088  -0.005760
    C   C109  0.952426  0.803379  0.596822  0.206128
    C   C110  0.935727  0.758404  0.642735  -0.419454
    H   H51   0.923691  0.713147  0.624837  0.101171
    H   H52   0.971142  0.752062  0.672283  0.102577
    H   H53   0.899672  0.777845  0.666278  0.082578
    H   H54   0.980916  0.838668  0.614873  -0.002664
    H   H55   0.914438  0.827836  0.582068  -0.005647
    C   C111  0.930560  0.194457  0.410600  0.262795
    C   C112  0.907369  0.238169  0.366575  -0.424231
    H   H56   0.893318  0.281869  0.386073  0.094682
    H   H57   0.939797  0.247889  0.334503  0.106518
    H   H58   0.871156  0.215788  0.345559  0.080384
    H   H59   0.957028  0.159232  0.389606  -0.011910
    H   H60   0.895020  0.169988  0.430773  -0.021929
    C   C113  0.558638  0.202243  0.903207  0.254600
    C   C114  0.585924  0.250442  0.865584  -0.376449
    H   H61   0.561638  0.293965  0.865626  0.079562
    H   H62   0.629247  0.260335  0.879587  0.090612
    H   H63   0.587820  0.232138  0.822169  0.072302
    H   H64   0.590378  0.167372  0.915602  -0.025653
    H   H65   0.525796  0.178069  0.878737  -0.027384
    C   C115  0.557062  0.802071  0.088051  0.255685
    C   C116  0.589861  0.754481  0.121495  -0.443537
    H   H66   0.568786  0.708901  0.120345  0.096221
    H   H67   0.632785  0.749982  0.104219  0.111873
    H   H68   0.593130  0.770286  0.165631  0.090638
    H   H69   0.586683  0.837059  0.071388  -0.029686
    H   H70   0.527640  0.826009  0.116692  -0.024616
    C   C117  0.560252  0.201046  0.098145  0.235237
    C   C118  0.589367  0.248530  0.135099  -0.382918
    H   H71   0.632831  0.256558  0.120499  0.092307
    H   H72   0.566387  0.292938  0.134839  0.084487
    H   H73   0.591140  0.230617  0.178654  0.075474
    H   H74   0.527621  0.177474  0.123359  -0.022627
    H   H75   0.590981  0.165468  0.084898  -0.012750
    C   C119  0.536619  0.798412  0.894805  0.273997
    C   C120  0.561051  0.749195  0.856466  -0.437663
    H   H76   0.606979  0.746096  0.862855  0.110275
    H   H77   0.541954  0.703506  0.864793  0.092611
    H   H78   0.553079  0.762406  0.812227  0.088474
    H   H79   0.501863  0.822045  0.872618  -0.037061
    H   H80   0.569616  0.833189  0.903640  -0.026987
    C   C121  0.058638  0.702243  0.403207  0.254661
    C   C122  0.085924  0.750442  0.365584  -0.376460
    H   H81   0.061638  0.793965  0.365626  0.079574
    H   H82   0.129247  0.760335  0.379587  0.090612
    H   H83   0.087820  0.732138  0.322169  0.072299
    H   H84   0.090378  0.667372  0.415602  -0.025676
    H   H85   0.025796  0.678069  0.378737  -0.027389
    C   C123  0.057062  0.302071  0.588051  0.255685
    C   C124  0.089861  0.254481  0.621495  -0.443622
    H   H86   0.068786  0.208901  0.620345  0.096254
    H   H87   0.132785  0.249982  0.604219  0.111896
    H   H88   0.093130  0.270286  0.665631  0.090659
    H   H89   0.086683  0.337059  0.571388  -0.029638
    H   H90   0.027640  0.326009  0.616692  -0.024591
    C   C125  0.060252  0.701046  0.598145  0.235275
    C   C126  0.089367  0.748530  0.635099  -0.382882
    H   H91   0.132831  0.756558  0.620499  0.092298
    H   H92   0.066387  0.792938  0.634839  0.084476
    H   H93   0.091140  0.730617  0.678654  0.075462
    H   H94   0.027621  0.677474  0.623359  -0.022634
    H   H95   0.090981  0.665468  0.584898  -0.012782
    C   C127  0.036619  0.298412  0.394805  0.274065
    C   C128  0.061051  0.249195  0.356466  -0.437648
    H   H96   0.106979  0.246096  0.362855  0.110271
    H   H97   0.041954  0.203506  0.364793  0.092620
    H   H98   0.053079  0.262406  0.312227  0.088473
    H   H99   0.001863  0.322045  0.372618  -0.037073
    H   H100  0.069616  0.333189  0.403640  -0.026969
    C   C129  0.619395  0.295294  0.000553  0.269734
    C   C130  0.664466  0.245354  0.999673  -0.360300
    H   H101  0.660672  0.214002  0.035960  0.079470
    H   H102  0.662405  0.217576  0.960921  0.081497
    H   H103  0.706195  0.267971  0.001470  0.067048
    H   H104  0.624928  0.325117  0.963146  -0.036790
    H   H105  0.625629  0.324214  0.038430  -0.033798
    C   C131  0.608046  0.712169  0.986075  0.261809
    C   C132  0.648667  0.766025  0.980629  -0.412277
    H   H106  0.670606  0.763198  0.939716  0.088406
    H   H107  0.626377  0.810822  0.983463  0.092236
    H   H108  0.680380  0.763347  0.014562  0.085450
    H   H109  0.620006  0.684212  0.023136  -0.037060
    H   H110  0.611731  0.682376  0.948431  -0.038118
    C   C133  0.119395  0.795294  0.500553  0.269735
    C   C134  0.164466  0.745354  0.499673  -0.360328
    H   H111  0.160672  0.714002  0.535960  0.079483
    H   H112  0.162405  0.717576  0.460921  0.081506
    H   H113  0.206195  0.767971  0.501470  0.067053
    H   H114  0.124928  0.825117  0.463146  -0.036784
    H   H115  0.125629  0.824214  0.538430  -0.033802
    C   C135  0.108046  0.212169  0.486075  0.261807
    C   C136  0.148667  0.266025  0.480629  -0.412316
    H   H116  0.170606  0.263198  0.439716  0.088416
    H   H117  0.126377  0.310822  0.483463  0.092252
    H   H118  0.180380  0.263347  0.514562  0.085451
    H   H119  0.120006  0.184212  0.523136  -0.037076
    H   H120  0.111731  0.182376  0.448431  -0.038121
