data_DB0-m3_o11_o29_f0_pcu.sym.8_repeat
_audit_creation_date              2024-02-23
_audit_creation_method            'Materials Studio'
_symmetry_space_group_name_H-M    'P1'
_symmetry_Int_Tables_number       1
_symmetry_cell_setting            triclinic
loop_
_symmetry_equiv_pos_as_xyz
  x,y,z
_cell_length_a                    27.6373
_cell_length_b                    11.1359
_cell_length_c                    9.9250
_cell_angle_alpha                 89.9974
_cell_angle_beta                  89.9930
_cell_angle_gamma                 89.9936
loop_
_atom_site_label
_atom_site_type_symbol
_atom_site_fract_x
_atom_site_fract_y
_atom_site_fract_z
_atom_site_U_iso_or_equiv
_atom_site_adp_type
_atom_site_occupancy
O1     O     0.50172   0.31888   0.60906   0.00000  Uiso   1.00
O2     O     0.49905   0.31934   0.37719   0.00000  Uiso   1.00
C1     C     0.50054   0.26303   0.49329   0.00000  Uiso   1.00
O3     O     0.42897   0.49460   0.62259   0.00000  Uiso   1.00
O4     O     0.42587   0.49725   0.39055   0.00000  Uiso   1.00
C2     C     0.40475   0.49514   0.50878   0.00000  Uiso   1.00
Zn1    Zn    0.50169   0.49715   0.64883   0.00000  Uiso   1.00
Zn2    Zn    0.49709   0.49872   0.34250   0.00000  Uiso   1.00
O5     O     0.49986   0.67642   0.61466   0.00000  Uiso   1.00
O6     O     0.49744   0.67735   0.38160   0.00000  Uiso   1.00
O7     O     0.57293   0.49944   0.60104   0.00000  Uiso   1.00
O8     O     0.56982   0.50138   0.36854   0.00000  Uiso   1.00
C3     C     0.49830   0.73278   0.49849   0.00000  Uiso   1.00
C4     C     0.59401   0.50102   0.48256   0.00000  Uiso   1.00
C5     C     0.17563   0.40319   0.45071   0.00000  Uiso   1.00
O9     O     0.20050   0.31450   0.39037   0.00000  Uiso   1.00
N1     N     0.19966   0.48972   0.51802   0.00000  Uiso   1.00
C6     C     0.17515   0.57745   0.58197   0.00000  Uiso   1.00
C7     C     0.27585   0.49732   0.39605   0.00000  Uiso   1.00
C8     C     0.32566   0.49866   0.39375   0.00000  Uiso   1.00
C9     C     0.32715   0.48765   0.63401   0.00000  Uiso   1.00
C10    C     0.27719   0.48620   0.63600   0.00000  Uiso   1.00
C11    C     0.25133   0.49084   0.51694   0.00000  Uiso   1.00
C12    C     0.09988   0.49360   0.50851   0.00000  Uiso   1.00
C13    C     0.12560   0.40418   0.44513   0.00000  Uiso   1.00
C14    C     0.10127   0.31701   0.37449   0.00000  Uiso   1.00
C15    C     0.12509   0.58030   0.57802   0.00000  Uiso   1.00
C16    C     0.35168   0.49378   0.51268   0.00000  Uiso   1.00
H1     H     0.34659   0.48344   0.72835   0.00000  Uiso   1.00
H2     H     0.25842   0.48009   0.73135   0.00000  Uiso   1.00
H3     H     0.12045   0.24700   0.32132   0.00000  Uiso   1.00
C17    C     0.64709   0.50308   0.47852   0.00000  Uiso   1.00
C18    C     0.97411   0.40605   0.43448   0.00000  Uiso   1.00
C19    C     0.97412   0.59753   0.54714   0.00000  Uiso   1.00
C20    C     0.94912   0.50365   0.48722   0.00000  Uiso   1.00
C21    C     0.94755   0.30994   0.38357   0.00000  Uiso   1.00
C22    C     0.89799   0.31314   0.37998   0.00000  Uiso   1.00
C23    C     0.87339   0.41172   0.42714   0.00000  Uiso   1.00
C24    C     0.89874   0.50695   0.48085   0.00000  Uiso   1.00
C25    C     0.87316   0.60482   0.52849   0.00000  Uiso   1.00
C26    C     0.82276   0.60383   0.52371   0.00000  Uiso   1.00
N2     N     0.79900   0.50875   0.47217   0.00000  Uiso   1.00
C27    C     0.82341   0.41376   0.42344   0.00000  Uiso   1.00
C28    C     0.72294   0.51054   0.59480   0.00000  Uiso   1.00
C29    C     0.67313   0.50828   0.59741   0.00000  Uiso   1.00
C30    C     0.67158   0.49973   0.35698   0.00000  Uiso   1.00
C31    C     0.72153   0.50133   0.35474   0.00000  Uiso   1.00
C32    C     0.74737   0.50714   0.47367   0.00000  Uiso   1.00
O10    O     0.79885   0.31905   0.37488   0.00000  Uiso   1.00
C33    C     0.02482   0.40600   0.43495   0.00000  Uiso   1.00
C34    C     0.04958   0.49661   0.50186   0.00000  Uiso   1.00
C35    C     0.02448   0.59047   0.56174   0.00000  Uiso   1.00
C36    C     0.05167   0.31779   0.36897   0.00000  Uiso   1.00
H4     H     0.65508   0.51081   0.69393   0.00000  Uiso   1.00
H5     H     0.74282   0.51369   0.68855   0.00000  Uiso   1.00
H6     H     0.87905   0.23616   0.33991   0.00000  Uiso   1.00
H7     H     0.96352   0.22756   0.34900   0.00000  Uiso   1.00
H8     H     0.03588   0.24883   0.30738   0.00000  Uiso   1.00
O11    O     0.19960   0.66476   0.64601   0.00000  Uiso   1.00
C37    C     0.10015   0.66971   0.64333   0.00000  Uiso   1.00
H9     H     0.34373   0.50410   0.29742   0.00000  Uiso   1.00
H10    H     0.25608   0.50276   0.30226   0.00000  Uiso   1.00
H11    H     0.11879   0.73741   0.70153   0.00000  Uiso   1.00
C38    C     0.94803   0.69755   0.58935   0.00000  Uiso   1.00
C39    C     0.89849   0.70225   0.57894   0.00000  Uiso   1.00
O12    O     0.79691   0.69755   0.56940   0.00000  Uiso   1.00
C40    C     0.05061   0.67472   0.63597   0.00000  Uiso   1.00
H12    H     0.96479   0.77742   0.62810   0.00000  Uiso   1.00
H13    H     0.65213   0.49559   0.26266   0.00000  Uiso   1.00
H14    H     0.74033   0.49926   0.25923   0.00000  Uiso   1.00
H15    H     0.03409   0.74509   0.69402   0.00000  Uiso   1.00
C41    C     0.49822   0.93051   0.38911   0.00000  Uiso   1.00
C42    C     0.49780   0.86436   0.50202   0.00000  Uiso   1.00
H16    H     0.49838   0.88562   0.29227   0.00000  Uiso   1.00
H17    H     0.49694   0.90451   0.60089   0.00000  Uiso   1.00
C43    C     0.49796   0.06362   0.38717   0.00000  Uiso   1.00
C44    C     0.50129   0.13156   0.49797   0.00000  Uiso   1.00
H18    H     0.49522   0.10686   0.28967   0.00000  Uiso   1.00
H19    H     0.50471   0.09271   0.59704   0.00000  Uiso   1.00
C45    C     0.51297   0.58765   0.92455   0.00000  Uiso   1.00
N3     N     0.50610   0.49507   0.84999   0.00000  Uiso   1.00
H20    H     0.51765   0.67518   0.87876   0.00000  Uiso   1.00
H21    H     0.50910   0.41376   0.89809   0.00000  Uiso   1.00
C46    C     0.51989   0.57389   0.07127   0.00000  Uiso   1.00
N4     N     0.49354   0.50186   0.14116   0.00000  Uiso   1.00
H22    H     0.54734   0.62732   0.12112   0.00000  Uiso   1.00
O13    O     0.87537   0.80352   0.62335   0.00000  Uiso   1.00
C47    C     0.87823   0.88526   0.51679   0.00000  Uiso   1.00
H23    H     0.88324   0.83698   0.42007   0.00000  Uiso   1.00
H24    H     0.90903   0.94735   0.53345   0.00000  Uiso   1.00
H25    H     0.84417   0.93773   0.51160   0.00000  Uiso   1.00
O14    O     0.45109   0.47430   0.08357   0.00000  Uiso   1.00
C48    C     0.44656   0.35014   0.09811   0.00000  Uiso   1.00
H26    H     0.42357   0.32953   0.18665   0.00000  Uiso   1.00
H27    H     0.48285   0.30935   0.11109   0.00000  Uiso   1.00
H28    H     0.42957   0.31217   0.00628   0.00000  Uiso   1.00
