# Generated by REPEAT Assigner based on pymatgen
data_DB0-m9_o18_o28_f0_sra.sym.4
_audit_creation_date              2022-05-24
_audit_creation_method            REPEAT_Assigner
_cell_length_a                    30.057900
_cell_length_b                    6.818000
_cell_length_c                    26.412497
_cell_angle_alpha                 90.000000
_cell_angle_beta                  112.883810
_cell_angle_gamma                 90.000000
_cell_volume                      4986.823082
_symmetry_space_group_name_H-M    P1
_symmetry_Int_Tables_number       1
loop_
    _symmetry_equiv_pos_site_id
    _symmetry_equiv_pos_as_xyz
    1  x,y,z
loop_
    _atom_site_type_symbol
    _atom_site_label
    _atom_site_fract_x
    _atom_site_fract_y
    _atom_site_fract_z
    _atom_type_partial_charge
    O   O1   0.292408  0.731160  0.317519  -0.361168
    O   O2   0.707593  0.268840  0.682481  -0.361168
    O   O3   0.207593  0.231156  0.182482  -0.361200
    O   O4   0.792407  0.768842  0.817519  -0.361155
    O   O5   0.299091  0.385137  0.217047  -0.590357
    O   O6   0.700909  0.614863  0.782954  -0.590493
    O   O7   0.200909  0.885137  0.282954  -0.590358
    O   O8   0.799092  0.114861  0.717047  -0.590181
    C   C1   0.301919  0.560516  0.195688  0.617297
    C   C2   0.698081  0.439482  0.804312  0.617427
    C   C3   0.198081  0.060517  0.304312  0.617339
    C   C4   0.801919  0.939484  0.695688  0.616837
    O   O9   0.308668  0.384898  0.323859  -0.430216
    O   O10  0.691332  0.615101  0.676141  -0.430195
    O   O11  0.191332  0.884898  0.176141  -0.430213
    O   O12  0.808668  0.115102  0.823859  -0.430214
    O   O13  0.217191  0.231059  0.296304  -0.566874
    O   O14  0.782809  0.768938  0.703696  -0.566898
    O   O15  0.282809  0.731061  0.203696  -0.566848
    O   O16  0.717191  0.268940  0.796304  -0.566921
    C   C5   0.314373  0.568589  0.342973  0.367364
    C   C6   0.685627  0.431411  0.657028  0.367341
    C   C7   0.185627  0.068589  0.157028  0.367391
    C   C8   0.814373  0.931411  0.842973  0.367421
    O   O17  0.220074  0.551029  0.237210  -0.556374
    O   O18  0.779926  0.448969  0.762791  -0.556363
    O   O19  0.279927  0.051029  0.262791  -0.556382
    O   O20  0.720074  0.948971  0.737209  -0.556347
    V   V1   0.258891  0.281260  0.255323  1.482491
    V   V2   0.741109  0.718742  0.744677  1.482305
    V   V3   0.241109  0.781257  0.244677  1.482421
    V   V4   0.758891  0.218742  0.755323  1.482088
    C   C9   0.853513  0.893957  0.896164  0.055547
    C   C10  0.146486  0.106044  0.103837  0.055609
    C   C11  0.646487  0.393955  0.603837  0.055609
    C   C12  0.353514  0.606044  0.396164  0.055623
    C   C13  0.887758  0.677604  0.972270  -0.234789
    C   C14  0.112242  0.322395  0.027731  -0.234910
    C   C15  0.612242  0.177607  0.527731  -0.234904
    C   C16  0.387758  0.822392  0.472269  -0.234859
    C   C17  0.849675  0.732255  0.925335  0.100592
    C   C18  0.150325  0.267745  0.074665  0.100684
    C   C19  0.650326  0.232255  0.574665  0.100714
    C   C20  0.349675  0.767745  0.425335  0.100644
    C   C21  0.895992  0.000418  0.913738  -0.233667
    C   C22  0.104008  0.999583  0.086262  -0.233744
    C   C23  0.604008  0.500417  0.586262  -0.233792
    C   C24  0.395992  0.499583  0.413738  -0.233716
    C   C25  0.935682  0.940519  0.960032  0.034858
    C   C26  0.064319  0.059482  0.039969  0.034920
    C   C27  0.564319  0.440518  0.539969  0.034972
    C   C28  0.435682  0.559482  0.460031  0.034838
    C   C29  0.930654  0.779021  0.989024  0.215116
    C   C30  0.069346  0.220979  0.010977  0.215119
    C   C31  0.569347  0.279020  0.510976  0.215073
    C   C32  0.430654  0.720980  0.489024  0.215180
    C   C33  0.980530  0.034401  0.977102  0.054367
    C   C34  0.019470  0.965598  0.022898  0.054279
    C   C35  0.519470  0.534404  0.522898  0.054230
    C   C36  0.480530  0.465596  0.477102  0.054401
    C   C37  0.012859  0.804897  0.051292  -0.145964
    C   C38  0.987142  0.195102  0.948708  -0.146031
    C   C39  0.487142  0.304897  0.448708  -0.146039
    C   C40  0.512859  0.695104  0.551291  -0.145938
    C   C41  0.968791  0.713486  0.034419  -0.233193
    C   C42  0.031209  0.286514  0.965581  -0.233137
    C   C43  0.531209  0.213488  0.465581  -0.233101
    C   C44  0.468791  0.786514  0.534419  -0.233221
    H   H1   0.964273  0.586927  0.056614  0.141065
    H   H2   0.035728  0.413072  0.943386  0.141050
    H   H3   0.535728  0.086927  0.443386  0.141030
    H   H4   0.464273  0.913074  0.556614  0.141069
    H   H5   0.102424  0.878296  0.111477  0.156358
    H   H6   0.897576  0.121703  0.888523  0.156316
    H   H7   0.397576  0.378296  0.388523  0.156346
    H   H8   0.602424  0.621704  0.611477  0.156370
    H   H9   0.884607  0.550338  0.995061  0.125767
    H   H10  0.115393  0.449662  0.004939  0.125804
    H   H11  0.615394  0.050337  0.504939  0.125803
    H   H12  0.384608  0.949663  0.495061  0.125769
    H   H13  0.041388  0.745212  0.086739  0.130556
    H   H14  0.958612  0.254788  0.913261  0.130576
    H   H15  0.458613  0.245211  0.413261  0.130573
    H   H16  0.541388  0.754789  0.586739  0.130549
    C   C45  0.077249  0.169147  0.465442  0.430080
    C   C46  0.922751  0.830854  0.534558  0.429931
    C   C47  0.422751  0.669146  0.034558  0.430039
    C   C48  0.577249  0.330853  0.965443  0.430108
    N   N1   0.073694  0.035952  0.425777  -0.132189
    N   N2   0.926306  0.964046  0.574223  -0.131909
    N   N3   0.426306  0.535954  0.074223  -0.132046
    N   N4   0.573694  0.464046  0.925777  -0.132230
    C   C49  0.040452  0.889949  0.415240  0.294118
    C   C50  0.959548  0.110053  0.584760  0.294076
    C   C51  0.459548  0.389947  0.084760  0.294146
    C   C52  0.540452  0.610051  0.915240  0.294150
    C   C53  0.010915  0.873879  0.444808  0.194143
    C   C54  0.989085  0.126126  0.555192  0.194097
    C   C55  0.489085  0.373875  0.055193  0.194101
    C   C56  0.510915  0.626122  0.944808  0.194136
    C   C57  0.014656  0.007465  0.485129  -0.113462
    C   C58  0.985343  0.992532  0.514870  -0.113459
    C   C59  0.485343  0.507467  0.014871  -0.113453
    C   C60  0.514657  0.492535  0.985129  -0.113462
    C   C61  0.047895  0.156195  0.495398  -0.043406
    C   C62  0.952105  0.843808  0.504602  -0.043372
    C   C63  0.452105  0.656191  0.004603  -0.043412
    C   C64  0.547895  0.343808  0.995398  -0.043391
    C   C65  0.977339  0.724220  0.434114  -0.060524
    C   C66  0.022660  0.275779  0.565885  -0.060472
    C   C67  0.522661  0.224221  0.065886  -0.060478
    C   C68  0.477339  0.775781  0.934115  -0.060516
    C   C69  0.948162  0.709225  0.463841  0.031155
    C   C70  0.051837  0.290773  0.536158  0.031152
    C   C71  0.551838  0.209227  0.036159  0.031150
    C   C72  0.448162  0.790775  0.963842  0.031189
    O   O21  0.110185  0.313216  0.477180  -0.484477
    O   O22  0.889814  0.686785  0.522820  -0.484448
    O   O23  0.389814  0.813214  0.022820  -0.484471
    O   O24  0.610186  0.186786  0.977180  -0.484487
    O   O25  0.034831  0.760677  0.374881  -0.382378
    O   O26  0.965168  0.239324  0.625119  -0.382378
    O   O27  0.465169  0.260676  0.125119  -0.382378
    O   O28  0.534831  0.739325  0.874881  -0.382380
    H   H17  0.922152  0.591477  0.455038  0.058970
    H   H18  0.077847  0.408524  0.544962  0.058976
    H   H19  0.577848  0.091475  0.044963  0.058983
    H   H20  0.422153  0.908523  0.955038  0.058964
    C   C73  0.883678  0.120430  0.627069  -0.280563
    C   C74  0.116322  0.879572  0.372931  -0.280711
    C   C75  0.616322  0.620429  0.872931  -0.280681
    C   C76  0.383678  0.379569  0.127069  -0.280618
    H   H21  0.897032  0.261708  0.621073  0.181404
    H   H22  0.102968  0.738292  0.378927  0.181406
    H   H23  0.602968  0.761707  0.878927  0.181388
    H   H24  0.397032  0.238294  0.121073  0.181391
    C   C77  0.853824  0.111832  0.656198  -0.114932
    C   C78  0.146176  0.888166  0.343802  -0.114700
    C   C79  0.646175  0.611833  0.843802  -0.114729
    C   C80  0.353825  0.388167  0.156198  -0.114747
    H   H25  0.845829  0.245417  0.673052  0.135834
    H   H26  0.154171  0.754583  0.326949  0.135830
    H   H27  0.654171  0.745417  0.826948  0.135846
    H   H28  0.345829  0.254583  0.173052  0.135828
    C   C81  0.833732  0.936932  0.663786  0.085997
    C   C82  0.166268  0.063070  0.336214  0.085455
    C   C83  0.666268  0.436929  0.836214  0.085433
    C   C84  0.333732  0.563070  0.163786  0.085523
    C   C85  0.844299  0.768926  0.640871  -0.173518
    C   C86  0.155701  0.231071  0.359129  -0.173240
    C   C87  0.655701  0.268928  0.859129  -0.173241
    C   C88  0.344299  0.731073  0.140871  -0.173311
    H   H29  0.829305  0.629749  0.645953  0.143225
    H   H30  0.170695  0.370251  0.354047  0.143139
    H   H31  0.670695  0.129749  0.854048  0.143140
    H   H32  0.329305  0.870251  0.145953  0.143145
    C   C89  0.874354  0.777108  0.611496  -0.207710
    C   C90  0.125646  0.222893  0.388504  -0.207928
    C   C91  0.625646  0.277109  0.888504  -0.207954
    C   C92  0.374355  0.722891  0.111496  -0.207790
    H   H33  0.882401  0.642802  0.595109  0.179672
    H   H34  0.117598  0.357198  0.404891  0.179718
    H   H35  0.617598  0.142801  0.904891  0.179735
    H   H36  0.382402  0.857199  0.095109  0.179698
    C   C93  0.894819  0.953237  0.604407  0.299523
    C   C94  0.105181  0.046761  0.395593  0.299865
    C   C95  0.605181  0.453239  0.895593  0.299891
    C   C96  0.394819  0.546764  0.104408  0.299657
    Cl  Cl1  0.203615  0.405985  0.097954  -0.127408
    Cl  Cl2  0.796385  0.594015  0.902046  -0.127398
    Cl  Cl3  0.296385  0.905982  0.402046  -0.127393
    Cl  Cl4  0.703615  0.094016  0.597954  -0.127424
    Cl  Cl5  0.971723  0.551837  0.382845  -0.042087
    Cl  Cl6  0.028277  0.448163  0.617154  -0.042108
    Cl  Cl7  0.528277  0.051838  0.117155  -0.042108
    Cl  Cl8  0.471723  0.948165  0.882846  -0.042092
