# Generated by REPEAT Assigner based on pymatgen
data_DB0-m2_o19_o22_f0_pcu.sym.27
_audit_creation_date              2022-05-24
_audit_creation_method            REPEAT_Assigner
_cell_length_a                    10.744896
_cell_length_b                    11.825211
_cell_length_c                    10.401384
_cell_angle_alpha                 90.000000
_cell_angle_beta                  90.000000
_cell_angle_gamma                 90.000000
_cell_volume                      1321.606721
_symmetry_space_group_name_H-M    P1
_symmetry_Int_Tables_number       1
loop_
    _symmetry_equiv_pos_site_id
    _symmetry_equiv_pos_as_xyz
    1  x,y,z
loop_
    _atom_site_type_symbol
    _atom_site_label
    _atom_site_fract_x
    _atom_site_fract_y
    _atom_site_fract_z
    _atom_type_partial_charge
    O   O1   0.509027  0.328041  0.592341  -0.640972
    O   O2   0.504486  0.327814  0.371513  -0.615749
    C   C1   0.503341  0.275215  0.482064  0.911178
    O   O3   0.321996  0.494285  0.592659  -0.548767
    O   O4   0.321594  0.490645  0.372253  -0.533842
    O   O5   0.683660  0.498696  0.592934  -0.484428
    O   O6   0.683450  0.486637  0.372153  -0.561706
    C   C2   0.504849  0.932563  0.482636  0.049909
    C   C3   0.262727  0.495860  0.482609  0.385235
    C   C4   0.742422  0.495749  0.482343  0.397957
    Cu  Cu1  0.502842  0.492274  0.610981  0.937510
    Cu  Cu2  0.502583  0.492213  0.353874  0.954436
    C   C5   0.502709  0.492107  0.050326  0.249492
    C   C6   0.502813  0.491963  0.914528  0.208868
    O   O7   0.504431  0.656679  0.593483  -0.581646
    O   O8   0.508616  0.656468  0.372278  -0.570849
    C   C7   0.503332  0.709244  0.482783  0.847667
    C   C8   0.504453  0.153868  0.482224  -0.294876
    C   C9   0.071864  0.429000  0.592112  0.166782
    C   C10  0.073010  0.447839  0.360413  -0.061683
    C   C11  0.931732  0.419355  0.581375  -0.159014
    C   C12  0.932300  0.457759  0.354223  0.044600
    H   H1   0.096576  0.458612  0.689211  -0.095708
    H   H2   0.114511  0.481764  0.271224  0.006771
    H   H3   0.888017  0.428340  0.677036  0.019808
    H   H4   0.903944  0.508642  0.270677  -0.064973
    H   H5   0.111932  0.342915  0.583110  -0.013864
    H   H6   0.097210  0.356666  0.362057  -0.008868
    H   H7   0.909002  0.332244  0.549662  0.026194
    H   H8   0.894151  0.371902  0.337040  0.011197
    C   C13  0.504887  0.051968  0.482418  0.074996
    C   C14  0.076323  0.628870  0.493380  -0.377082
    C   C15  0.929607  0.627130  0.508716  -0.506477
    C   C16  0.122316  0.503133  0.483412  0.303594
    C   C17  0.882706  0.503118  0.481678  0.374509
    N   N1   0.502627  0.492228  0.161582  -0.200700
    N   N2   0.502879  0.491909  0.803272  -0.157641
    C   C18  0.504379  0.830657  0.482738  -0.225136
    C   C19  0.134310  0.690596  0.608122  0.355034
    C   C20  0.142476  0.806924  0.621390  -0.262182
    C   C21  0.200337  0.825544  0.735241  -0.204540
    C   C22  0.223973  0.720668  0.784919  -0.155120
    O   O9   0.184401  0.638675  0.708667  -0.034417
    H   H9   0.117214  0.872298  0.554242  0.170135
    H   H10  0.225046  0.906291  0.776735  0.149273
    H   H11  0.270683  0.705431  0.875298  0.151744
    C   C23  0.127391  0.692307  0.375993  0.479624
    C   C24  0.083163  0.696707  0.250552  -0.224110
    C   C25  0.166011  0.759726  0.183479  -0.330522
    C   C26  0.256560  0.788659  0.269427  -0.035824
    O   O10  0.234842  0.747244  0.385420  -0.185649
    H   H12  0.002494  0.658716  0.207698  0.204206
    H   H13  0.161993  0.781418  0.082653  0.164558
    H   H14  0.337639  0.838598  0.245832  0.125202
    C   C27  0.889967  0.658954  0.645563  0.389465
    C   C28  0.792384  0.730427  0.676713  -0.285897
    C   C29  0.784623  0.729819  0.806820  -0.180431
    C   C30  0.875855  0.657696  0.847671  -0.223480
    O   O11  0.939114  0.613531  0.750839  0.054100
    H   H15  0.729656  0.776434  0.615205  0.176615
    H   H16  0.718610  0.775266  0.865823  0.140999
    H   H17  0.893890  0.637271  0.947243  0.145164
    C   C31  0.867930  0.711962  0.418290  0.299553
    C   C32  0.879363  0.828351  0.425639  -0.199799
    C   C33  0.810448  0.870610  0.327611  -0.157986
    C   C34  0.761193  0.778513  0.266405  -0.253036
    O   O12  0.795173  0.682217  0.320943  0.027934
    H   H18  0.924988  0.878441  0.497716  0.112087
    H   H19  0.795322  0.958653  0.304428  0.147233
    H   H20  0.700460  0.782931  0.183701  0.173347
