# Generated by REPEAT Assigner based on pymatgen
data_DB0-m3_o39_o40_f0_fof.sym.3
_audit_creation_date              2022-05-24
_audit_creation_method            REPEAT_Assigner
_cell_length_a                    28.506651
_cell_length_b                    18.561010
_cell_length_c                    16.879540
_cell_angle_alpha                 90.000000
_cell_angle_beta                  62.237662
_cell_angle_gamma                 90.000000
_cell_volume                      7903.080308
_symmetry_space_group_name_H-M    P1
_symmetry_Int_Tables_number       1
loop_
    _symmetry_equiv_pos_site_id
    _symmetry_equiv_pos_as_xyz
    1  x,y,z
loop_
    _atom_site_type_symbol
    _atom_site_label
    _atom_site_fract_x
    _atom_site_fract_y
    _atom_site_fract_z
    _atom_type_partial_charge
    O   O1    0.748670  0.231184  0.638019  -0.626789
    O   O2    0.251246  0.768564  0.361968  -0.626006
    O   O3    0.251525  0.230779  0.361847  -0.632568
    O   O4    0.748367  0.769622  0.638208  -0.632174
    O   O5    0.248736  0.731402  0.638087  -0.626278
    O   O6    0.751344  0.268846  0.361932  -0.626704
    O   O7    0.751622  0.730412  0.361845  -0.632197
    O   O8    0.248490  0.269185  0.638096  -0.632459
    O   O9    0.672341  0.194766  0.519463  -0.632955
    O   O10   0.327692  0.805310  0.480324  -0.631586
    O   O11   0.327402  0.194516  0.481041  -0.636947
    O   O12   0.672694  0.805451  0.518527  -0.636852
    O   O13   0.172290  0.694654  0.519730  -0.631823
    O   O14   0.827673  0.305265  0.480490  -0.632847
    O   O15   0.827295  0.694583  0.481524  -0.637106
    O   O16   0.172613  0.305448  0.518904  -0.636953
    O   O17   0.736867  0.124389  0.523268  -0.676058
    O   O18   0.263135  0.875562  0.476414  -0.675882
    O   O19   0.262872  0.124171  0.477199  -0.675643
    O   O20   0.737185  0.875891  0.522324  -0.675393
    O   O21   0.236847  0.624403  0.523641  -0.675969
    O   O22   0.763147  0.375642  0.476684  -0.676252
    O   O23   0.762804  0.624143  0.477729  -0.675649
    O   O24   0.237143  0.375793  0.522744  -0.675599
    O   O25   0.683472  0.297684  0.629179  -0.551253
    O   O26   0.316467  0.702199  0.370905  -0.551515
    O   O27   0.316739  0.297231  0.370727  -0.547183
    O   O28   0.683196  0.703071  0.629339  -0.546768
    O   O29   0.183515  0.797766  0.629150  -0.551611
    O   O30   0.816542  0.202348  0.370773  -0.551097
    O   O31   0.816793  0.796964  0.370714  -0.546855
    O   O32   0.183276  0.202733  0.629217  -0.546980
    C   C1    0.704633  0.268521  0.675952  0.503409
    C   C2    0.295292  0.731237  0.324075  0.502909
    C   C3    0.295659  0.267881  0.323957  0.507652
    C   C4    0.704215  0.732563  0.676122  0.506274
    C   C5    0.204690  0.768727  0.675980  0.503082
    C   C6    0.795381  0.231510  0.323999  0.503246
    C   C7    0.795773  0.767472  0.323931  0.506305
    C   C8    0.204357  0.232084  0.675987  0.507045
    C   C9    0.689595  0.131673  0.529206  0.667458
    C   C10   0.310426  0.868343  0.470410  0.665832
    C   C11   0.310125  0.131449  0.471303  0.668404
    C   C12   0.689967  0.868573  0.528078  0.669124
    C   C13   0.189557  0.631622  0.529644  0.665877
    C   C14   0.810418  0.368358  0.470748  0.667410
    C   C15   0.810023  0.631460  0.471974  0.669391
    C   C16   0.189889  0.368515  0.528642  0.668170
    Zn  Zn1   0.789900  0.202958  0.507263  1.226765
    Zn  Zn2   0.210079  0.796958  0.492678  1.226210
    Zn  Zn3   0.210086  0.202956  0.492693  1.227477
    Zn  Zn4   0.789895  0.797111  0.507261  1.227261
    Zn  Zn5   0.289903  0.703007  0.507377  1.226257
    Zn  Zn6   0.710114  0.297073  0.492689  1.226930
    Zn  Zn7   0.710095  0.702922  0.492792  1.227195
    Zn  Zn8   0.289929  0.297009  0.507250  1.227456
    C   C17   0.542370  0.000010  0.518869  0.066706
    C   C18   0.458143  0.000023  0.478880  0.065644
    C   C19   0.041856  0.499958  0.521122  0.066047
    C   C20   0.957632  0.500001  0.481128  0.065541
    C   C21   0.520374  0.064119  0.511246  -0.019038
    C   C22   0.480184  0.935920  0.486359  -0.013953
    C   C23   0.479876  0.064133  0.487255  0.030694
    C   C24   0.520688  0.935899  0.510332  0.026254
    C   C25   0.019805  0.564067  0.513692  -0.014469
    C   C26   0.979638  0.435885  0.488703  -0.018084
    C   C27   0.979304  0.564104  0.489714  0.027060
    C   C28   0.020134  0.435854  0.512696  0.029933
    C   C29   0.608444  0.935156  0.540669  0.137825
    C   C30   0.391844  0.064861  0.457747  0.134905
    C   C31   0.392043  0.935152  0.457129  0.129478
    C   C32   0.608210  0.064876  0.541396  0.132009
    C   C33   0.108165  0.435102  0.542212  0.134401
    C   C34   0.891550  0.564874  0.459371  0.136802
    C   C35   0.891800  0.435154  0.458564  0.130825
    C   C36   0.107946  0.564812  0.542917  0.128393
    C   C37   0.657741  0.934680  0.539926  -0.096933
    C   C38   0.342382  0.065335  0.459124  -0.093597
    C   C39   0.342571  0.934561  0.458531  -0.090388
    C   C40   0.657504  0.065460  0.540675  -0.093750
    C   C41   0.157626  0.434627  0.540840  -0.093096
    C   C42   0.842253  0.565354  0.460110  -0.096288
    C   C43   0.842503  0.434574  0.459297  -0.092889
    C   C44   0.157419  0.565400  0.541504  -0.089439
    C   C45   0.681308  0.000085  0.539308  -0.139606
    C   C46   0.318701  0.999931  0.460148  -0.141973
    C   C47   0.181299  0.500030  0.539847  -0.142544
    C   C48   0.818691  0.499950  0.460703  -0.140273
    H   H1    0.719911  0.000107  0.536166  0.161229
    H   H2    0.279953  0.999901  0.463871  0.161748
    H   H3    0.220051  0.500060  0.536110  0.161848
    H   H4    0.780084  0.499930  0.463860  0.161453
    C   C49   0.586572  0.000018  0.533513  0.008957
    C   C50   0.413794  0.000009  0.464673  0.010119
    C   C51   0.086205  0.499960  0.535330  0.010659
    C   C52   0.913429  0.500005  0.466486  0.010200
    C   C53   0.078539  0.373183  0.553614  -0.247525
    C   C54   0.921107  0.626802  0.448354  -0.247062
    C   C55   0.921592  0.373355  0.446749  -0.251142
    C   C56   0.078096  0.626600  0.555081  -0.252151
    C   C57   0.578879  0.873229  0.551728  -0.247616
    C   C58   0.421479  0.126778  0.446297  -0.248045
    C   C59   0.421882  0.873360  0.445018  -0.252229
    C   C60   0.578426  0.126677  0.553162  -0.251398
    C   C61   0.036165  0.373074  0.536605  -0.129018
    C   C62   0.963322  0.626898  0.465769  -0.127984
    C   C63   0.963915  0.373242  0.463920  -0.084408
    C   C64   0.035587  0.626701  0.538400  -0.085931
    C   C65   0.536662  0.873119  0.534320  -0.127680
    C   C66   0.463856  0.126900  0.463299  -0.128859
    C   C67   0.464390  0.873272  0.461702  -0.086170
    C   C68   0.536107  0.126777  0.535983  -0.084345
    H   H5    0.085420  0.323700  0.579402  0.176171
    H   H6    0.914355  0.676311  0.422471  0.175365
    H   H7    0.914901  0.324043  0.420376  0.172632
    H   H8    0.084941  0.675914  0.581266  0.173364
    H   H9    0.585630  0.823734  0.577642  0.175492
    H   H10   0.414601  0.176247  0.420476  0.176325
    H   H11   0.415031  0.824029  0.418875  0.173184
    H   H12   0.585120  0.176004  0.579505  0.172662
    H   H13   0.014985  0.322946  0.547185  0.122010
    H   H14   0.984459  0.677038  0.455381  0.121565
    H   H15   0.985310  0.323244  0.452749  0.105350
    H   H16   0.014138  0.676674  0.549792  0.106124
    H   H17   0.515520  0.822981  0.544743  0.121553
    H   H18   0.485044  0.177025  0.452681  0.121992
    H   H19   0.485826  0.823292  0.450356  0.106226
    H   H20   0.514719  0.176777  0.547117  0.105364
    C   C69   0.647278  0.333391  0.945880  -0.351103
    C   C70   0.352850  0.666577  0.053943  -0.348871
    C   C71   0.350887  0.336756  0.056712  -0.315754
    C   C72   0.649045  0.663610  0.943299  -0.317373
    C   C73   0.147131  0.833401  0.946107  -0.349409
    C   C74   0.852741  0.166631  0.054072  -0.351664
    C   C75   0.850937  0.836418  0.056750  -0.317454
    C   C76   0.149130  0.163226  0.943240  -0.315965
    H   H21   0.635675  0.354230  0.012191  0.158071
    H   H22   0.364457  0.645703  0.987643  0.157030
    H   H23   0.361638  0.359325  0.991487  0.161506
    H   H24   0.638345  0.640990  0.008475  0.161989
    H   H25   0.135524  0.854279  0.012404  0.157135
    H   H26   0.864345  0.145787  0.987762  0.158098
    H   H27   0.861636  0.859035  0.991572  0.162060
    H   H28   0.138378  0.140665  0.008468  0.161513
    C   C77   0.617497  0.348357  0.902082  0.138827
    C   C78   0.382584  0.651568  0.097812  0.133919
    C   C79   0.381307  0.350547  0.099625  0.195984
    C   C80   0.618679  0.649669  0.900330  0.193808
    C   C81   0.117398  0.848408  0.902233  0.134661
    C   C82   0.882519  0.151666  0.097874  0.139047
    C   C83   0.881306  0.850358  0.099713  0.194027
    C   C84   0.118708  0.149432  0.900331  0.195861
    C   C85   0.632106  0.317189  0.818653  -0.117036
    C   C86   0.367888  0.682598  0.181352  -0.115078
    C   C87   0.367556  0.318062  0.181999  -0.130207
    C   C88   0.632368  0.682225  0.818012  -0.129690
    C   C89   0.132092  0.817368  0.818699  -0.115393
    C   C90   0.867910  0.182839  0.181301  -0.117129
    C   C91   0.867617  0.817810  0.182035  -0.130409
    C   C92   0.132460  0.181906  0.817952  -0.131057
    C   C93   0.681383  0.284141  0.772788  0.192544
    C   C94   0.318582  0.715588  0.227211  0.193739
    C   C95   0.318883  0.283554  0.227256  0.183406
    C   C96   0.680960  0.716963  0.772847  0.185392
    C   C97   0.181398  0.784377  0.772843  0.193996
    C   C98   0.818633  0.215888  0.227163  0.192588
    C   C99   0.819025  0.783074  0.227206  0.186160
    C   C100  0.181133  0.216413  0.772689  0.184261
    C   C101  0.710454  0.269449  0.817761  -0.355866
    C   C102  0.289559  0.730322  0.182149  -0.359317
    C   C103  0.290171  0.267837  0.182017  -0.311093
    C   C104  0.709633  0.732784  0.818134  -0.314773
    C   C105  0.210420  0.769645  0.817909  -0.359670
    C   C106  0.789564  0.230578  0.182185  -0.355891
    C   C107  0.790349  0.767253  0.181924  -0.315439
    C   C108  0.209846  0.232134  0.817924  -0.311369
    H   H29   0.747777  0.241066  0.785020  0.160570
    H   H30   0.252261  0.758769  0.214822  0.160879
    H   H31   0.253747  0.237376  0.214019  0.164464
    H   H32   0.746008  0.763364  0.786200  0.165382
    H   H33   0.247717  0.741197  0.785238  0.160987
    H   H34   0.752241  0.258959  0.214924  0.160416
    H   H35   0.753973  0.736675  0.213865  0.165539
    H   H36   0.246270  0.262594  0.785916  0.164478
    C   C109  0.692179  0.290802  0.905632  0.511184
    C   C110  0.307909  0.709088  0.094209  0.515266
    C   C111  0.307152  0.291865  0.095426  0.336870
    C   C112  0.692697  0.708641  0.904671  0.344297
    C   C113  0.192069  0.790883  0.905847  0.515812
    C   C114  0.807842  0.209222  0.094315  0.511417
    C   C115  0.807283  0.791393  0.095386  0.344796
    C   C116  0.192866  0.208113  0.904518  0.337388
    C   C117  0.666066  0.165270  0.014007  -0.149071
    C   C118  0.332590  0.836223  0.988819  -0.155940
    C   C119  0.349690  0.191694  0.951356  -0.157657
    C   C120  0.650468  0.808883  0.048722  -0.153782
    C   C121  0.167387  0.663748  0.011238  -0.155243
    C   C122  0.833955  0.334753  0.985938  -0.148572
    C   C123  0.849512  0.691155  0.951330  -0.153916
    C   C124  0.150332  0.308292  0.048576  -0.158065
    C   C125  0.652316  0.103891  0.065560  -0.098608
    C   C126  0.345532  0.898489  0.938951  -0.092603
    C   C127  0.371997  0.143765  0.881478  -0.092092
    C   C128  0.628344  0.856908  0.118538  -0.096640
    C   C129  0.154442  0.601485  0.061112  -0.092784
    C   C130  0.847703  0.396135  0.934388  -0.098827
    C   C131  0.871639  0.643137  0.881508  -0.096639
    C   C132  0.128024  0.356219  0.118457  -0.091739
    C   C133  0.679971  0.084243  0.110338  -0.131272
    C   C134  0.317707  0.918294  0.894522  -0.134693
    C   C135  0.344889  0.123623  0.836073  -0.062786
    C   C136  0.655558  0.876838  0.163848  -0.062239
    C   C137  0.182263  0.581685  0.105551  -0.134525
    C   C138  0.820049  0.415781  0.889608  -0.130624
    C   C139  0.844425  0.623206  0.836199  -0.062321
    C   C140  0.155129  0.376354  0.163869  -0.063128
    C   C141  0.721651  0.125614  0.103621  -0.193322
    C   C142  0.276712  0.876154  0.899799  -0.191852
    C   C143  0.295098  0.150668  0.860919  -0.230178
    C   C144  0.705246  0.849426  0.139039  -0.235564
    C   C145  0.223259  0.623824  0.100272  -0.192500
    C   C146  0.778371  0.374407  0.896320  -0.194950
    C   C147  0.794734  0.650612  0.861015  -0.235658
    C   C148  0.204921  0.349310  0.139023  -0.229993
    C   C149  0.736088  0.187916  0.051978  0.176865
    C   C150  0.263085  0.812978  0.949755  0.176398
    C   C151  0.272385  0.200849  0.929820  0.147205
    C   C152  0.727781  0.799197  0.070156  0.156735
    C   C153  0.236890  0.686997  0.050309  0.177194
    C   C154  0.763935  0.312105  0.947963  0.180580
    C   C155  0.772198  0.700836  0.929903  0.156500
    C   C156  0.227635  0.299132  0.070118  0.147553
    C   C157  0.707928  0.208102  0.006785  0.132530
    C   C158  0.291357  0.792693  0.994726  0.135837
    C   C159  0.300108  0.221833  0.975513  0.121873
    C   C160  0.699977  0.778483  0.024502  0.121484
    C   C161  0.208620  0.707280  0.005333  0.134938
    C   C162  0.792095  0.291920  0.993157  0.129656
    C   C163  0.800001  0.721550  0.975557  0.121993
    C   C164  0.199913  0.278149  0.024424  0.121776
    C   C165  0.778340  0.229665  0.045272  -0.321965
    C   C166  0.221564  0.770415  0.954907  -0.325021
    C   C167  0.222097  0.228813  0.954117  -0.235106
    C   C168  0.777973  0.770905  0.045860  -0.245626
    C   C169  0.278413  0.729558  0.045152  -0.325326
    C   C170  0.721682  0.270357  0.954670  -0.324987
    C   C171  0.722005  0.729126  0.954201  -0.244857
    C   C172  0.277923  0.271168  0.045822  -0.235364
    H   H37   0.642994  0.178023  0.980195  0.065789
    H   H38   0.355865  0.823253  0.022203  0.067194
    H   H39   0.372549  0.204170  0.985552  0.084423
    H   H40   0.627535  0.796541  0.014620  0.082941
    H   H41   0.144116  0.676713  0.977845  0.066876
    H   H42   0.857027  0.322001  0.019750  0.065650
    H   H43   0.872446  0.703496  0.985433  0.082992
    H   H44   0.127475  0.295820  0.014376  0.084530
    H   H45   0.619691  0.071032  0.070769  0.105156
    H   H46   0.377677  0.931897  0.934733  0.103607
    H   H47   0.410815  0.121552  0.862734  0.096829
    H   H48   0.589593  0.879370  0.137309  0.098044
    H   H49   0.122299  0.568076  0.065328  0.103648
    H   H50   0.880324  0.428999  0.929188  0.105176
    H   H51   0.910393  0.620682  0.862727  0.098069
    H   H52   0.089208  0.378435  0.137196  0.096785
    H   H53   0.669037  0.036149  0.150949  0.125835
    H   H54   0.327936  0.967141  0.855361  0.126677
    H   H55   0.362407  0.085656  0.781417  0.095626
    H   H56   0.638181  0.914845  0.218480  0.096968
    H   H57   0.172030  0.532844  0.144721  0.126654
    H   H58   0.830980  0.463878  0.849003  0.125742
    H   H59   0.861804  0.585206  0.781559  0.097011
    H   H60   0.137610  0.414319  0.218527  0.095686
    H   H61   0.742145  0.107368  0.139896  0.099769
    H   H62   0.256059  0.894554  0.863853  0.098900
    H   H63   0.274997  0.130786  0.824787  0.133751
    H   H64   0.725398  0.869037  0.175215  0.134402
    H   H65   0.243908  0.605428  0.136227  0.099180
    H   H66   0.757880  0.392652  0.860041  0.100089
    H   H67   0.774582  0.630999  0.824841  0.134474
    H   H68   0.225019  0.369188  0.175160  0.133722
    O   O33   0.060781  0.071680  0.020111  -0.623787
    O   O34   0.939106  0.928327  0.980041  -0.623701
    O   O35   0.939998  0.072711  0.978845  -0.619193
    O   O36   0.059886  0.927306  0.021305  -0.619011
    O   O37   0.560887  0.571676  0.019979  -0.623461
    O   O38   0.439228  0.428321  0.979866  -0.623419
    O   O39   0.440107  0.572696  0.978717  -0.619130
    O   O40   0.560011  0.427291  0.021130  -0.619236
    O   O41   0.948259  0.076223  0.107580  -0.593160
    O   O42   0.051625  0.923796  0.892570  -0.592907
    O   O43   0.052563  0.074627  0.891302  -0.589079
    O   O44   0.947325  0.925383  0.108844  -0.589177
    O   O45   0.448367  0.576183  0.107453  -0.593078
    O   O46   0.551751  0.423801  0.892394  -0.593222
    O   O47   0.552668  0.574642  0.891177  -0.589022
    O   O48   0.447446  0.425352  0.108675  -0.588734
    C   C173  0.074337  0.097559  0.940030  0.527215
    C   C174  0.925563  0.902427  0.060111  0.527994
    C   C175  0.926737  0.099347  0.058512  0.565083
    C   C176  0.073150  0.900675  0.941632  0.566063
    C   C177  0.574427  0.597592  0.939917  0.527781
    C   C178  0.425674  0.402427  0.059939  0.526398
    C   C179  0.426839  0.599312  0.058398  0.566578
    C   C180  0.573275  0.400670  0.941456  0.565065
    Zn  Zn9   0.502887  0.500198  0.087046  1.242848
    Zn  Zn10  0.497233  0.499791  0.912800  1.243214
    Zn  Zn11  0.002768  0.000226  0.087198  1.243429
    Zn  Zn12  0.997115  0.999789  0.912953  1.242938
    Cl  Cl1   0.585722  0.309591  0.777146  -0.058730
    Cl  Cl2   0.414204  0.690117  0.223017  -0.059020
    Cl  Cl3   0.414329  0.310498  0.222691  -0.058657
    Cl  Cl4   0.585607  0.689508  0.777258  -0.058835
    Cl  Cl5   0.085775  0.809839  0.777036  -0.059079
    Cl  Cl6   0.914293  0.190444  0.222809  -0.058854
    Cl  Cl7   0.914378  0.810534  0.222792  -0.058747
    Cl  Cl8   0.085688  0.189460  0.777257  -0.058421
