# Generated by REPEAT Assigner based on pymatgen
data_DB0-m3_o32_o2_xbe
_audit_creation_date              2022-05-24
_audit_creation_method            REPEAT_Assigner
_cell_length_a                    30.485849
_cell_length_b                    24.207584
_cell_length_c                    24.212952
_cell_angle_alpha                 90.666862
_cell_angle_beta                  84.498570
_cell_angle_gamma                 59.097084
_cell_volume                      15222.757782
_symmetry_space_group_name_H-M    P1
_symmetry_Int_Tables_number       1
loop_
    _symmetry_equiv_pos_site_id
    _symmetry_equiv_pos_as_xyz
    1  x,y,z
loop_
    _atom_site_type_symbol
    _atom_site_label
    _atom_site_fract_x
    _atom_site_fract_y
    _atom_site_fract_z
    _atom_type_partial_charge
    O   O1    0.452501  0.592711  0.559817  -0.683958
    O   O2    0.582132  0.455172  0.527084  -0.697504
    O   O3    0.545064  0.551964  0.488570  -0.703266
    O   O4    0.489459  0.496055  0.598531  -0.689152
    C   C1    0.461351  0.559255  0.603954  0.673666
    C   C2    0.584551  0.504573  0.509099  0.680406
    O   O5    0.455062  0.448132  0.517542  -0.704232
    O   O6    0.511024  0.504412  0.408187  -0.682486
    O   O7    0.548379  0.407814  0.447016  -0.687362
    O   O8    0.417980  0.545106  0.479381  -0.700486
    Zn  Zn1   0.475748  0.563574  0.478204  1.307190
    Zn  Zn2   0.524263  0.436894  0.528467  1.309076
    C   C3    0.415613  0.495519  0.496932  0.678575
    C   C4    0.539790  0.441257  0.402893  0.673904
    O   O9    0.985220  0.515209  0.591608  -0.692150
    O   O10   0.089306  0.444661  0.476180  -0.694844
    O   O11   0.045662  0.547028  0.516389  -0.708155
    O   O12   0.028842  0.413136  0.550706  -0.688661
    C   C5    0.008997  0.452621  0.595680  0.682731
    C   C6    0.089228  0.495256  0.496388  0.675783
    O   O13   0.956493  0.449151  0.475687  -0.708091
    O   O14   0.972568  0.582958  0.441108  -0.689185
    O   O15   0.016679  0.480807  0.400346  -0.696048
    O   O16   0.913183  0.551367  0.516263  -0.693842
    Zn  Zn3   0.972675  0.564959  0.522470  1.310915
    Zn  Zn4   0.029596  0.431189  0.469495  1.312430
    C   C7    0.913068  0.500935  0.496085  0.680578
    C   C8    0.992229  0.543383  0.396166  0.684194
    C   C9    0.355249  0.691024  0.814325  0.023429
    C   C10   0.304125  0.792293  0.868597  -0.018449
    C   C11   0.295610  0.701608  0.891548  0.018696
    C   C12   0.343077  0.753485  0.826964  -0.136589
    H   H1    0.363221  0.772401  0.802483  0.076747
    C   C13   0.280974  0.765488  0.901051  -0.112057
    H   H2    0.248094  0.795475  0.931129  0.104230
    C   C14   0.332136  0.664691  0.847438  -0.161243
    H   H3    0.340897  0.616206  0.837545  0.106727
    C   C15   0.379950  0.690591  0.714417  -0.127845
    C   C16   0.405334  0.658891  0.663572  -0.175862
    C   C17   0.437658  0.592753  0.658960  0.063414
    C   C18   0.445423  0.558753  0.706127  -0.145200
    C   C19   0.420023  0.590618  0.757243  -0.153555
    C   C20   0.386740  0.656779  0.761644  0.135163
    H   H4    0.398188  0.686561  0.627322  0.130034
    H   H5    0.470654  0.506921  0.703466  0.126380
    H   H6    0.352810  0.741917  0.715945  0.113482
    H   H7    0.426319  0.563137  0.793561  0.109856
    C   C21   0.249022  0.642547  0.898503  -0.132645
    C   C22   0.215749  0.628103  0.928322  -0.174868
    C   C23   0.200358  0.647574  0.984251  0.079137
    C   C24   0.220796  0.678742  0.010529  -0.121456
    C   C25   0.253887  0.693287  0.980723  -0.180925
    C   C26   0.267128  0.676881  0.924269  0.111350
    H   H8    0.200834  0.602963  0.906932  0.112331
    H   H9    0.208682  0.695899  0.053836  0.112370
    H   H10   0.258041  0.630107  0.854217  0.112789
    H   H11   0.268010  0.719602  0.001812  0.109986
    C   C27   0.282130  0.894372  0.825185  -0.160621
    C   C28   0.253876  0.960575  0.826232  -0.149965
    C   C29   0.222780  0.996975  0.873762  0.067019
    C   C30   0.225283  0.966163  0.922142  -0.116623
    C   C31   0.255298  0.899828  0.921695  -0.205053
    C   C32   0.281914  0.862925  0.872516  0.153465
    H   H12   0.254869  0.982926  0.788176  0.103646
    H   H13   0.201563  0.992640  0.960196  0.110376
    H   H14   0.301347  0.868434  0.785453  0.127300
    H   H15   0.255571  0.877476  0.960092  0.120375
    C   C33   0.650199  0.310570  0.193285  0.026073
    C   C34   0.703684  0.303519  0.110691  0.016499
    C   C35   0.699685  0.211094  0.137035  -0.026764
    C   C36   0.669355  0.339009  0.156984  -0.165341
    H   H16   0.659482  0.388094  0.166190  0.104188
    C   C37   0.718259  0.239625  0.100650  -0.109291
    H   H17   0.748361  0.209769  0.067672  0.098612
    C   C38   0.664976  0.246883  0.182407  -0.130446
    H   H18   0.650636  0.223716  0.210331  0.078072
    C   C39   0.582882  0.409793  0.249927  -0.138699
    C   C40   0.556028  0.441341  0.300696  -0.153492
    C   C41   0.565432  0.407916  0.348277  0.061568
    C   C42   0.601586  0.342807  0.344603  -0.164093
    C   C43   0.628633  0.311541  0.294188  -0.143836
    C   C44   0.619513  0.344619  0.246375  0.129888
    H   H19   0.527919  0.492411  0.302694  0.125141
    H   H20   0.610355  0.315774  0.381262  0.129409
    H   H21   0.574692  0.436617  0.213128  0.108077
    H   H22   0.658381  0.261263  0.293384  0.119179
    C   C45   0.744530  0.108963  0.180294  -0.181689
    C   C46   0.772392  0.042792  0.177743  -0.136957
    C   C47   0.779178  0.007008  0.129264  0.068007
    C   C48   0.757617  0.039297  0.083136  -0.154286
    C   C49   0.730942  0.105977  0.085356  -0.176643
    C   C50   0.724177  0.140922  0.134118  0.179616
    H   H23   0.790706  0.020170  0.213798  0.113612
    H   H24   0.761469  0.013141  0.044790  0.114332
    H   H25   0.741424  0.135522  0.218118  0.121587
    H   H26   0.715249  0.130620  0.048804  0.112547
    C   C51   0.749227  0.363726  0.102108  -0.119748
    C   C52   0.782170  0.378305  0.071766  -0.187475
    C   C53   0.797106  0.358846  0.015825  0.084772
    C   C54   0.776292  0.327780  0.990052  -0.119783
    C   C55   0.743427  0.313174  0.020382  -0.186707
    C   C56   0.730789  0.329400  0.076905  0.110965
    H   H27   0.797312  0.403383  0.092823  0.113712
    H   H28   0.788003  0.310632  0.946719  0.112039
    H   H29   0.740965  0.375868  0.146438  0.110581
    H   H30   0.729175  0.286801  0.999637  0.112965
    C   C57   0.933661  0.741683  0.132229  -0.011232
    C   C58   0.024408  0.667053  0.107894  0.027663
    C   C59   0.979308  0.650433  0.185976  0.039318
    C   C60   0.979337  0.722692  0.099030  -0.123332
    H   H31   0.981351  0.753881  0.068780  0.105558
    C   C61   0.024448  0.631349  0.151986  -0.172408
    H   H32   0.060142  0.590296  0.161422  0.106212
    C   C62   0.933853  0.703354  0.174205  -0.146267
    H   H33   0.898681  0.715478  0.199730  0.078802
    C   C63   0.880119  0.836791  0.079112  -0.197672
    C   C64   0.843348  0.901380  0.078464  -0.125167
    C   C65   0.812236  0.936073  0.126675  0.074039
    C   C66   0.816329  0.903722  0.174329  -0.154697
    C   C67   0.854393  0.840204  0.175625  -0.159384
    C   C68   0.887824  0.806236  0.128367  0.148092
    H   H34   0.841667  0.924640  0.040305  0.112033
    H   H35   0.791308  0.928126  0.212284  0.105052
    H   H36   0.903956  0.811625  0.040731  0.120155
    H   H37   0.858845  0.819725  0.215475  0.128510
    C   C69   0.954013  0.660836  0.286646  -0.117017
    C   C70   0.957556  0.635279  0.337540  -0.182572
    C   C71   0.987368  0.569554  0.341439  0.068110
    C   C72   0.013235  0.529467  0.293701  -0.159856
    C   C73   0.010134  0.555244  0.242628  -0.146552
    C   C74   0.980431  0.621151  0.238879  0.127935
    H   H38   0.937132  0.667657  0.374214  0.131217
    H   H39   0.036900  0.477851  0.295890  0.132680
    H   H40   0.931920  0.712683  0.285168  0.108652
    H   H41   0.031018  0.523406  0.205743  0.109196
    C   C75   0.073480  0.660197  0.018355  -0.178304
    C   C76   0.116170  0.655285  0.988295  -0.124757
    C   C77   0.158726  0.641925  0.014181  0.071498
    C   C78   0.158952  0.630067  0.069906  -0.169994
    C   C79   0.116218  0.634888  0.099975  -0.126496
    C   C80   0.072652  0.651796  0.074678  0.107518
    H   H42   0.114314  0.666187  0.945150  0.113671
    H   H43   0.191982  0.618706  0.090985  0.109356
    H   H44   0.040042  0.672762  0.997579  0.110785
    H   H45   0.116360  0.629160  0.144147  0.109870
    C   C81   0.972924  0.336650  0.889435  0.022881
    C   C82   0.016764  0.346085  0.805656  0.039044
    C   C83   0.061743  0.257783  0.861897  -0.008270
    C   C84   0.972713  0.369487  0.842886  -0.173792
    H   H46   0.937416  0.411618  0.834012  0.103074
    C   C85   0.061198  0.290711  0.815832  -0.146981
    H   H47   0.095779  0.271774  0.786876  0.083939
    C   C86   0.017931  0.281193  0.899108  -0.122530
    H   H48   0.017785  0.252162  0.932587  0.100988
    C   C87   0.880763  0.370638  0.898983  -0.114423
    C   C88   0.838106  0.375879  0.929591  -0.183471
    C   C89   0.838616  0.364451  0.985378  0.077701
    C   C90   0.881345  0.351489  0.010809  -0.121655
    C   C91   0.923978  0.346269  0.980210  -0.186418
    C   C92   0.924591  0.353933  0.923755  0.109656
    H   H49   0.804976  0.386984  0.908808  0.111010
    H   H50   0.883449  0.340974  0.054033  0.112910
    H   H51   0.880348  0.375558  0.854729  0.108136
    H   H52   0.957554  0.333796  0.000679  0.114364
    C   C93   0.127403  0.172689  0.914055  -0.170972
    C   C94   0.167029  0.109742  0.916612  -0.154607
    C   C95   0.184052  0.065822  0.870851  0.068605
    C   C96   0.161304  0.086479  0.822478  -0.133465
    C   C97   0.122984  0.149440  0.819603  -0.181181
    C   C98   0.105499  0.192712  0.865348  0.167330
    H   H53   0.184239  0.095636  0.954860  0.113898
    H   H54   0.171173  0.053439  0.786770  0.113044
    H   H55   0.113922  0.206270  0.950234  0.111328
    H   H56   0.104895  0.163618  0.781826  0.120521
    C   C99   0.989615  0.440820  0.749067  -0.141771
    C   C100  0.988150  0.466557  0.698192  -0.160539
    C   C101  0.011945  0.426298  0.650196  0.062944
    C   C102  0.037360  0.360320  0.653546  -0.163981
    C   C103  0.039006  0.334748  0.704190  -0.141697
    C   C104  0.015298  0.374691  0.752313  0.131928
    H   H57   0.967833  0.518382  0.696444  0.131039
    H   H58   0.055792  0.327782  0.616652  0.126948
    H   H59   0.971067  0.472852  0.786264  0.109062
    H   H60   0.057851  0.282936  0.705258  0.117491
    C   C105  0.229658  0.438453  0.477524  -0.123876
    H   H61   0.265406  0.394973  0.462271  0.107855
    C   C106  0.184134  0.439034  0.477913  -0.164646
    H   H62   0.185409  0.395696  0.463725  0.128562
    C   C107  0.137723  0.494327  0.496142  0.085901
    C   C108  0.137365  0.549024  0.513853  -0.167480
    H   H63   0.101615  0.592821  0.528442  0.136560
    C   C109  0.182821  0.548585  0.512993  -0.129143
    H   H64   0.181556  0.591700  0.527844  0.109359
    C   C110  0.229307  0.493322  0.494837  0.078228
    C   C111  0.320929  0.440535  0.510850  -0.134171
    H   H65   0.319629  0.399231  0.525157  0.110192
    C   C112  0.365896  0.441117  0.511493  -0.159005
    H   H66   0.398925  0.399851  0.525515  0.132716
    C   C113  0.368319  0.494004  0.494900  0.080764
    C   C114  0.325352  0.546136  0.477416  -0.160894
    H   H67   0.326267  0.588018  0.464123  0.130726
    C   C115  0.280300  0.545758  0.477239  -0.127771
    H   H68   0.247374  0.586871  0.462897  0.108298
    C   C116  0.277685  0.493064  0.494116  0.079011
    C   C117  0.818428  0.448394  0.483604  -0.132365
    H   H69   0.819045  0.405457  0.469516  0.109845
    C   C118  0.864141  0.447596  0.480761  -0.164733
    H   H70   0.899555  0.403707  0.465479  0.136191
    C   C119  0.864444  0.502093  0.497605  0.078565
    C   C120  0.818518  0.557515  0.516884  -0.158411
    H   H71   0.817759  0.600687  0.530507  0.127175
    C   C121  0.772790  0.558449  0.519264  -0.128069
    H   H72   0.737475  0.602005  0.535416  0.108157
    C   C122  0.772442  0.503820  0.502886  0.081940
    C   C123  0.721103  0.452413  0.523881  -0.132087
    H   H73   0.754403  0.410996  0.537336  0.109680
    C   C124  0.675569  0.452872  0.525963  -0.157314
    H   H74   0.674597  0.411270  0.539994  0.129532
    C   C125  0.632213  0.505437  0.509581  0.076274
    C   C126  0.634700  0.557896  0.491847  -0.159189
    H   H75   0.601386  0.599431  0.478555  0.132907
    C   C127  0.680128  0.557637  0.490230  -0.133164
    H   H76   0.681443  0.598606  0.475017  0.109413
    C   C128  0.723747  0.504691  0.505824  0.080595
