# Generated by REPEAT Assigner based on pymatgen
data_DB0-m2_o3_o16_f0_pcu.sym.84
_audit_creation_date              2022-05-24
_audit_creation_method            REPEAT_Assigner
_cell_length_a                    13.581827
_cell_length_b                    17.900030
_cell_length_c                    19.350789
_cell_angle_alpha                 89.984209
_cell_angle_beta                  89.993862
_cell_angle_gamma                 73.724773
_cell_volume                      4515.944786
_symmetry_space_group_name_H-M    P1
_symmetry_Int_Tables_number       1
loop_
    _symmetry_equiv_pos_site_id
    _symmetry_equiv_pos_as_xyz
    1  x,y,z
loop_
    _atom_site_type_symbol
    _atom_site_label
    _atom_site_fract_x
    _atom_site_fract_y
    _atom_site_fract_z
    _atom_type_partial_charge
    O   O1   0.479184  0.432524  0.595946  -0.579980
    O   O2   0.477639  0.561274  0.596993  -0.599019
    C   C1   0.477447  0.496829  0.628927  0.680808
    O   O3   0.633398  0.404270  0.498559  -0.617510
    O   O4   0.628369  0.533016  0.502524  -0.569832
    C   C2   0.679677  0.459507  0.497610  0.741640
    Cu  Cu1  0.484842  0.422009  0.495447  0.876347
    Cu  Cu2  0.479270  0.572460  0.496653  0.896014
    O   O5   0.482475  0.434094  0.395131  -0.614136
    O   O6   0.488779  0.561078  0.396262  -0.599276
    O   O7   0.335430  0.461155  0.496411  -0.586702
    O   O8   0.330634  0.590538  0.494764  -0.626510
    C   C3   0.486314  0.497679  0.363257  0.656746
    C   C4   0.285103  0.534987  0.492436  0.719435
    C   C5   0.019458  0.644987  0.444170  -0.260588
    H   H1   0.162121  0.671313  0.447793  0.112277
    H   H2   0.829571  0.663146  0.411566  0.130057
    H   H3   0.980321  0.701186  0.422615  0.139337
    C   C6   0.173387  0.556034  0.484095  -0.097894
    C   C7   0.841448  0.362844  0.523536  -0.028195
    C   C8   0.946036  0.338477  0.531781  0.020191
    C   C9   0.003546  0.389302  0.518902  -0.138965
    C   C10  0.958139  0.464633  0.495086  -0.051133
    C   C11  0.852745  0.486662  0.481767  0.272124
    C   C12  0.015688  0.517907  0.482726  0.061382
    C   C13  0.967036  0.590272  0.455248  0.228175
    C   C14  0.865879  0.608244  0.436419  -0.232301
    C   C15  0.809915  0.556712  0.448002  -0.246443
    C   C16  0.120446  0.501731  0.497082  -0.149115
    C   C17  0.122122  0.628303  0.458819  -0.069880
    C   C18  0.793214  0.436796  0.499822  -0.281860
    H   H4   0.164068  0.447686  0.519233  0.109677
    H   H5   0.796995  0.323909  0.538125  0.093124
    H   H6   0.084893  0.366005  0.524658  0.121553
    H   H7   0.733374  0.572671  0.427360  0.165300
    C   C19  0.514013  0.555241  0.251052  -0.151012
    H   H8   0.534717  0.601638  0.277792  0.117332
    C   C20  0.516898  0.553288  0.179751  -0.110527
    H   H9   0.540135  0.597973  0.152047  0.097616
    C   C21  0.492659  0.493874  0.144119  0.133385
    C   C22  0.462383  0.437759  0.180667  -0.137367
    H   H10  0.438891  0.392705  0.153782  0.092773
    C   C23  0.461220  0.438830  0.251856  -0.105845
    H   H11  0.437911  0.393867  0.279072  0.119429
    C   C24  0.487394  0.497396  0.287494  -0.028514
    C   C25  0.543063  0.426135  0.030513  0.036426
    C   C26  0.536771  0.427463  0.959187  -0.161409
    H   H12  0.577567  0.376339  0.930562  0.090682
    C   C27  0.484827  0.494335  0.924370  0.011728
    C   C28  0.438411  0.560469  0.961881  -0.110004
    H   H13  0.395314  0.613152  0.936303  0.107178
    C   C29  0.443371  0.559497  0.032990  -0.171418
    H   H14  0.403819  0.611290  0.061250  0.109412
    C   C30  0.494829  0.492739  0.068083  0.012840
    C   C31  0.487679  0.560332  0.812115  -0.185141
    H   H15  0.497561  0.610708  0.838857  0.115287
    C   C32  0.485633  0.560974  0.740904  -0.067823
    H   H16  0.492401  0.612296  0.714155  0.103324
    C   C33  0.477156  0.496506  0.704733  -0.079880
    C   C34  0.469865  0.431591  0.740727  -0.068728
    H   H17  0.462420  0.380599  0.713770  0.095649
    C   C35  0.471444  0.431098  0.812012  -0.182124
    H   H18  0.463618  0.380120  0.838848  0.120544
    C   C36  0.480835  0.495349  0.848325  0.154217
    C   C37  0.548644  0.259454  0.539683  0.042437
    H   H19  0.597379  0.279527  0.575032  0.120245
    C   C38  0.548604  0.182389  0.540967  -0.207285
    H   H20  0.598849  0.143037  0.576590  0.105074
    C   C39  0.486703  0.156146  0.495896  0.148146
    C   C40  0.425101  0.208718  0.450784  -0.215097
    H   H21  0.373260  0.191209  0.416126  0.117367
    C   C41  0.426742  0.285328  0.451085  0.043339
    H   H22  0.377258  0.326217  0.416206  0.116959
    N   N1   0.489057  0.309400  0.494502  -0.101031
    C   C42  0.478341  0.036621  0.434729  -0.143859
    H   H23  0.476607  0.066035  0.385795  0.116020
    C   C43  0.476637  0.959976  0.434774  -0.137999
    H   H24  0.473782  0.931596  0.385854  0.117136
    C   C44  0.481771  0.919686  0.496251  0.060260
    C   C45  0.488994  0.957339  0.557662  -0.126461
    H   H25  0.490492  0.928059  0.606640  0.111472
    C   C46  0.490931  0.033959  0.557591  -0.151738
    H   H26  0.493965  0.062439  0.606455  0.120069
    C   C47  0.485514  0.074245  0.496118  0.082472
    C   C48  0.539506  0.785269  0.542329  -0.210842
    H   H27  0.590602  0.802485  0.577788  0.112100
    C   C49  0.536930  0.708869  0.541929  0.063649
    H   H28  0.584862  0.668041  0.577601  0.109237
    N   N2   0.475426  0.685004  0.497704  -0.118472
    C   C50  0.418429  0.734785  0.451312  0.052184
    H   H29  0.370774  0.714772  0.415116  0.112678
    C   C51  0.419109  0.811734  0.450288  -0.222323
    H   H30  0.370261  0.851042  0.413975  0.114703
    C   C52  0.479817  0.837886  0.496380  0.157379
    C   C53  0.605126  0.354565  0.063620  0.058901
    C   C54  0.685235  0.356074  0.107190  -0.043598
    C   C55  0.743815  0.288266  0.137193  0.028493
    Cl  Cl1  0.844800  0.290605  0.192611  -0.102005
    C   C56  0.723168  0.218630  0.123446  -0.068083
    C   C57  0.644343  0.216687  0.079296  -0.187862
    C   C58  0.585870  0.284378  0.049108  -0.080378
    H   H31  0.702921  0.410225  0.117550  0.073598
    H   H32  0.769005  0.165522  0.147069  0.099405
    H   H33  0.628252  0.162062  0.068366  0.133547
    H   H34  0.523730  0.282338  0.014925  0.090863
    C   C59  0.996000  0.258551  0.554918  0.036631
    C   C60  0.965811  0.196862  0.527874  -0.040220
    C   C61  0.012995  0.121771  0.548965  0.016491
    Cl  Cl2  0.974865  0.044107  0.513862  -0.105327
    C   C62  0.090378  0.107701  0.597358  -0.051920
    C   C63  0.120597  0.168810  0.624718  -0.156932
    C   C64  0.073779  0.243969  0.603587  -0.127837
    H   H35  0.906541  0.206552  0.488928  0.082869
    H   H36  0.127293  0.048802  0.613845  0.087729
    H   H37  0.181006  0.157839  0.662950  0.126156
    H   H38  0.097417  0.291198  0.626549  0.108780
