# Generated by REPEAT Assigner based on pymatgen
data_DB0-m2_o2_o13_f0_pcu.sym.78
_audit_creation_date              2022-05-24
_audit_creation_method            REPEAT_Assigner
_cell_length_a                    12.994381
_cell_length_b                    15.109510
_cell_length_c                    13.679006
_cell_angle_alpha                 89.996765
_cell_angle_beta                  95.452517
_cell_angle_gamma                 90.003624
_cell_volume                      2673.566613
_symmetry_space_group_name_H-M    P1
_symmetry_Int_Tables_number       1
loop_
    _symmetry_equiv_pos_site_id
    _symmetry_equiv_pos_as_xyz
    1  x,y,z
loop_
    _atom_site_type_symbol
    _atom_site_label
    _atom_site_fract_x
    _atom_site_fract_y
    _atom_site_fract_z
    _atom_type_partial_charge
    O   O1   0.500726  0.369106  0.583479  -0.603292
    O   O2   0.498165  0.625426  0.415233  -0.632279
    O   O3   0.498208  0.368209  0.414826  -0.600397
    O   O4   0.503040  0.626278  0.583260  -0.616722
    C   C1   0.500061  0.327164  0.499308  0.618586
    C   C2   0.501452  0.667349  0.499159  0.678630
    O   O5   0.347912  0.501915  0.566574  -0.671224
    O   O6   0.652046  0.493592  0.431988  -0.629161
    O   O7   0.351583  0.493794  0.399541  -0.666192
    O   O8   0.648301  0.499851  0.599537  -0.658862
    C   C3   0.300595  0.498739  0.477663  0.856248
    C   C4   0.699091  0.495650  0.521189  0.796073
    Cu  Cu1  0.498037  0.497287  0.596866  0.911223
    Cu  Cu2  0.501832  0.497016  0.401766  0.920766
    C   C5   0.813406  0.495207  0.532391  -0.330569
    C   C6   0.186283  0.501813  0.466340  -0.286317
    C   C7   0.021433  0.515835  0.371838  -0.343013
    C   C8   0.978000  0.481791  0.627674  -0.472388
    C   C9   0.128532  0.514914  0.375804  0.299252
    C   C10  0.870923  0.484012  0.623095  0.393101
    C   C11  0.134635  0.490798  0.549545  -0.154608
    C   C12  0.865260  0.505074  0.449164  -0.107362
    C   C13  0.028113  0.492016  0.544045  0.237094
    C   C14  0.971813  0.503987  0.455184  0.101630
    H   H1   0.823274  0.514389  0.377791  0.118389
    H   H2   0.177328  0.480471  0.620246  0.116972
    H   H3   0.974527  0.527044  0.303666  0.160025
    H   H4   0.023521  0.471372  0.696959  0.188484
    C   C15  0.475205  0.092732  0.580912  -0.102366
    C   C16  0.471010  0.901385  0.413552  -0.156292
    H   H5   0.452813  0.059020  0.645008  0.098362
    H   H6   0.445040  0.934539  0.345567  0.112654
    C   C17  0.475490  0.184086  0.581313  -0.182949
    C   C18  0.472177  0.810174  0.413661  -0.080265
    H   H7   0.454693  0.218602  0.646199  0.132675
    H   H8   0.448170  0.775669  0.346165  0.094388
    C   C19  0.500040  0.230194  0.499516  0.027014
    C   C20  0.501216  0.764345  0.499052  -0.022278
    C   C21  0.522457  0.183977  0.416872  -0.092462
    C   C22  0.528311  0.810869  0.584735  -0.152032
    H   H9   0.541340  0.219074  0.352016  0.098575
    H   H10  0.551799  0.776904  0.652451  0.127384
    C   C23  0.523953  0.092577  0.417192  -0.144016
    C   C24  0.529416  0.902093  0.584379  -0.115706
    H   H11  0.545678  0.058069  0.353111  0.109152
    H   H12  0.555752  0.936549  0.651641  0.101210
    C   C25  0.500261  0.045993  0.499136  0.059591
    C   C26  0.500429  0.948330  0.498882  0.078250
    C   C27  0.577349  0.540806  0.111675  -0.211671
    C   C28  0.464311  0.423731  0.889961  -0.184235
    H   H13  0.638479  0.575739  0.080323  0.132336
    H   H14  0.438310  0.364492  0.924595  0.115781
    C   C29  0.576297  0.542418  0.212359  0.000123
    C   C30  0.460488  0.426975  0.788855  0.000628
    H   H15  0.634120  0.579567  0.256640  0.119352
    H   H16  0.428887  0.370547  0.747444  0.116894
    N   N1   0.504102  0.496732  0.255712  -0.080267
    N   N2   0.494601  0.498894  0.742898  -0.025749
    C   C31  0.435436  0.446416  0.201358  0.115236
    C   C32  0.533067  0.568486  0.796010  -0.013347
    H   H17  0.380838  0.406565  0.236602  0.072807
    H   H18  0.561258  0.625743  0.759934  0.126055
    C   C33  0.432211  0.445290  0.100374  -0.224601
    C   C34  0.534730  0.568489  0.896913  -0.171320
    H   H19  0.371837  0.407326  0.059799  0.115051
    H   H20  0.560530  0.627558  0.936188  0.106034
    C   C35  0.502864  0.494261  0.053659  0.133721
    C   C36  0.500960  0.495300  0.945529  0.121753
    N   N3   0.821183  0.472408  0.709766  0.056308
    C   C37  0.813971  0.382630  0.743934  -0.069025
    C   C38  0.887046  0.365803  0.834985  0.346114
    O   O9   0.871036  0.428774  0.906491  -0.495211
    C   C39  0.906978  0.508982  0.872222  0.375251
    C   C40  0.838816  0.540710  0.782810  -0.228367
    H   H21  0.832484  0.336428  0.685212  0.001918
    H   H22  0.733678  0.370244  0.761568  0.034662
    H   H23  0.968647  0.364972  0.817629  -0.066482
    H   H24  0.869792  0.299461  0.864090  -0.010505
    H   H25  0.988915  0.504024  0.856766  -0.032373
    H   H26  0.903488  0.559088  0.930867  -0.021173
    H   H27  0.876094  0.598330  0.750336  0.036365
    H   H28  0.763223  0.562141  0.805885  0.078846
    N   N4   0.177924  0.530270  0.289249  -0.043026
    C   C41  0.142057  0.480387  0.202390  -0.246333
    C   C42  0.080683  0.536732  0.125326  0.274416
    O   O10  0.132876  0.615344  0.109090  -0.449194
    C   C43  0.134759  0.663878  0.195985  0.240377
    C   C44  0.207636  0.620689  0.274321  -0.017416
    H   H29  0.094636  0.423288  0.222053  0.064003
    H   H30  0.209739  0.453729  0.168818  0.109817
    H   H31  0.001296  0.549963  0.144643  0.007210
    H   H32  0.073002  0.498589  0.055742  0.009220
    H   H33  0.056446  0.670233  0.221070  -0.032452
    H   H34  0.163656  0.731397  0.182336  0.011931
    H   H35  0.205569  0.657888  0.343856  0.019021
    H   H36  0.287299  0.622670  0.251559  0.066545
