data_DB0-m3_o11_o29_f0_pcu.sym.19_repeat
_audit_creation_date              2024-02-23
_audit_creation_method            'Materials Studio'
_symmetry_space_group_name_H-M    'P1'
_symmetry_Int_Tables_number       1
_symmetry_cell_setting            triclinic
loop_
_symmetry_equiv_pos_as_xyz
  x,y,z
_cell_length_a                    27.6158
_cell_length_b                    11.1386
_cell_length_c                    9.9061
_cell_angle_alpha                 89.9974
_cell_angle_beta                  89.9930
_cell_angle_gamma                 89.9936
loop_
_atom_site_label
_atom_site_type_symbol
_atom_site_fract_x
_atom_site_fract_y
_atom_site_fract_z
_atom_site_U_iso_or_equiv
_atom_site_adp_type
_atom_site_occupancy
O1     O     0.49868   0.32439   0.62866   0.00000  Uiso   1.00
O2     O     0.50090   0.32323   0.39619   0.00000  Uiso   1.00
C1     C     0.49966   0.26773   0.51278   0.00000  Uiso   1.00
O3     O     0.42642   0.50361   0.61822   0.00000  Uiso   1.00
O4     O     0.42841   0.50131   0.38573   0.00000  Uiso   1.00
C2     C     0.40474   0.50240   0.50054   0.00000  Uiso   1.00
Zn1    Zn    0.49802   0.50371   0.66250   0.00000  Uiso   1.00
Zn2    Zn    0.50098   0.50150   0.35541   0.00000  Uiso   1.00
O5     O     0.49887   0.68186   0.62227   0.00000  Uiso   1.00
O6     O     0.50053   0.68115   0.38877   0.00000  Uiso   1.00
O7     O     0.57062   0.50318   0.63256   0.00000  Uiso   1.00
O8     O     0.57262   0.50253   0.39931   0.00000  Uiso   1.00
C3     C     0.49956   0.73738   0.50567   0.00000  Uiso   1.00
C4     C     0.59425   0.50294   0.51734   0.00000  Uiso   1.00
C5     C     0.17545   0.40080   0.48400   0.00000  Uiso   1.00
O9     O     0.20014   0.29728   0.47336   0.00000  Uiso   1.00
N1     N     0.19985   0.50499   0.49402   0.00000  Uiso   1.00
C6     C     0.17597   0.60973   0.50642   0.00000  Uiso   1.00
C7     C     0.27609   0.53188   0.61185   0.00000  Uiso   1.00
C8     C     0.32597   0.53015   0.61389   0.00000  Uiso   1.00
C9     C     0.32686   0.47664   0.38034   0.00000  Uiso   1.00
C10    C     0.27688   0.47602   0.37937   0.00000  Uiso   1.00
C11    C     0.25143   0.50428   0.49494   0.00000  Uiso   1.00
C12    C     0.10016   0.50615   0.49959   0.00000  Uiso   1.00
C13    C     0.12535   0.39996   0.48816   0.00000  Uiso   1.00
C14    C     0.10035   0.29352   0.48027   0.00000  Uiso   1.00
C15    C     0.12588   0.61175   0.50776   0.00000  Uiso   1.00
C16    C     0.35166   0.50309   0.49794   0.00000  Uiso   1.00
H1     H     0.34614   0.45463   0.28868   0.00000  Uiso   1.00
H2     H     0.25771   0.45468   0.28731   0.00000  Uiso   1.00
H3     H     0.11904   0.20897   0.46834   0.00000  Uiso   1.00
C17    C     0.64735   0.50410   0.51971   0.00000  Uiso   1.00
C18    C     0.97421   0.39989   0.51731   0.00000  Uiso   1.00
C19    C     0.97441   0.61524   0.49952   0.00000  Uiso   1.00
C20    C     0.94926   0.50797   0.50999   0.00000  Uiso   1.00
C21    C     0.94799   0.29511   0.54005   0.00000  Uiso   1.00
C22    C     0.89843   0.29727   0.54854   0.00000  Uiso   1.00
C23    C     0.87363   0.40340   0.53341   0.00000  Uiso   1.00
C24    C     0.89885   0.50877   0.51377   0.00000  Uiso   1.00
C25    C     0.87318   0.61442   0.49769   0.00000  Uiso   1.00
C26    C     0.82277   0.61183   0.50218   0.00000  Uiso   1.00
N2     N     0.79920   0.50760   0.52215   0.00000  Uiso   1.00
C27    C     0.82363   0.40429   0.53832   0.00000  Uiso   1.00
C28    C     0.72230   0.48214   0.63890   0.00000  Uiso   1.00
C29    C     0.67231   0.48211   0.63825   0.00000  Uiso   1.00
C30    C     0.67290   0.52721   0.40246   0.00000  Uiso   1.00
C31    C     0.72277   0.52936   0.40400   0.00000  Uiso   1.00
C32    C     0.74761   0.50641   0.52191   0.00000  Uiso   1.00
O10    O     0.79901   0.30145   0.55611   0.00000  Uiso   1.00
C33    C     0.02464   0.39897   0.50329   0.00000  Uiso   1.00
C34    C     0.04982   0.50671   0.50314   0.00000  Uiso   1.00
C35    C     0.02504   0.61502   0.50669   0.00000  Uiso   1.00
C36    C     0.05070   0.29268   0.48819   0.00000  Uiso   1.00
H4     H     0.65316   0.46328   0.73101   0.00000  Uiso   1.00
H5     H     0.74158   0.46442   0.73175   0.00000  Uiso   1.00
H6     H     0.87964   0.21377   0.56679   0.00000  Uiso   1.00
H7     H     0.96459   0.20915   0.55724   0.00000  Uiso   1.00
H8     H     0.03391   0.20618   0.47694   0.00000  Uiso   1.00
O11    O     0.20117   0.71262   0.51543   0.00000  Uiso   1.00
C37    C     0.10144   0.71872   0.51925   0.00000  Uiso   1.00
H9     H     0.34446   0.55177   0.70689   0.00000  Uiso   1.00
H10    H     0.25631   0.55361   0.70281   0.00000  Uiso   1.00
H11    H     0.12061   0.80282   0.52897   0.00000  Uiso   1.00
C38    C     0.94819   0.72038   0.47983   0.00000  Uiso   1.00
C39    C     0.89841   0.72017   0.47562   0.00000  Uiso   1.00
O12    O     0.79668   0.71301   0.48978   0.00000  Uiso   1.00
C40    C     0.05173   0.72068   0.51832   0.00000  Uiso   1.00
H12    H     0.96511   0.80568   0.46130   0.00000  Uiso   1.00
H13    H     0.65434   0.54526   0.30860   0.00000  Uiso   1.00
H14    H     0.74241   0.54782   0.31190   0.00000  Uiso   1.00
H15    H     0.03551   0.80754   0.53237   0.00000  Uiso   1.00
C41    C     0.50051   0.93725   0.39983   0.00000  Uiso   1.00
C42    C     0.49963   0.86880   0.51076   0.00000  Uiso   1.00
H16    H     0.50121   0.89446   0.30162   0.00000  Uiso   1.00
H17    H     0.49894   0.90719   0.61066   0.00000  Uiso   1.00
C43    C     0.50057   0.07035   0.40270   0.00000  Uiso   1.00
C44    C     0.49970   0.13617   0.51610   0.00000  Uiso   1.00
H18    H     0.50132   0.11559   0.30590   0.00000  Uiso   1.00
H19    H     0.49888   0.09592   0.61509   0.00000  Uiso   1.00
C45    C     0.52440   0.57526   0.93305   0.00000  Uiso   1.00
N3     N     0.49581   0.50777   0.86427   0.00000  Uiso   1.00
H20    H     0.55080   0.63021   0.88076   0.00000  Uiso   1.00
H21    H     0.46722   0.46964   0.91484   0.00000  Uiso   1.00
C46    C     0.52055   0.58513   0.08166   0.00000  Uiso   1.00
N4     N     0.50391   0.49855   0.15368   0.00000  Uiso   1.00
H22    H     0.53402   0.66540   0.13071   0.00000  Uiso   1.00
H23    H     0.49734   0.41887   0.10487   0.00000  Uiso   1.00
O13    O     0.87506   0.82688   0.45334   0.00000  Uiso   1.00
C47    C     0.87539   0.84302   0.31333   0.00000  Uiso   1.00
H24    H     0.86810   0.75654   0.26176   0.00000  Uiso   1.00
H25    H     0.91103   0.87851   0.28066   0.00000  Uiso   1.00
C48    C     0.83655   0.93258   0.27438   0.00000  Uiso   1.00
H26    H     0.84330   0.01896   0.32676   0.00000  Uiso   1.00
H27    H     0.83746   0.94713   0.16366   0.00000  Uiso   1.00
H28    H     0.80047   0.89764   0.30373   0.00000  Uiso   1.00
