# Generated by REPEAT Assigner based on pymatgen
data_DB0-m3_o25_o510_f0_fsc.sym.32_sqe
_audit_creation_date              2022-05-24
_audit_creation_method            REPEAT_Assigner
_cell_length_a                    8.539795
_cell_length_b                    13.080392
_cell_length_c                    14.285918
_cell_angle_alpha                 90.595286
_cell_angle_beta                  90.003151
_cell_angle_gamma                 95.305983
_cell_volume                      1588.867780
_symmetry_space_group_name_H-M    P1
_symmetry_Int_Tables_number       1
loop_
    _symmetry_equiv_pos_site_id
    _symmetry_equiv_pos_as_xyz
    1  x,y,z
loop_
    _atom_site_type_symbol
    _atom_site_label
    _atom_site_fract_x
    _atom_site_fract_y
    _atom_site_fract_z
    _atom_type_partial_charge
    C   C1   0.180998  0.704012  0.016566  -0.010510
    C   C2   0.839399  0.296069  0.981442  -0.087822
    C   C3   0.191193  0.808421  0.999873  -0.339999
    C   C4   0.829239  0.191672  0.998187  -0.250744
    C   C5   0.055415  0.859363  0.997814  0.327726
    C   C6   0.965035  0.140751  0.000269  0.297846
    C   C7   0.910017  0.803153  0.001966  -0.263245
    C   C8   0.110418  0.196977  0.996096  -0.231515
    H   H1   0.802273  0.838007  0.989902  0.110166
    H   H2   0.218171  0.162138  0.008177  0.134707
    C   C9   0.901292  0.699461  0.018403  -0.042167
    C   C10  0.119111  0.300661  0.979616  -0.136652
    C   C11  0.036189  0.651686  0.030580  -0.111477
    C   C12  0.984194  0.348408  0.967409  -0.007710
    C   C13  0.067944  0.971434  0.985949  -0.220025
    C   C14  0.952534  0.028686  0.012165  -0.274057
    H   H3   0.175418  0.006705  0.955659  0.128209
    H   H4   0.845060  0.993414  0.042456  0.166632
    H   H5   0.305000  0.850363  0.989969  0.138535
    H   H6   0.715442  0.149722  0.008111  0.120481
    H   H7   0.028216  0.570393  0.043438  0.091896
    H   H8   0.992138  0.429695  0.954523  0.123656
    O   O1   0.361708  0.615328  0.927075  -0.706219
    O   O2   0.658681  0.384765  0.070894  -0.659774
    O   O3   0.363659  0.601997  0.088002  -0.731003
    O   O4   0.656718  0.398085  0.910036  -0.737083
    C   C15  0.316384  0.643201  0.010715  0.845970
    C   C16  0.703995  0.356864  0.987287  0.806632
    O   O5   0.321871  0.389667  0.069768  -0.695388
    O   O6   0.698496  0.610470  0.928280  -0.680901
    O   O7   0.329813  0.402825  0.908730  -0.670034
    O   O8   0.690579  0.597301  0.089254  -0.733539
    C   C17  0.268098  0.363907  0.985963  0.821790
    C   C18  0.752287  0.636240  0.012055  0.845923
    Zn  Zn1  0.507813  0.489599  0.102967  1.095965
    Zn  Zn2  0.512617  0.510507  0.895032  1.058636
    C   C19  0.653693  0.536972  0.526353  -0.167153
    C   C20  0.368495  0.462033  0.471341  -0.352628
    C   C21  0.613629  0.437642  0.471896  0.118322
    C   C22  0.408464  0.560820  0.525991  0.198979
    H   H9   0.772873  0.567121  0.550141  0.036230
    H   H10  0.249449  0.431922  0.447260  0.107459
    H   H11  0.449716  0.331257  0.568561  0.068899
    H   H12  0.573235  0.667451  0.429796  0.077838
    N   N1   0.504819  0.479176  0.225481  0.008156
    N   N2   0.515756  0.520919  0.772501  0.001822
    C   C23  0.546331  0.590981  0.461836  -0.228827
    C   C24  0.476590  0.407637  0.536324  -0.147515
    C   C25  0.508138  0.491357  0.408653  0.691601
    C   C26  0.514939  0.507937  0.589263  0.530459
    C   C27  0.506055  0.483135  0.306426  -0.245615
    C   C28  0.515872  0.516680  0.691538  -0.212366
    C   C29  0.742111  0.371345  0.441361  -0.261557
    C   C30  0.687533  0.279288  0.382536  0.267589
    C   C31  0.801090  0.220241  0.348219  -0.252939
    C   C32  0.759988  0.134611  0.293427  -0.054489
    C   C33  0.604379  0.107038  0.272550  -0.096323
    C   C34  0.490146  0.165111  0.306705  -0.091240
    C   C35  0.530896  0.250906  0.361547  -0.265222
    H   H13  0.801004  0.345007  0.504740  0.058371
    H   H14  0.830263  0.420073  0.400664  0.086253
    H   H15  0.923570  0.241416  0.364313  0.138542
    H   H16  0.849961  0.089109  0.266860  0.093632
    H   H17  0.571900  0.039878  0.229616  0.094313
    H   H18  0.367866  0.143289  0.290566  0.110571
    H   H19  0.437545  0.293334  0.387031  0.138286
    C   C36  0.296291  0.639004  0.555367  -0.258002
    C   C37  0.167978  0.599596  0.620823  0.235623
    C   C38  0.065042  0.668261  0.651341  -0.252122
    C   C39  0.944128  0.637643  0.711606  0.099341
    C   C40  0.925026  0.537736  0.741865  -0.190881
    C   C41  0.026782  0.468624  0.711808  0.009428
    C   C42  0.147941  0.499006  0.651527  -0.274362
    H   H20  0.241630  0.667626  0.491499  0.073089
    H   H21  0.365896  0.704674  0.589804  0.083778
    H   H22  0.079370  0.746850  0.627807  0.107306
    H   H23  0.864297  0.692059  0.735073  0.039138
    H   H24  0.830394  0.513460  0.789036  0.149312
    H   H25  0.011595  0.390125  0.735530  0.059687
    H   H26  0.223846  0.442147  0.629955  0.142315
