# Generated by REPEAT Assigner based on pymatgen
data_DB0-m29_o99_o111_f0_pts.sym.70
_audit_creation_date              2022-05-24
_audit_creation_method            REPEAT_Assigner
_cell_length_a                    15.894569
_cell_length_b                    16.959724
_cell_length_c                    11.832945
_cell_angle_alpha                 72.333258
_cell_angle_beta                  96.702942
_cell_angle_gamma                 100.280958
_cell_volume                      2983.877284
_symmetry_space_group_name_H-M    P1
_symmetry_Int_Tables_number       1
loop_
    _symmetry_equiv_pos_site_id
    _symmetry_equiv_pos_as_xyz
    1  x,y,z
loop_
    _atom_site_type_symbol
    _atom_site_label
    _atom_site_fract_x
    _atom_site_fract_y
    _atom_site_fract_z
    _atom_type_partial_charge
    C   C1   0.219103  0.000546  0.828890  -0.343264
    H   H1   0.230637  0.998196  0.741824  0.195815
    C   C2   0.136280  0.995878  0.856583  0.469301
    C   C3   0.121393  0.003850  0.964541  -0.009253
    C   C4   0.188794  0.012074  0.046884  -0.128899
    H   H2   0.174665  0.015579  0.132178  0.148324
    C   C5   0.272448  0.014708  0.021360  -0.060765
    C   C6   0.287430  0.011281  0.909123  0.047992
    C   C7   0.035466  0.003193  0.991494  -0.003825
    C   C8   0.963157  0.002575  0.013446  -0.219791
    C   C9   0.809796  0.993769  0.957600  -0.240869
    H   H3   0.823937  0.990521  0.872170  0.192833
    C   C10  0.726193  0.991451  0.983069  0.006968
    C   C11  0.711299  0.995267  0.095157  0.029498
    C   C12  0.779696  0.005780  0.175419  -0.151201
    H   H4   0.768458  0.008954  0.262166  0.166891
    C   C13  0.862175  0.008641  0.148402  -0.181839
    H   H5   0.915023  0.015206  0.212867  0.142485
    C   C14  0.877120  0.001488  0.040213  0.320717
    O   O1   0.535911  0.117919  0.635526  -0.599476
    C   C15  0.477656  0.131241  0.546377  0.635570
    O   O2   0.428871  0.088335  0.871532  -0.500309
    O   O3   0.409158  0.075095  0.545949  -0.531358
    O   O4   0.390113  0.969966  0.814061  -0.565941
    C   C16  0.373280  0.021562  0.868633  0.641635
    Fe  Fe1  0.504617  0.006423  0.749397  1.379676
    O   O5   0.580264  0.003230  0.898359  -0.424777
    O   O6   0.675871  0.983240  0.786097  -0.494747
    C   C17  0.657617  0.990306  0.887565  0.515566
    O   O7   0.515806  0.930921  0.651981  -0.417810
    O   O8   0.509897  0.837482  0.834463  -0.497328
    C   C18  0.515607  0.853597  0.719698  0.532257
    O   O9   0.483067  0.076101  0.352202  -0.428186
    O   O10  0.488202  0.169457  0.169620  -0.491709
    C   C19  0.482813  0.153355  0.284449  0.532553
    O   O11  0.418593  0.003818  0.105691  -0.438170
    O   O12  0.322668  0.022695  0.218480  -0.487716
    C   C20  0.341048  0.016098  0.116791  0.532375
    O   O13  0.589551  0.931684  0.458252  -0.529820
    O   O14  0.608806  0.036952  0.190173  -0.566682
    C   C21  0.625458  0.985340  0.135502  0.607693
    O   O15  0.462737  0.889042  0.368652  -0.606607
    C   C22  0.520961  0.875642  0.457829  0.639464
    O   O16  0.569667  0.918715  0.132507  -0.499950
    Fe  Fe2  0.494271  0.000557  0.254750  1.395228
    C   C23  0.650328  0.452013  0.474654  -0.165114
    C   C24  0.728370  0.494905  0.501125  -0.085376
    C   C25  0.732049  0.563377  0.541262  -0.065137
    C   C26  0.657711  0.589328  0.555144  -0.201163
    C   C27  0.578211  0.546599  0.528881  0.188967
    C   C28  0.574508  0.477375  0.488322  0.167607
    C   C29  0.502859  0.572672  0.542721  -0.314165
    C   C30  0.423824  0.529465  0.516032  0.180897
    C   C31  0.420122  0.460235  0.475484  0.176387
    C   C32  0.495473  0.434173  0.461621  -0.304393
    C   C33  0.348004  0.554830  0.529693  -0.174342
    C   C34  0.269963  0.511925  0.503250  -0.083964
    C   C35  0.266283  0.443439  0.463147  -0.062198
    C   C36  0.340622  0.417491  0.449257  -0.193025
    H   H6   0.651333  0.398711  0.443357  0.118390
    H   H7   0.664535  0.643628  0.586786  0.128004
    H   H8   0.347001  0.608144  0.560963  0.122786
    H   H9   0.333797  0.363177  0.417646  0.122796
    C   C37  0.488012  0.371361  0.297830  -0.312844
    H   H10  0.489218  0.433146  0.235585  0.141272
    C   C38  0.483643  0.302918  0.256618  -0.068268
    H   H11  0.482258  0.313365  0.161770  0.139952
    C   C39  0.481558  0.222966  0.334708  -0.064072
    C   C40  0.483541  0.212958  0.456627  0.066357
    C   C41  0.489941  0.282424  0.496798  -0.336073
    H   H12  0.491411  0.274714  0.591066  0.162300
    C   C42  0.491526  0.361341  0.417974  0.495984
    C   C43  0.508527  0.724446  0.507464  -0.345577
    H   H13  0.507148  0.732141  0.413210  0.165476
    C   C44  0.514949  0.793933  0.547592  0.066097
    C   C45  0.516817  0.783951  0.669489  -0.064122
    C   C46  0.514578  0.703994  0.747608  -0.067444
    H   H14  0.515875  0.693566  0.842443  0.139297
    C   C47  0.510193  0.635528  0.706445  -0.313921
    H   H15  0.508881  0.573742  0.768717  0.142878
    C   C48  0.506808  0.645527  0.586318  0.496430
    H   H16  0.786889  0.474659  0.490223  0.121727
    H   H17  0.793467  0.597026  0.561930  0.115544
    H   H18  0.211444  0.532171  0.514152  0.119915
    H   H19  0.204865  0.409776  0.442508  0.118143
    O   O17  0.069648  0.988947  0.774022  -0.466493
    C   C49  0.043434  0.903062  0.792565  0.322287
    H   H20  0.977929  0.885754  0.824656  -0.021919
    H   H21  0.087518  0.866962  0.860067  -0.056520
    C   C50  0.043072  0.882318  0.676563  0.155979
    H   H22  0.998938  0.918440  0.609158  -0.004769
    H   H23  0.108665  0.899298  0.644817  -0.016078
    C   C51  0.013476  0.789536  0.694783  -0.280945
    H   H24  0.057562  0.752979  0.761684  0.060160
    H   H25  0.013472  0.775197  0.609372  0.069185
    H   H26  0.947658  0.772145  0.725797  0.050558
