# Generated by REPEAT Assigner based on pymatgen
data_DB0-m9_o16_o19_f0_sra.sym.8_sqe
_audit_creation_date              2022-05-24
_audit_creation_method            REPEAT_Assigner
_cell_length_a                    20.859338
_cell_length_b                    6.769438
_cell_length_c                    13.017476
_cell_angle_alpha                 90.000000
_cell_angle_beta                  97.182350
_cell_angle_gamma                 90.000000
_cell_volume                      1823.722267
_symmetry_space_group_name_H-M    P1
_symmetry_Int_Tables_number       1
loop_
    _symmetry_equiv_pos_site_id
    _symmetry_equiv_pos_as_xyz
    1  x,y,z
loop_
    _atom_site_type_symbol
    _atom_site_label
    _atom_site_fract_x
    _atom_site_fract_y
    _atom_site_fract_z
    _atom_type_partial_charge
    O   O1   0.441956  0.437799  0.594641  -0.549037
    O   O2   0.558044  0.937799  0.405360  -0.549328
    O   O3   0.584968  0.089897  0.602964  -0.510805
    O   O4   0.415032  0.589897  0.397036  -0.510804
    C   C1   0.607421  0.274887  0.606293  0.698229
    C   C2   0.392579  0.774887  0.393707  0.698180
    O   O5   0.457330  0.090018  0.628527  -0.529735
    O   O6   0.542671  0.590018  0.371473  -0.529611
    O   O7   0.422080  0.937450  0.433119  -0.532559
    O   O8   0.577921  0.437450  0.566881  -0.532422
    C   C3   0.431973  0.266912  0.641516  0.632398
    C   C4   0.568027  0.766912  0.358484  0.632634
    O   O9   0.488302  0.250396  0.437826  -0.459044
    O   O10  0.511698  0.750396  0.562174  -0.459130
    V   V1   0.505837  0.985760  0.518962  1.365632
    V   V2   0.494163  0.485760  0.481039  1.365127
    C   C5   0.645890  0.633084  0.128241  -0.218611
    C   C6   0.354110  0.133084  0.871759  -0.218666
    H   H1   0.554148  0.577957  0.178543  0.127536
    H   H2   0.445852  0.077957  0.821457  0.127630
    H   H3   0.740210  0.603489  0.016857  0.148495
    H   H4   0.259790  0.103489  0.983144  0.148492
    H   H5   0.635876  0.543619  0.059312  0.130195
    H   H6   0.364124  0.043619  0.940688  0.130204
    C   C7   0.612482  0.770192  0.281167  -0.013054
    C   C8   0.387519  0.270192  0.718834  -0.012772
    C   C9   0.903613  0.070778  0.308084  -0.036868
    C   C10  0.096387  0.570778  0.691917  -0.036860
    C   C11  0.859504  0.095576  0.377018  0.006639
    C   C12  0.140496  0.595576  0.622982  0.006493
    C   C13  0.798760  0.014052  0.356784  -0.222388
    C   C14  0.201241  0.514052  0.643217  -0.222384
    C   C15  0.781813  0.904944  0.267154  0.086029
    C   C16  0.218187  0.404944  0.732847  0.086066
    C   C17  0.827740  0.872868  0.200883  0.075139
    C   C18  0.172260  0.372868  0.799118  0.075061
    C   C19  0.719780  0.829641  0.241589  0.014969
    C   C20  0.280220  0.329641  0.758412  0.014924
    C   C21  0.705785  0.718560  0.152258  0.255275
    C   C22  0.294215  0.218560  0.847742  0.255383
    C   C23  0.751802  0.688892  0.086887  -0.276836
    C   C24  0.248198  0.188892  0.913113  -0.276931
    C   C25  0.812445  0.767814  0.110546  -0.131953
    C   C26  0.187555  0.267814  0.889454  -0.131709
    C   C27  0.671584  0.860474  0.304126  -0.176106
    C   C28  0.328417  0.360474  0.695874  -0.176298
    C   C29  0.599920  0.653833  0.194352  -0.118004
    C   C30  0.400081  0.153833  0.805648  -0.118071
    C   C31  0.888226  0.955898  0.221344  -0.037696
    C   C32  0.111774  0.455898  0.778657  -0.037622
    H   H7   0.679517  0.943152  0.375028  0.118160
    H   H8   0.320483  0.443152  0.624973  0.118150
    H   H9   0.765724  0.041094  0.412265  0.154087
    H   H10  0.234276  0.541094  0.587735  0.154097
    H   H11  0.871906  0.183641  0.445914  0.086045
    H   H12  0.128094  0.683641  0.554087  0.086062
    H   H13  0.848091  0.746392  0.058138  0.109112
    H   H14  0.151909  0.246392  0.941862  0.108984
    C   C33  0.169515  0.924375  0.167866  -0.204084
    C   C34  0.830485  0.424375  0.832135  -0.203883
    C   C35  0.220716  0.892379  0.219784  0.048080
    C   C36  0.779285  0.392379  0.780217  0.047890
    C   C37  0.280418  0.847091  0.280074  0.042705
    C   C38  0.719582  0.347091  0.719926  0.042866
    C   C39  0.331359  0.809713  0.331548  -0.197794
    C   C40  0.668642  0.309713  0.668453  -0.197936
    O   O11  0.919654  0.281044  0.927990  -0.562677
    O   O12  0.080346  0.781044  0.072010  -0.562684
    O   O13  0.045976  0.627421  0.879103  -0.473513
    O   O14  0.954025  0.127421  0.120897  -0.473670
    C   C41  0.068657  0.455268  0.858066  0.612026
    C   C42  0.931343  0.955268  0.141934  0.611969
    O   O15  0.917785  0.622324  0.907447  -0.511251
    O   O16  0.082215  0.122324  0.092554  -0.511132
    O   O17  0.944566  0.786640  0.100280  -0.522451
    O   O18  0.055434  0.286640  0.899721  -0.522677
    C   C43  0.892099  0.445640  0.895143  0.760552
    C   C44  0.107901  0.945640  0.104858  0.760634
    O   O19  0.010465  0.462709  0.062850  -0.426965
    O   O20  0.989535  0.962709  0.937151  -0.426981
    V   V3   0.997117  0.734268  0.987391  1.306927
    V   V4   0.002883  0.234268  0.012609  1.307132
    Cl  Cl1  0.979158  0.186476  0.330197  -0.066576
    Cl  Cl2  0.020842  0.686476  0.669804  -0.066632
