# Generated by REPEAT Assigner based on pymatgen
data_DB0-m3_o31_tfl_sqe
_audit_creation_date              2022-05-24
_audit_creation_method            REPEAT_Assigner
_cell_length_a                    18.761873
_cell_length_b                    17.262527
_cell_length_c                    22.050242
_cell_angle_alpha                 67.936128
_cell_angle_beta                  79.705557
_cell_angle_gamma                 62.555546
_cell_volume                      5873.564060
_symmetry_space_group_name_H-M    P1
_symmetry_Int_Tables_number       1
loop_
    _symmetry_equiv_pos_site_id
    _symmetry_equiv_pos_as_xyz
    1  x,y,z
loop_
    _atom_site_type_symbol
    _atom_site_label
    _atom_site_fract_x
    _atom_site_fract_y
    _atom_site_fract_z
    _atom_type_partial_charge
    O   O1   0.890467  0.595435  0.450827  -0.678987
    O   O2   0.967413  0.376121  0.585334  -0.673668
    O   O3   0.893506  0.521995  0.589746  -0.683648
    O   O4   0.964333  0.449560  0.446409  -0.679047
    C   C1   0.903798  0.531699  0.426041  0.785781
    C   C2   0.907845  0.434314  0.610274  0.779788
    O   O5   0.106033  0.466472  0.445901  -0.679840
    O   O6   0.035131  0.539168  0.589218  -0.673600
    O   O7   0.109043  0.393285  0.584823  -0.681525
    O   O8   0.032156  0.612353  0.450310  -0.682799
    Zn  Zn1  0.951396  0.589764  0.520716  1.286389
    Zn  Zn2  0.048091  0.398876  0.514947  1.283941
    C   C3   0.091709  0.554133  0.425364  0.793372
    C   C4   0.095689  0.457069  0.609582  0.779868
    C   C5   0.334837  0.440200  0.227148  0.294671
    C   C6   0.384681  0.531877  0.248912  0.317120
    C   C7   0.265332  0.521428  0.302349  0.203288
    C   C8   0.391232  0.474245  0.216586  -0.298300
    H   H1   0.440573  0.455752  0.182970  0.185794
    C   C9   0.321728  0.555469  0.291789  -0.273744
    H   H2   0.316586  0.600650  0.317123  0.167827
    C   C10  0.271889  0.463789  0.270033  -0.268214
    H   H3   0.227677  0.437109  0.278319  0.176580
    C   C11  0.484026  0.604585  0.238168  0.006579
    C   C12  0.443371  0.567307  0.237935  -0.177861
    C   C13  0.141554  0.586579  0.375207  -0.228964
    C   C14  0.199812  0.545996  0.346959  0.015792
    C   C15  0.356477  0.333183  0.159995  -0.158066
    C   C16  0.341658  0.380227  0.193508  -0.103753
    C   C17  0.729057  0.687915  0.306101  0.196380
    C   C18  0.663186  0.839959  0.229250  0.290588
    C   C19  0.611551  0.728790  0.251156  0.320708
    C   C20  0.724309  0.775650  0.273187  -0.264410
    H   H4   0.768509  0.794003  0.281825  0.174613
    C   C21  0.606808  0.816528  0.218234  -0.298933
    H   H5   0.558900  0.866938  0.183791  0.185666
    C   C22  0.672676  0.664488  0.295087  -0.272366
    H   H6   0.676400  0.595713  0.320888  0.165895
    C   C23  0.646498  0.008832  0.159798  -0.158379
    C   C24  0.658249  0.931261  0.194987  -0.101985
    C   C25  0.512711  0.666918  0.238747  0.011503
    C   C26  0.552883  0.704391  0.239701  -0.182537
    C   C27  0.851782  0.552017  0.376245  -0.224300
    C   C28  0.792681  0.620988  0.351803  0.022029
    C   C29  0.168532  0.521530  0.727397  0.289729
    C   C30  0.119639  0.662665  0.749820  0.313312
    C   C31  0.237579  0.531876  0.803078  0.203257
    C   C32  0.112923  0.612171  0.717115  -0.295483
    H   H7   0.064071  0.643637  0.683419  0.185118
    C   C33  0.181969  0.622516  0.792798  -0.270010
    H   H8   0.187240  0.662094  0.818429  0.166628
    C   C34  0.230857  0.481383  0.770382  -0.267180
    H   H9   0.274453  0.410333  0.778446  0.176062
    C   C35  0.021642  0.835163  0.739199  0.005821
    C   C36  0.061769  0.756996  0.739133  -0.177139
    C   C37  0.361098  0.471005  0.875663  -0.225644
    C   C38  0.302451  0.490104  0.847792  0.010771
    C   C39  0.147708  0.436883  0.659333  -0.162783
    C   C40  0.161542  0.468989  0.693361  -0.096597
    C   C41  0.773890  0.163270  0.805668  0.183942
    C   C42  0.839840  0.250241  0.728899  0.299343
    C   C43  0.893202  0.087251  0.750961  0.325510
    C   C44  0.778088  0.246585  0.772730  -0.262578
    H   H10  0.732964  0.309026  0.781267  0.174500
    C   C45  0.897395  0.170574  0.718014  -0.304300
    H   H11  0.945797  0.173441  0.683656  0.187009
    C   C46  0.831449  0.083604  0.794785  -0.269006
    H   H12  0.828159  0.018294  0.820605  0.164696
    C   C47  0.858009  0.401797  0.660403  -0.151981
    C   C48  0.844207  0.336947  0.694612  -0.111837
    C   C49  0.993621  0.926605  0.738787  0.014210
    C   C50  0.953096  0.004331  0.739642  -0.186198
    C   C51  0.651208  0.147095  0.875438  -0.230946
    C   C52  0.709613  0.159477  0.851260  0.037580
    O   O9   0.470875  0.389736  0.949037  -0.681855
    O   O10  0.394929  0.248792  0.086564  -0.680183
    O   O11  0.468651  0.322317  0.088045  -0.672749
    O   O12  0.397197  0.316171  0.947543  -0.679617
    C   C53  0.411272  0.389798  0.925633  0.794083
    C   C54  0.408284  0.300420  0.109985  0.778662
    O   O13  0.539061  0.157765  0.947436  -0.676818
    O   O14  0.610424  0.163734  0.087954  -0.683219
    O   O15  0.536721  0.090203  0.086452  -0.672142
    O   O16  0.612733  0.231336  0.948935  -0.678290
    Zn  Zn3  0.552063  0.288133  0.018731  1.283895
    Zn  Zn4  0.455615  0.191897  0.016777  1.281347
    C   C55  0.599404  0.179726  0.925492  0.781758
    C   C56  0.596336  0.090102  0.109853  0.780073
