# Generated by REPEAT Assigner based on pymatgen
data_DB0-m3_o1520_o22_f0_fsc.sym.21
_audit_creation_date              2022-05-24
_audit_creation_method            REPEAT_Assigner
_cell_length_a                    13.012226
_cell_length_b                    9.124447
_cell_length_c                    8.606590
_cell_angle_alpha                 90.000000
_cell_angle_beta                  95.304291
_cell_angle_gamma                 90.000000
_cell_volume                      1017.479201
_symmetry_space_group_name_H-M    P1
_symmetry_Int_Tables_number       1
loop_
    _symmetry_equiv_pos_site_id
    _symmetry_equiv_pos_as_xyz
    1  x,y,z
loop_
    _atom_site_type_symbol
    _atom_site_label
    _atom_site_fract_x
    _atom_site_fract_y
    _atom_site_fract_z
    _atom_type_partial_charge
    C   C1   0.276050  0.000294  0.129768  -0.095984
    C   C2   0.327961  0.980574  0.000031  0.206054
    C   C3   0.280298  0.999407  0.852776  -0.157209
    C   C4   0.174695  0.017246  0.833841  -0.307183
    C   C5   0.116932  0.013205  0.963619  0.133581
    C   C6   0.169653  0.013602  0.111946  0.109931
    C   C7   0.008360  0.009233  0.949109  0.039772
    C   C8   0.954527  0.011815  0.082413  0.056262
    C   C9   0.010317  0.025227  0.227461  -0.180258
    C   C10  0.116047  0.023744  0.241655  -0.235197
    C   C11  0.952560  0.997372  0.803916  -0.222681
    C   C12  0.846793  0.995432  0.789998  -0.195452
    C   C13  0.793114  0.000333  0.919996  0.160631
    C   C14  0.846060  0.003838  0.068283  0.120445
    C   C15  0.686246  0.003306  0.902609  -0.255608
    C   C16  0.633914  0.014552  0.032754  0.023445
    C   C17  0.682624  0.003339  0.179813  0.003406
    C   C18  0.788816  0.997050  0.198600  -0.347255
    H   H1   0.407507  0.952845  0.015056  -0.001234
    H   H2   0.141502  0.032643  0.716080  0.157772
    H   H3   0.987623  0.987449  0.696426  0.140711
    H   H4   0.806883  0.989019  0.674457  0.118629
    H   H5   0.553003  0.030204  0.018875  0.136886
    H   H6   0.822627  0.986848  0.316646  0.147019
    H   H7   0.975349  0.037466  0.334761  0.141292
    H   H8   0.155891  0.029228  0.357296  0.129094
    O   O1   0.588468  0.127262  0.694306  -0.707076
    O   O2   0.589879  0.873605  0.694728  -0.671508
    C   C19  0.623777  0.001147  0.750884  0.825985
    O   O3   0.378378  0.874786  0.671590  -0.715915
    O   O4   0.375139  0.128168  0.668788  -0.728228
    C   C20  0.344336  0.000848  0.720266  0.821901
    O   O5   0.372779  0.875681  0.339058  -0.673785
    O   O6   0.371124  0.127888  0.339166  -0.566437
    C   C21  0.338034  0.001246  0.281683  0.688694
    O   O7   0.583484  0.127050  0.359614  -0.767822
    O   O8   0.586591  0.874813  0.362158  -0.695945
    C   C22  0.618792  0.001598  0.312457  0.839648
    Zn  Zn1  0.481931  0.838648  0.515847  0.960541
    Zn  Zn2  0.480696  0.163723  0.515845  0.965061
    C   C23  0.377742  0.583417  0.531421  -0.011744
    C   C24  0.381553  0.417635  0.550619  0.096793
    H   H9   0.320907  0.613868  0.433898  -0.014646
    H   H10  0.315523  0.363725  0.483776  0.035562
    H   H11  0.348613  0.625219  0.639456  0.030897
    H   H12  0.371385  0.395478  0.674011  -0.054018
    C   C25  0.516264  0.584846  0.369123  -0.534866
    C   C26  0.507633  0.418637  0.365490  -0.015467
    C   C27  0.549552  0.585291  0.639420  -0.081649
    C   C28  0.557355  0.418383  0.630089  0.014751
    N   N1   0.479853  0.644922  0.512221  0.334112
    N   N2   0.480192  0.357651  0.513616  0.191909
    H   H13  0.628685  0.628622  0.633874  0.060690
    H   H14  0.635969  0.388448  0.601227  0.037353
    H   H15  0.521710  0.615730  0.753035  0.066722
    H   H16  0.547443  0.375586  0.746965  0.018183
    H   H17  0.600059  0.607304  0.371332  0.166592
    H   H18  0.586192  0.382198  0.344548  0.076878
    C   C29  0.467458  0.651205  0.219048  0.816851
    O   O9   0.523782  0.701415  0.126649  -0.567022
    O   O10  0.364557  0.642764  0.179192  -0.186252
    C   C30  0.318292  0.655956  0.029506  -0.037260
    H   H19  0.250190  0.728521  0.029517  0.038352
    H   H20  0.288453  0.547617  0.988586  0.041264
    H   H21  0.372605  0.696806  0.947688  0.062954
    C   C31  0.438344  0.367779  0.229854  0.809297
    O   O11  0.345016  0.382864  0.224196  -0.546379
    O   O12  0.480178  0.298801  0.113852  -0.594475
    C   C32  0.428399  0.296942  0.969023  0.319515
    H   H22  0.469568  0.223148  0.895069  0.047503
    H   H23  0.427136  0.410092  0.923100  -0.006808
    H   H24  0.348155  0.258513  0.974103  -0.017573
