# Generated by REPEAT Assigner based on pymatgen
data_DB0-m29_o81_o1500_f0_pts.sym.2
_audit_creation_date              2022-05-24
_audit_creation_method            REPEAT_Assigner
_cell_length_a                    15.765861
_cell_length_b                    16.369151
_cell_length_c                    13.177779
_cell_angle_alpha                 91.693540
_cell_angle_beta                  87.045250
_cell_angle_gamma                 116.019172
_cell_volume                      3052.000653
_symmetry_space_group_name_H-M    P1
_symmetry_Int_Tables_number       1
loop_
    _symmetry_equiv_pos_site_id
    _symmetry_equiv_pos_as_xyz
    1  x,y,z
loop_
    _atom_site_type_symbol
    _atom_site_label
    _atom_site_fract_x
    _atom_site_fract_y
    _atom_site_fract_z
    _atom_type_partial_charge
    C   C1   0.879803  0.989030  0.857234  -0.291217
    C   C2   0.285964  0.986629  0.903739  -0.221578
    C   C3   0.193165  0.962187  0.876121  0.265915
    C   C4   0.128802  0.972058  0.946457  -0.104277
    C   C5   0.043873  0.968626  0.917024  -0.079494
    C   C6   0.980710  0.980827  0.986962  -0.126266
    C   C7   0.798300  0.991065  0.830453  -0.034516
    C   C8   0.729662  0.985235  0.902059  -0.064836
    C   C9   0.897189  0.983677  0.958467  0.246857
    C   C10  0.831466  0.985523  0.032761  0.014024
    C   C11  0.745140  0.982649  0.004802  -0.009160
    C   C12  0.305259  0.999108  0.007024  0.044463
    C   C13  0.235945  0.995634  0.077300  -0.328458
    C   C14  0.150453  0.987514  0.046902  0.336238
    C   C15  0.086043  0.993617  0.117777  -0.334124
    C   C16  0.001700  0.989897  0.088218  0.303396
    C   C17  0.939884  0.997990  0.160633  -0.251338
    C   C18  0.855477  0.994936  0.133844  -0.079175
    H   H1   0.929099  0.995642  0.795077  0.149359
    H   H2   0.029095  0.958073  0.838275  0.129093
    H   H3   0.787630  0.994290  0.750613  0.156330
    H   H4   0.251765  0.006033  0.156783  0.219694
    H   H5   0.102659  0.003371  0.197095  0.158519
    H   H6   0.957233  0.006740  0.239744  0.158171
    H   H7   0.811971  0.004338  0.194364  0.126463
    O   O1   0.624894  0.027637  0.070038  -0.564985
    C   C19  0.671742  0.979056  0.081806  0.506443
    O   O2   0.452214  0.803714  0.186575  -0.458950
    O   O3   0.649088  0.923271  0.158638  -0.443384
    O   O4   0.499848  0.927650  0.292822  -0.625436
    C   C20  0.466353  0.839266  0.278319  0.649381
    Fe  Fe1  0.527184  0.012252  0.178122  1.498989
    O   O5   0.402079  0.960082  0.112228  -0.618639
    O   O6   0.469517  0.096504  0.032062  -0.512150
    C   C21  0.397008  0.017095  0.047130  0.815367
    O   O7   0.578600  0.137850  0.238561  -0.675839
    O   O8   0.421990  0.097954  0.259966  -0.615118
    C   C22  0.509537  0.155379  0.276506  0.777190
    O   O9   0.443413  0.893218  0.658129  -0.641163
    O   O10  0.558276  0.850177  0.690228  -0.520148
    C   C23  0.482422  0.837408  0.642680  0.638345
    O   O11  0.650228  0.027784  0.780023  -0.670226
    O   O12  0.559721  0.926298  0.901037  -0.459259
    C   C24  0.643138  0.982772  0.863406  0.769073
    O   O13  0.349839  0.010377  0.729119  -0.482237
    O   O14  0.566386  0.106727  0.626167  -0.591820
    C   C25  0.543891  0.174864  0.638735  0.524419
    O   O15  0.443455  0.005502  0.849712  -0.605225
    C   C26  0.361431  0.999099  0.824736  0.704326
    O   O16  0.507973  0.188410  0.726017  -0.469847
    Fe  Fe2  0.525315  0.009567  0.729062  1.483462
    H   H8   0.554660  0.120803  0.448792  0.148863
    C   C27  0.526211  0.213305  0.366395  0.062700
    C   C28  0.506027  0.286979  0.369847  -0.295585
    H   H9   0.487676  0.308838  0.301132  0.132685
    C   C29  0.507286  0.331468  0.461053  0.348355
    C   C30  0.524953  0.298783  0.549975  -0.349534
    H   H10  0.526138  0.332894  0.621638  0.159957
    C   C31  0.541454  0.222282  0.546663  0.174289
    C   C32  0.545362  0.182370  0.453859  -0.219728
    C   C33  0.546843  0.482136  0.393176  -0.110076
    H   H11  0.601854  0.475755  0.346067  0.109696
    C   C34  0.534309  0.560003  0.386999  -0.168839
    H   H12  0.580346  0.613750  0.336496  0.126286
    C   C35  0.466872  0.570975  0.448871  0.100563
    C   C36  0.409959  0.502113  0.514261  -0.337706
    H   H13  0.355832  0.510277  0.561129  0.143803
    C   C37  0.420546  0.422781  0.519240  0.332040
    C   C38  0.491749  0.413732  0.460240  -0.166764
    C   C39  0.456800  0.699876  0.362729  -0.188807
    H   H14  0.458438  0.668729  0.289643  0.134553
    C   C40  0.454935  0.783795  0.368326  -0.008080
    C   C41  0.453866  0.822897  0.462315  -0.137772
    H   H15  0.454861  0.889248  0.467812  0.144863
    C   C42  0.461390  0.783035  0.549570  0.055320
    C   C43  0.464678  0.700522  0.544256  -0.215083
    H   H16  0.474158  0.671120  0.612634  0.135060
    C   C44  0.460008  0.657464  0.451422  0.163665
    C   C45  0.351068  0.346959  0.583688  -0.396514
    H   H17  0.291524  0.362124  0.609939  0.100423
    H   H18  0.321943  0.282821  0.538873  0.109472
    H   H19  0.384710  0.338672  0.651821  0.122726
    C   C46  0.159220  0.915978  0.775815  -0.350513
    H   H20  0.199979  0.878633  0.748163  0.131330
    H   H21  0.085860  0.861917  0.784844  0.092219
    H   H22  0.162958  0.966148  0.718829  0.119481
