# Generated by REPEAT Assigner based on pymatgen
data_DB0-m2_o17_o25_f0_pcu.sym.103_sqe
_audit_creation_date              2022-05-24
_audit_creation_method            REPEAT_Assigner
_cell_length_a                    15.911848
_cell_length_b                    14.974143
_cell_length_c                    13.574804
_cell_angle_alpha                 89.987629
_cell_angle_beta                  90.009367
_cell_angle_gamma                 89.994541
_cell_volume                      3234.417941
_symmetry_space_group_name_H-M    P1
_symmetry_Int_Tables_number       1
loop_
    _symmetry_equiv_pos_site_id
    _symmetry_equiv_pos_as_xyz
    1  x,y,z
loop_
    _atom_site_type_symbol
    _atom_site_label
    _atom_site_fract_x
    _atom_site_fract_y
    _atom_site_fract_z
    _atom_type_partial_charge
    O   O1   0.501894  0.368702  0.587544  -0.575839
    O   O2   0.499994  0.623331  0.406614  -0.578892
    O   O3   0.500136  0.363980  0.418104  -0.521980
    O   O4   0.501774  0.628055  0.576059  -0.534485
    C   C1   0.500123  0.324486  0.504081  0.605107
    C   C2   0.501769  0.667545  0.490073  0.611132
    O   O5   0.376792  0.494716  0.576591  -0.591525
    O   O6   0.625106  0.497340  0.417577  -0.560849
    O   O7   0.381030  0.496154  0.407218  -0.619401
    O   O8   0.620866  0.495877  0.586944  -0.634265
    C   C3   0.339761  0.495242  0.490620  0.833115
    C   C4   0.662138  0.496826  0.503548  0.816415
    Cu  Cu1  0.498356  0.498965  0.595633  0.853228
    Cu  Cu2  0.503541  0.493068  0.398531  0.803809
    C   C5   0.974965  0.423266  0.541937  -0.117477
    C   C6   0.027152  0.571210  0.452402  -0.227905
    C   C7   0.026352  0.425977  0.447029  -0.127327
    C   C8   0.975336  0.568493  0.547498  -0.220799
    H   H1   0.048459  0.367774  0.403694  0.076944
    H   H2   0.951812  0.626858  0.589485  0.113816
    H   H3   0.952408  0.362706  0.580814  0.074795
    H   H4   0.051013  0.631853  0.414811  0.115563
    C   C9   0.249620  0.495498  0.488482  -0.202306
    C   C10  0.752279  0.496993  0.505734  -0.181282
    C   C11  0.031578  0.494467  0.585472  0.051246
    C   C12  0.970329  0.500248  0.408980  0.079895
    C   C13  0.082012  0.496804  0.492137  0.528325
    C   C14  0.919894  0.497257  0.502281  0.525803
    C   C15  0.173908  0.495973  0.489155  -0.302652
    C   C16  0.827992  0.497085  0.505153  -0.309900
    C   C17  0.475331  0.813265  0.408960  -0.287130
    C   C18  0.526550  0.178757  0.585200  -0.294925
    C   C19  0.504614  0.765365  0.488852  0.056133
    C   C20  0.497283  0.226660  0.505296  0.075384
    C   C21  0.535048  0.810369  0.570270  -0.261501
    C   C22  0.466856  0.181658  0.423876  -0.283956
    C   C23  0.533372  0.902311  0.573699  0.216114
    C   C24  0.468529  0.089712  0.420450  0.242130
    C   C25  0.502225  0.949977  0.495053  -0.018073
    C   C26  0.499671  0.042046  0.499098  -0.041885
    C   C27  0.473696  0.905543  0.412421  0.186863
    C   C28  0.528195  0.086482  0.581735  0.207709
    C   C29  0.562076  0.946549  0.656316  -0.252510
    C   C30  0.439827  0.045471  0.337834  -0.271628
    C   C31  0.559443  0.038480  0.660375  -0.204583
    C   C32  0.442452  0.953543  0.333779  -0.188500
    H   H5   0.451339  0.778840  0.344888  0.147100
    H   H6   0.550512  0.213182  0.649290  0.146942
    H   H7   0.560307  0.773821  0.632124  0.135024
    H   H8   0.441593  0.218204  0.362018  0.143222
    H   H9   0.586433  0.909440  0.718381  0.138732
    H   H10  0.415474  0.082577  0.275766  0.142140
    H   H11  0.582093  0.072558  0.725352  0.137656
    H   H12  0.419804  0.919461  0.268804  0.133934
    C   C33  0.551663  0.453321  0.789610  -0.147880
    C   C34  0.450161  0.538609  0.204551  -0.155674
    N   N1   0.494141  0.504196  0.743084  -0.063948
    N   N2   0.507759  0.487832  0.251081  -0.065087
    C   C35  0.436665  0.551006  0.796509  0.211427
    C   C36  0.565258  0.441053  0.197652  0.261929
    C   C37  0.437133  0.546289  0.899311  -0.131203
    C   C38  0.564707  0.445675  0.094844  -0.166041
    C   C39  0.498844  0.497546  0.946206  0.112064
    C   C40  0.502976  0.494388  0.047947  0.115272
    C   C41  0.556344  0.451513  0.890818  0.092604
    C   C42  0.445457  0.540393  0.103337  0.099789
    C   C43  0.377463  0.590098  0.956425  -0.044091
    C   C44  0.624308  0.401772  0.037724  -0.012470
    C   C45  0.382546  0.587871  0.057619  -0.223215
    C   C46  0.619197  0.403958  0.936541  -0.217745
    H   H13  0.596244  0.414818  0.747340  0.177910
    H   H14  0.405544  0.577063  0.246825  0.179843
    H   H15  0.325598  0.626699  0.925193  0.091697
    H   H16  0.676147  0.365118  0.068925  0.070574
    H   H17  0.336182  0.623146  0.100889  0.134648
    H   H18  0.665534  0.368637  0.893286  0.132088
    S   S1   0.925957  0.499866  0.285432  -0.231640
    C   C47  0.899151  0.617843  0.287038  -0.031547
    H   H19  0.955644  0.658458  0.270347  0.019897
    H   H20  0.872813  0.636817  0.359638  0.049917
    H   H21  0.850693  0.630728  0.230060  0.086330
    S   S2   0.075873  0.485929  0.708712  -0.224365
    C   C48  0.103058  0.603602  0.716390  0.007814
    H   H22  0.150569  0.612749  0.775304  0.050699
    H   H23  0.046455  0.643417  0.734825  0.009144
    H   H24  0.130668  0.626775  0.645938  0.057445
    S   S3   0.361804  0.622158  0.735882  -0.068496
    C   C49  0.417287  0.723930  0.768726  -0.133812
    H   H25  0.408175  0.773912  0.709518  0.101684
    H   H26  0.485293  0.709584  0.776817  0.072425
    H   H27  0.392244  0.751439  0.838597  0.024944
    S   S4   0.640331  0.370140  0.258284  -0.126821
    C   C50  0.584969  0.268193  0.225851  -0.012783
    H   H28  0.594121  0.218437  0.285281  0.077115
    H   H29  0.610064  0.240477  0.156106  0.003624
    H   H30  0.516951  0.282424  0.217670  0.029235
