# Generated by REPEAT Assigner based on pymatgen
data_DB0-m2_o15_o28_f0_nbo.sym.6
_audit_creation_date              2022-05-24
_audit_creation_method            REPEAT_Assigner
_cell_length_a                    21.567889
_cell_length_b                    21.567889
_cell_length_c                    46.501499
_cell_angle_alpha                 90.000000
_cell_angle_beta                  90.000000
_cell_angle_gamma                 90.000000
_cell_volume                      21631.281052
_symmetry_space_group_name_H-M    P1
_symmetry_Int_Tables_number       1
loop_
    _symmetry_equiv_pos_site_id
    _symmetry_equiv_pos_as_xyz
    1  x,y,z
loop_
    _atom_site_type_symbol
    _atom_site_label
    _atom_site_fract_x
    _atom_site_fract_y
    _atom_site_fract_z
    _atom_type_partial_charge
    O   O1    0.911493  0.983206  0.476246  -0.592662
    O   O2    0.016794  0.911493  0.476246  -0.592669
    O   O3    0.088507  0.016794  0.476246  -0.592659
    O   O4    0.983206  0.088507  0.476246  -0.592666
    O   O5    0.911493  0.016794  0.523754  -0.592687
    O   O6    0.016794  0.088507  0.523754  -0.592695
    O   O7    0.088507  0.983206  0.523754  -0.592684
    O   O8    0.983206  0.911493  0.523754  -0.592696
    O   O9    0.411494  0.483206  0.976246  -0.592634
    O   O10   0.516794  0.411494  0.976246  -0.592649
    O   O11   0.588507  0.516794  0.976246  -0.592644
    O   O12   0.483206  0.588507  0.976246  -0.592625
    O   O13   0.411494  0.516794  0.023754  -0.592637
    O   O14   0.516794  0.588507  0.023754  -0.592687
    O   O15   0.588507  0.483206  0.023754  -0.592623
    O   O16   0.483206  0.411494  0.023754  -0.592652
    C   C1    0.882411  0.000000  0.500000  0.841453
    C   C2    0.000000  0.882411  0.500000  0.841500
    C   C3    0.117589  0.000000  0.500000  0.841471
    C   C4    0.000000  0.117589  0.500000  0.841521
    C   C5    0.382411  0.500000  0.000000  0.841433
    C   C6    0.500000  0.382411  0.000000  0.841472
    C   C7    0.617589  0.500000  0.000000  0.841436
    C   C8    0.500000  0.617589  0.000000  0.841462
    N   N1    0.500000  0.000000  0.676209  -0.071470
    N   N2    0.000000  0.500000  0.676209  -0.071469
    N   N3    0.500000  0.000000  0.323791  -0.071419
    N   N4    0.000000  0.500000  0.323791  -0.071413
    N   N5    0.000000  0.500000  0.176209  -0.071396
    N   N6    0.500000  0.000000  0.176209  -0.071430
    N   N7    0.000000  0.500000  0.823791  -0.070685
    N   N8    0.500000  0.000000  0.823791  -0.070692
    C   C9    0.461149  0.039089  0.720268  -0.106979
    C   C10   0.960911  0.461149  0.720268  -0.106993
    C   C11   0.538851  0.960911  0.720268  -0.106859
    C   C12   0.039089  0.538851  0.720268  -0.106852
    C   C13   0.461149  0.960911  0.279732  -0.106942
    C   C14   0.960911  0.538851  0.279732  -0.106773
    C   C15   0.538851  0.039089  0.279732  -0.106778
    C   C16   0.039089  0.461149  0.279732  -0.106922
    C   C17   0.961149  0.539089  0.220268  -0.106919
    C   C18   0.460911  0.961149  0.220268  -0.106776
    C   C19   0.038851  0.460911  0.220268  -0.106775
    C   C20   0.539089  0.038851  0.220268  -0.106903
    C   C21   0.961149  0.460911  0.779732  -0.106550
    C   C22   0.460911  0.038851  0.779732  -0.106536
    C   C23   0.038851  0.539089  0.779732  -0.106565
    C   C24   0.539089  0.961149  0.779732  -0.106565
    Cu  Cu1   0.000000  0.000000  0.471895  0.891563
    Cu  Cu2   0.000000  0.000000  0.528105  0.891602
    Cu  Cu3   0.500000  0.500000  0.971895  0.891683
    Cu  Cu4   0.500000  0.500000  0.028105  0.891598
    C   C25   0.421910  0.078218  0.735187  -0.052047
    C   C26   0.921782  0.421910  0.735187  -0.052027
    C   C27   0.578090  0.921782  0.735187  -0.052084
    C   C28   0.078218  0.578090  0.735187  -0.052068
    C   C29   0.421910  0.921782  0.264813  -0.052013
    C   C30   0.921782  0.578090  0.264813  -0.052046
    C   C31   0.578090  0.078218  0.264813  -0.052055
    C   C32   0.078218  0.421910  0.264813  -0.052005
    C   C33   0.921910  0.578218  0.235187  -0.052017
    C   C34   0.421782  0.921911  0.235187  -0.052043
    C   C35   0.078090  0.421782  0.235187  -0.052053
    C   C36   0.578218  0.078089  0.235187  -0.052011
    C   C37   0.921910  0.421782  0.764813  -0.052054
    C   C38   0.421782  0.078090  0.764813  -0.052058
    C   C39   0.078090  0.578218  0.764813  -0.052055
    C   C40   0.578218  0.921910  0.764813  -0.052054
    C   C41   0.538305  0.961442  0.690542  0.416166
    C   C42   0.038558  0.538305  0.690542  0.416163
    C   C43   0.461695  0.038558  0.690542  0.416297
    C   C44   0.961442  0.461695  0.690542  0.416329
    C   C45   0.538306  0.038558  0.309458  0.416136
    C   C46   0.038558  0.461695  0.309458  0.416315
    C   C47   0.461694  0.961442  0.309458  0.416315
    C   C48   0.961442  0.538305  0.309458  0.416167
    C   C49   0.038305  0.461442  0.190542  0.416146
    C   C50   0.538558  0.038305  0.190542  0.416290
    C   C51   0.961695  0.538558  0.190542  0.416290
    C   C52   0.461442  0.961695  0.190542  0.416182
    C   C53   0.038305  0.538558  0.809458  0.415684
    C   C54   0.538558  0.961695  0.809458  0.415717
    C   C55   0.961695  0.461442  0.809458  0.415698
    C   C56   0.461442  0.038305  0.809458  0.415697
    H   H1    0.845964  0.806740  0.433322  0.096325
    H   H2    0.193260  0.845964  0.433322  0.096319
    H   H3    0.154036  0.193260  0.433322  0.096323
    H   H4    0.806740  0.154036  0.433322  0.096321
    H   H5    0.845964  0.193260  0.566678  0.096321
    H   H6    0.193260  0.154036  0.566678  0.096318
    H   H7    0.154036  0.806740  0.566678  0.096324
    H   H8    0.806740  0.845964  0.566678  0.096319
    H   H9    0.345964  0.306740  0.933322  0.096320
    H   H10   0.693260  0.345964  0.933322  0.096315
    H   H11   0.654036  0.693260  0.933322  0.096316
    H   H12   0.306740  0.654036  0.933322  0.096314
    H   H13   0.345964  0.693260  0.066678  0.096326
    H   H14   0.693260  0.654036  0.066678  0.096347
    H   H15   0.654036  0.306740  0.066678  0.096324
    H   H16   0.306740  0.345964  0.066678  0.096320
    C   C57   0.083056  0.813555  0.534968  -0.276061
    C   C58   0.186445  0.083056  0.534968  -0.276035
    C   C59   0.916944  0.186445  0.534968  -0.276100
    C   C60   0.813555  0.916944  0.534968  -0.276005
    C   C61   0.083056  0.186445  0.465032  -0.276080
    C   C62   0.186445  0.916944  0.465032  -0.276009
    C   C63   0.916944  0.813555  0.465032  -0.276053
    C   C64   0.813555  0.083056  0.465032  -0.275983
    C   C65   0.583056  0.313555  0.034968  -0.276018
    C   C66   0.686445  0.583056  0.034968  -0.275856
    C   C67   0.416944  0.686445  0.034968  -0.276056
    C   C68   0.313555  0.416944  0.034968  -0.275992
    C   C69   0.583056  0.686445  0.965032  -0.276102
    C   C70   0.686445  0.416944  0.965032  -0.276013
    C   C71   0.416944  0.313555  0.965032  -0.276072
    C   C72   0.313555  0.583056  0.965032  -0.276008
    C   C73   0.121472  0.781741  0.553348  -0.041922
    C   C74   0.218259  0.121472  0.553348  -0.041895
    C   C75   0.878528  0.218259  0.553348  -0.041907
    C   C76   0.781741  0.878528  0.553348  -0.041905
    C   C77   0.121472  0.218259  0.446652  -0.041904
    C   C78   0.218259  0.878528  0.446652  -0.041896
    C   C79   0.878528  0.781741  0.446652  -0.041912
    C   C80   0.781741  0.121472  0.446652  -0.041905
    C   C81   0.621472  0.281741  0.053348  -0.041908
    C   C82   0.718259  0.621472  0.053348  -0.042062
    C   C83   0.378528  0.718259  0.053348  -0.041916
    C   C84   0.281741  0.378528  0.053348  -0.041892
    C   C85   0.621472  0.718259  0.946652  -0.041874
    C   C86   0.718259  0.378528  0.946652  -0.041893
    C   C87   0.378528  0.281741  0.946652  -0.041908
    C   C88   0.281741  0.621472  0.946652  -0.041883
    C   C89   0.117979  0.718408  0.555025  -0.113038
    C   C90   0.281592  0.117979  0.555025  -0.113012
    C   C91   0.882021  0.281592  0.555025  -0.113048
    C   C92   0.718408  0.882021  0.555025  -0.113010
    C   C93   0.117979  0.281592  0.444975  -0.113038
    C   C94   0.281592  0.882021  0.444975  -0.113004
    C   C95   0.882021  0.718408  0.444975  -0.113033
    C   C96   0.718408  0.117979  0.444975  -0.112998
    C   C97   0.617979  0.218408  0.055025  -0.113036
    C   C98   0.781592  0.617979  0.055025  -0.112849
    C   C99   0.382021  0.781592  0.055025  -0.113026
    C   C100  0.218408  0.382021  0.055025  -0.112990
    C   C101  0.617979  0.781592  0.944975  -0.113064
    C   C102  0.781592  0.382021  0.944975  -0.113000
    C   C103  0.382021  0.218408  0.944975  -0.113031
    C   C104  0.218408  0.617979  0.944975  -0.113006
    C   C105  0.077403  0.686540  0.537691  -0.157514
    C   C106  0.313460  0.077403  0.537691  -0.157472
    C   C107  0.922597  0.313460  0.537691  -0.157519
    C   C108  0.686540  0.922597  0.537691  -0.157473
    C   C109  0.077403  0.313460  0.462309  -0.157534
    C   C110  0.313460  0.922597  0.462309  -0.157487
    C   C111  0.922597  0.686540  0.462309  -0.157536
    C   C112  0.686540  0.077403  0.462309  -0.157486
    C   C113  0.577403  0.186540  0.037691  -0.157521
    C   C114  0.813460  0.577403  0.037691  -0.157573
    C   C115  0.422597  0.813460  0.037691  -0.157491
    C   C116  0.186540  0.422597  0.037691  -0.157470
    C   C117  0.577403  0.813460  0.962309  -0.157464
    C   C118  0.813460  0.422597  0.962309  -0.157445
    C   C119  0.422597  0.186540  0.962309  -0.157514
    C   C120  0.186540  0.577403  0.962309  -0.157456
    C   C121  0.039405  0.717890  0.518373  0.118218
    C   C122  0.282110  0.039405  0.518372  0.118211
    C   C123  0.960595  0.282110  0.518372  0.118216
    C   C124  0.717890  0.960595  0.518372  0.118203
    C   C125  0.039405  0.282110  0.481627  0.118227
    C   C126  0.282110  0.960595  0.481627  0.118218
    C   C127  0.960595  0.717890  0.481627  0.118227
    C   C128  0.717890  0.039405  0.481627  0.118212
    C   C129  0.539405  0.217890  0.018373  0.118239
    C   C130  0.782110  0.539405  0.018373  0.118327
    C   C131  0.460595  0.782110  0.018373  0.118165
    C   C132  0.217890  0.460595  0.018373  0.118206
    C   C133  0.539405  0.782110  0.981627  0.118176
    C   C134  0.782110  0.460595  0.981627  0.118198
    C   C135  0.460595  0.217890  0.981627  0.118220
    C   C136  0.217890  0.539405  0.981627  0.118207
    C   C137  0.040568  0.782142  0.517811  0.244968
    C   C138  0.217858  0.040568  0.517811  0.244959
    C   C139  0.959432  0.217858  0.517811  0.245012
    C   C140  0.782142  0.959432  0.517811  0.244937
    C   C141  0.040568  0.217858  0.482189  0.244991
    C   C142  0.217858  0.959432  0.482189  0.244943
    C   C143  0.959432  0.782142  0.482189  0.244966
    C   C144  0.782142  0.040568  0.482189  0.244915
    C   C145  0.540568  0.282142  0.017811  0.244931
    C   C146  0.717858  0.540568  0.017811  0.244788
    C   C147  0.459433  0.717858  0.017811  0.244999
    C   C148  0.282142  0.459433  0.017811  0.244937
    C   C149  0.540568  0.717858  0.982189  0.244985
    C   C150  0.717858  0.459433  0.982189  0.244942
    C   C151  0.459433  0.282142  0.982189  0.244967
    C   C152  0.282142  0.540568  0.982189  0.244932
    C   C153  0.000000  0.685624  0.500000  -0.233737
    C   C154  0.314376  0.000000  0.500000  -0.233664
    C   C155  0.000000  0.314376  0.500000  -0.233771
    C   C156  0.685624  0.000000  0.500000  -0.233620
    C   C157  0.500000  0.185624  0.000000  -0.233728
    C   C158  0.814376  0.500000  0.000000  -0.233631
    C   C159  0.500000  0.814376  0.000000  -0.233662
    C   C160  0.185624  0.500000  0.000000  -0.233595
    C   C161  0.000000  0.814385  0.500000  -0.394553
    C   C162  0.185615  0.000000  0.500000  -0.394417
    C   C163  0.000000  0.185615  0.500000  -0.394592
    C   C164  0.814385  0.000000  0.500000  -0.394388
    C   C165  0.500000  0.314385  0.000000  -0.394515
    C   C166  0.685615  0.500000  0.000000  -0.394335
    C   C167  0.500000  0.685615  0.000000  -0.394532
    C   C168  0.314385  0.500000  0.000000  -0.394375
    C   C169  0.052383  0.517666  0.369326  -0.412031
    C   C170  0.482334  0.052383  0.369326  -0.411806
    C   C171  0.947617  0.482334  0.369326  -0.411821
    C   C172  0.517666  0.947617  0.369326  -0.412058
    C   C173  0.052383  0.482334  0.630674  -0.411788
    C   C174  0.482334  0.947617  0.630674  -0.411795
    C   C175  0.947617  0.517666  0.630674  -0.412040
    C   C176  0.517666  0.052383  0.630674  -0.412009
    C   C177  0.552383  0.017666  0.869326  -0.412068
    C   C178  0.982334  0.552383  0.869326  -0.412053
    C   C179  0.447617  0.982334  0.869326  -0.412090
    C   C180  0.017666  0.447617  0.869326  -0.412077
    C   C181  0.552383  0.982334  0.130674  -0.411989
    C   C182  0.982334  0.447617  0.130674  -0.411771
    C   C183  0.447617  0.017666  0.130674  -0.411771
    C   C184  0.017666  0.552383  0.130674  -0.411984
    H   H17   0.093340  0.532162  0.357732  0.204412
    H   H18   0.467839  0.093340  0.357732  0.204359
    H   H19   0.906660  0.467838  0.357732  0.204362
    H   H20   0.532161  0.906660  0.357732  0.204421
    H   H21   0.093340  0.467839  0.642268  0.204355
    H   H22   0.467838  0.906660  0.642268  0.204362
    H   H23   0.906660  0.532162  0.642268  0.204414
    H   H24   0.532162  0.093340  0.642268  0.204414
    H   H25   0.593340  0.032162  0.857732  0.204396
    H   H26   0.967838  0.593340  0.857732  0.204396
    H   H27   0.406660  0.967838  0.857732  0.204401
    H   H28   0.032162  0.406660  0.857732  0.204402
    H   H29   0.593340  0.967838  0.142268  0.204411
    H   H30   0.967838  0.406660  0.142268  0.204355
    H   H31   0.406660  0.032162  0.142268  0.204358
    H   H32   0.032162  0.593340  0.142268  0.204406
    C   C185  0.052343  0.518431  0.398981  0.524444
    C   C186  0.481569  0.052343  0.398981  0.524268
    C   C187  0.947657  0.481569  0.398981  0.524270
    C   C188  0.518431  0.947657  0.398981  0.524494
    C   C189  0.052343  0.481569  0.601019  0.524214
    C   C190  0.481569  0.947657  0.601019  0.524257
    C   C191  0.947657  0.518431  0.601019  0.524442
    C   C192  0.518431  0.052343  0.601019  0.524429
    C   C193  0.552343  0.018431  0.898981  0.524462
    C   C194  0.981569  0.552343  0.898981  0.524468
    C   C195  0.447657  0.981569  0.898981  0.524493
    C   C196  0.018431  0.447657  0.898981  0.524499
    C   C197  0.552343  0.981569  0.101019  0.524399
    C   C198  0.981569  0.447657  0.101019  0.524244
    C   C199  0.447657  0.018431  0.101019  0.524223
    C   C200  0.018431  0.552343  0.101019  0.524414
    H   H33   0.088060  0.863204  0.534528  0.151290
    H   H34   0.136796  0.088060  0.534528  0.151298
    H   H35   0.911940  0.136796  0.534528  0.151301
    H   H36   0.863204  0.911940  0.534528  0.151283
    H   H37   0.088060  0.136796  0.465472  0.151291
    H   H38   0.136796  0.911940  0.465472  0.151283
    H   H39   0.911940  0.863204  0.465472  0.151279
    H   H40   0.863204  0.088060  0.465472  0.151275
    H   H41   0.588060  0.363204  0.034528  0.151259
    H   H42   0.636796  0.588060  0.034528  0.151302
    H   H43   0.411940  0.636796  0.034528  0.151295
    H   H44   0.363204  0.411940  0.034528  0.151280
    H   H45   0.588060  0.636796  0.965472  0.151298
    H   H46   0.636796  0.411940  0.965472  0.151293
    H   H47   0.411940  0.363204  0.965472  0.151296
    H   H48   0.363204  0.588060  0.965472  0.151285
    C   C201  0.000000  0.500000  0.413988  -0.395343
    C   C202  0.500000  0.000000  0.413988  -0.395363
    C   C203  0.000000  0.500000  0.586012  -0.395307
    C   C204  0.500000  0.000000  0.586012  -0.395328
    C   C205  0.500000  0.000000  0.913988  -0.395469
    C   C206  0.000000  0.500000  0.913988  -0.395468
    C   C207  0.500000  0.000000  0.086012  -0.395294
    C   C208  0.000000  0.500000  0.086012  -0.395306
    H   H49   0.147509  0.693450  0.569812  0.118525
    H   H50   0.306550  0.147509  0.569812  0.118523
    H   H51   0.852491  0.306550  0.569812  0.118529
    H   H52   0.693450  0.852491  0.569812  0.118523
    H   H53   0.147509  0.306550  0.430188  0.118526
    H   H54   0.306550  0.852491  0.430188  0.118521
    H   H55   0.852491  0.693450  0.430188  0.118526
    H   H56   0.693450  0.147509  0.430188  0.118520
    H   H57   0.647509  0.193450  0.069812  0.118529
    H   H58   0.806550  0.647509  0.069812  0.118494
    H   H59   0.352491  0.806550  0.069812  0.118525
    H   H60   0.193450  0.352491  0.069812  0.118519
    H   H61   0.647509  0.806550  0.930188  0.118525
    H   H62   0.806550  0.352491  0.930188  0.118516
    H   H63   0.352491  0.193450  0.930188  0.118524
    H   H64   0.193450  0.647509  0.930188  0.118515
    H   H65   0.076531  0.636905  0.540092  0.113064
    H   H66   0.363095  0.076531  0.540092  0.113056
    H   H67   0.923469  0.363095  0.540092  0.113062
    H   H68   0.636905  0.923469  0.540092  0.113059
    H   H69   0.076531  0.363095  0.459908  0.113078
    H   H70   0.363095  0.923469  0.459908  0.113073
    H   H71   0.923469  0.636905  0.459908  0.113081
    H   H72   0.636905  0.076531  0.459908  0.113074
    H   H73   0.576531  0.136905  0.040092  0.113076
    H   H74   0.863095  0.576531  0.040092  0.113076
    H   H75   0.423469  0.863095  0.040092  0.113061
    H   H76   0.136905  0.423469  0.040092  0.113065
    H   H77   0.576531  0.863095  0.959908  0.113059
    H   H78   0.863095  0.423469  0.959908  0.113054
    H   H79   0.423469  0.136905  0.959908  0.113071
    H   H80   0.136905  0.576531  0.959908  0.113067
    C   C209  0.000000  0.500000  0.354440  0.230689
    C   C210  0.500000  0.000000  0.354440  0.230714
    C   C211  0.000000  0.500000  0.645560  0.230710
    C   C212  0.500000  0.000000  0.645559  0.230725
    C   C213  0.500000  0.000000  0.854440  0.230705
    C   C214  0.000000  0.500000  0.854440  0.230716
    C   C215  0.500000  0.000000  0.145559  0.230658
    C   C216  0.000000  0.500000  0.145560  0.230661
    C   C217  0.500000  0.000000  0.735170  0.090171
    C   C218  0.000000  0.500000  0.735170  0.090177
    C   C219  0.500000  0.000000  0.264830  0.089994
    C   C220  0.000000  0.500000  0.264830  0.089986
    C   C221  0.000000  0.500000  0.235170  0.089997
    C   C222  0.500000  0.000000  0.235170  0.089994
    C   C223  0.000000  0.500000  0.764830  0.089626
    C   C224  0.500000  0.000000  0.764830  0.089625
    O   O17   0.948779  0.516680  0.458995  -0.614992
    O   O18   0.483320  0.948779  0.458995  -0.614973
    O   O19   0.051221  0.483320  0.458995  -0.615002
    O   O20   0.516680  0.051221  0.458995  -0.614944
    O   O21   0.948779  0.483320  0.541005  -0.615000
    O   O22   0.483320  0.051221  0.541005  -0.614955
    O   O23   0.051221  0.516680  0.541005  -0.614961
    O   O24   0.516680  0.948779  0.541005  -0.614935
    O   O25   0.448779  0.016680  0.958995  -0.615000
    O   O26   0.983320  0.448779  0.958995  -0.614966
    O   O27   0.551221  0.983320  0.958995  -0.615001
    O   O28   0.016680  0.551221  0.958995  -0.614957
    O   O29   0.448779  0.983320  0.041005  -0.614968
    O   O30   0.983320  0.551221  0.041005  -0.614954
    O   O31   0.551221  0.016680  0.041005  -0.614988
    O   O32   0.016680  0.448779  0.041005  -0.614931
    C   C225  0.000000  0.500000  0.445498  0.842912
    C   C226  0.500000  0.000000  0.445498  0.842903
    C   C227  0.000000  0.500000  0.554502  0.842892
    C   C228  0.500000  0.000000  0.554502  0.842890
    C   C229  0.500000  0.000000  0.945498  0.842999
    C   C230  0.000000  0.500000  0.945498  0.842963
    C   C231  0.500000  0.000000  0.054502  0.842898
    C   C232  0.000000  0.500000  0.054502  0.842870
    O   O33   0.948781  0.588493  0.507824  -0.515127
    O   O34   0.411507  0.948781  0.507824  -0.515064
    O   O35   0.051219  0.411507  0.507824  -0.515124
    O   O36   0.588493  0.051219  0.507824  -0.515054
    O   O37   0.948781  0.411507  0.492176  -0.515122
    O   O38   0.411507  0.051219  0.492176  -0.515051
    O   O39   0.051219  0.588493  0.492176  -0.515099
    O   O40   0.588493  0.948781  0.492176  -0.515041
    O   O41   0.448781  0.088493  0.007824  -0.515105
    O   O42   0.911507  0.448781  0.007824  -0.515038
    O   O43   0.551219  0.911507  0.007824  -0.515100
    O   O44   0.088493  0.551219  0.007824  -0.515030
    O   O45   0.448781  0.911507  0.992176  -0.515109
    O   O46   0.911507  0.551219  0.992176  -0.515047
    O   O47   0.551219  0.088493  0.992176  -0.515121
    O   O48   0.088493  0.448781  0.992176  -0.515045
    C   C233  0.000000  0.617577  0.500000  0.629764
    C   C234  0.382423  0.000000  0.500000  0.629757
    C   C235  0.000000  0.382423  0.500000  0.629820
    C   C236  0.617577  0.000000  0.500000  0.629698
    C   C237  0.500000  0.117578  0.000000  0.629802
    C   C238  0.882423  0.500000  0.000000  0.629716
    C   C239  0.500000  0.882423  0.000000  0.629746
    C   C240  0.117578  0.500000  0.000000  0.629691
    Cu  Cu5   0.939377  0.500000  0.500000  0.936727
    Cu  Cu6   0.500000  0.939377  0.500000  0.936932
    Cu  Cu7   0.060623  0.500000  0.500000  0.936724
    Cu  Cu8   0.500000  0.060623  0.500000  0.936872
    Cu  Cu9   0.439377  0.000000  0.000000  0.936720
    Cu  Cu10  0.000000  0.439377  0.000000  0.936886
    Cu  Cu11  0.560623  0.000000  0.000000  0.936723
    Cu  Cu12  0.000000  0.560623  0.000000  0.936906
    O   O49   0.576972  0.924358  0.675792  -0.494054
    O   O50   0.075642  0.576972  0.675792  -0.494041
    O   O51   0.423028  0.075642  0.675792  -0.494082
    O   O52   0.924358  0.423028  0.675792  -0.494080
    O   O53   0.576973  0.075642  0.324208  -0.494036
    O   O54   0.075642  0.423028  0.324208  -0.494086
    O   O55   0.423027  0.924358  0.324208  -0.494077
    O   O56   0.924358  0.576972  0.324208  -0.494056
    O   O57   0.076972  0.424358  0.175792  -0.494037
    O   O58   0.575642  0.076972  0.175792  -0.494067
    O   O59   0.923028  0.575642  0.175792  -0.494066
    O   O60   0.424358  0.923028  0.175792  -0.494054
    O   O61   0.076972  0.575642  0.824208  -0.493974
    O   O62   0.575642  0.923028  0.824208  -0.494003
    O   O63   0.923028  0.424358  0.824208  -0.493984
    O   O64   0.424358  0.076972  0.824208  -0.493998
    H   H81   0.390902  0.109351  0.724037  0.129223
    H   H82   0.890649  0.390902  0.724037  0.129225
    H   H83   0.609098  0.890649  0.724037  0.129229
    H   H84   0.109351  0.609098  0.724037  0.129231
    H   H85   0.390902  0.890649  0.275963  0.129223
    H   H86   0.890649  0.609098  0.275963  0.129227
    H   H87   0.609098  0.109351  0.275963  0.129226
    H   H88   0.109351  0.390902  0.275963  0.129224
    H   H89   0.890902  0.609351  0.224037  0.129220
    H   H90   0.390649  0.890903  0.224037  0.129220
    H   H91   0.109098  0.390649  0.224037  0.129220
    H   H92   0.609351  0.109097  0.224037  0.129218
    H   H93   0.890902  0.390649  0.775963  0.129226
    H   H94   0.390649  0.109098  0.775963  0.129229
    H   H95   0.109098  0.609351  0.775963  0.129230
    H   H96   0.609351  0.890902  0.775963  0.129233
    O   O65   0.104137  0.538134  0.413299  -0.361525
    C   C241  0.099526  0.602732  0.414144  0.128279
    H   H97   0.050656  0.617418  0.411198  -0.023066
    H   H98   0.128525  0.623117  0.396871  0.011161
    H   H99   0.115921  0.619619  0.435345  0.043350
    O   O66   0.461866  0.104137  0.413299  -0.361490
    C   C242  0.397269  0.099526  0.414144  0.128276
    H   H100  0.382582  0.050656  0.411198  -0.023065
    H   H101  0.376883  0.128525  0.396871  0.011156
    H   H102  0.380381  0.115921  0.435345  0.043349
    O   O67   0.895863  0.461866  0.413299  -0.361487
    C   C243  0.900474  0.397268  0.414144  0.128229
    H   H103  0.949344  0.382582  0.411198  -0.023055
    H   H104  0.871475  0.376883  0.396871  0.011169
    H   H105  0.884079  0.380381  0.435345  0.043369
    O   O68   0.538134  0.895863  0.413299  -0.361545
    C   C244  0.602731  0.900474  0.414144  0.128321
    H   H106  0.617418  0.949344  0.411198  -0.023082
    H   H107  0.623117  0.871475  0.396871  0.011152
    H   H108  0.619619  0.884079  0.435345  0.043335
    O   O69   0.104137  0.461866  0.586701  -0.361480
    C   C245  0.099526  0.397268  0.585856  0.128259
    H   H109  0.050656  0.382582  0.588802  -0.023064
    H   H110  0.128525  0.376883  0.603129  0.011159
    H   H111  0.115921  0.380381  0.564655  0.043362
    O   O70   0.461866  0.895863  0.586701  -0.361497
    C   C246  0.397268  0.900474  0.585856  0.128258
    H   H112  0.382582  0.949344  0.588802  -0.023068
    H   H113  0.376883  0.871475  0.603129  0.011165
    H   H114  0.380381  0.884079  0.564655  0.043361
    O   O71   0.895863  0.538134  0.586701  -0.361532
    C   C247  0.900474  0.602732  0.585856  0.128301
    H   H115  0.949344  0.617418  0.588802  -0.023081
    H   H116  0.871475  0.623117  0.603129  0.011156
    H   H117  0.884079  0.619619  0.564655  0.043350
    O   O72   0.538134  0.104137  0.586701  -0.361532
    C   C248  0.602732  0.099526  0.585856  0.128305
    H   H118  0.617418  0.050656  0.588802  -0.023079
    H   H119  0.623117  0.128525  0.603129  0.011157
    H   H120  0.619619  0.115921  0.564655  0.043344
    O   O73   0.604137  0.038134  0.913299  -0.361511
    C   C249  0.599526  0.102732  0.914144  0.128291
    H   H121  0.550656  0.117418  0.911198  -0.023082
    H   H122  0.628525  0.123117  0.896871  0.011146
    H   H123  0.615921  0.119619  0.935345  0.043357
    O   O74   0.961866  0.604137  0.913299  -0.361516
    C   C250  0.897268  0.599526  0.914144  0.128277
    H   H124  0.882582  0.550656  0.911198  -0.023079
    H   H125  0.876883  0.628525  0.896871  0.011160
    H   H126  0.880381  0.615921  0.935345  0.043357
    O   O75   0.395863  0.961866  0.913299  -0.361522
    C   C251  0.400474  0.897268  0.914144  0.128280
    H   H127  0.449344  0.882582  0.911198  -0.023083
    H   H128  0.371475  0.876883  0.896871  0.011152
    H   H129  0.384079  0.880381  0.935345  0.043361
    O   O76   0.038134  0.395863  0.913299  -0.361525
    C   C252  0.102732  0.400474  0.914144  0.128297
    H   H130  0.117418  0.449344  0.911198  -0.023089
    H   H131  0.123117  0.371475  0.896871  0.011152
    H   H132  0.119619  0.384079  0.935345  0.043356
    O   O77   0.604137  0.961865  0.086701  -0.361526
    C   C253  0.599526  0.897268  0.085856  0.128310
    H   H133  0.550656  0.882582  0.088802  -0.023074
    H   H134  0.628524  0.876883  0.103129  0.011147
    H   H135  0.615921  0.880380  0.064655  0.043343
    O   O78   0.961866  0.395863  0.086701  -0.361486
    C   C254  0.897268  0.400474  0.085856  0.128232
    H   H136  0.882582  0.449344  0.088802  -0.023057
    H   H137  0.876883  0.371475  0.103129  0.011169
    H   H138  0.880381  0.384079  0.064655  0.043367
    O   O79   0.395863  0.038135  0.086701  -0.361490
    C   C255  0.400474  0.102732  0.085856  0.128289
    H   H139  0.449344  0.117418  0.088802  -0.023074
    H   H140  0.371476  0.123117  0.103129  0.011144
    H   H141  0.384079  0.119620  0.064655  0.043355
    O   O80   0.038134  0.604137  0.086701  -0.361523
    C   C256  0.102732  0.599526  0.085856  0.128286
    H   H142  0.117418  0.550656  0.088802  -0.023068
    H   H143  0.123117  0.628525  0.103129  0.011160
    H   H144  0.119619  0.615921  0.064655  0.043346
