# Generated by REPEAT Assigner based on pymatgen
data_DB0-m3_o45_o14_f0_fsc.sym.20
_audit_creation_date              2022-05-24
_audit_creation_method            REPEAT_Assigner
_cell_length_a                    8.572554
_cell_length_b                    9.326044
_cell_length_c                    12.770246
_cell_angle_alpha                 90.000000
_cell_angle_beta                  93.612407
_cell_angle_gamma                 90.000000
_cell_volume                      1018.927251
_symmetry_space_group_name_H-M    P1
_symmetry_Int_Tables_number       1
loop_
    _symmetry_equiv_pos_site_id
    _symmetry_equiv_pos_as_xyz
    1  x,y,z
loop_
    _atom_site_type_symbol
    _atom_site_label
    _atom_site_fract_x
    _atom_site_fract_y
    _atom_site_fract_z
    _atom_type_partial_charge
    C   C1   0.841774  0.002750  0.294909  0.182003
    C   C2   0.826832  0.986010  0.187794  -0.487086
    H   H1   0.712054  0.977154  0.148156  0.154322
    C   C3   0.958302  0.988301  0.130352  0.611250
    C   C4   0.106791  0.990864  0.182034  -0.335330
    H   H2   0.212387  0.982880  0.140379  0.115552
    C   C5   0.120222  0.005115  0.290011  0.050594
    C   C6   0.987597  0.021544  0.343569  -0.332954
    N   N1   0.937063  0.987691  0.019707  -0.266148
    N   N2   0.058901  0.017676  0.976594  -0.278228
    C   C7   0.168858  0.017165  0.808341  -0.533775
    H   H3   0.283739  0.027739  0.847572  0.153484
    C   C8   0.153384  0.996386  0.701616  0.166352
    C   C9   0.008341  0.974381  0.653575  -0.292942
    C   C10  0.876384  0.993933  0.706624  0.033964
    C   C11  0.889346  0.012265  0.814260  -0.378597
    H   H4   0.783657  0.022079  0.855635  0.111603
    C   C12  0.037661  0.015998  0.865964  0.662428
    H   H5   0.998854  0.044961  0.425633  0.155972
    H   H6   0.997098  0.947837  0.572002  0.153695
    O   O1   0.657696  0.125483  0.394040  -0.676486
    O   O2   0.655544  0.873742  0.389625  -0.688182
    C   C13  0.706963  0.000596  0.359479  0.811675
    O   O3   0.673147  0.877360  0.605355  -0.731146
    O   O4   0.674026  0.120381  0.609710  -0.737920
    C   C14  0.727810  0.997287  0.643820  0.905651
    O   O5   0.334769  0.876332  0.600385  -0.744203
    O   O6   0.337325  0.122878  0.605086  -0.746742
    C   C15  0.286581  0.998547  0.636428  0.895415
    O   O7   0.325604  0.124483  0.389327  -0.669861
    O   O8   0.324862  0.876218  0.384877  -0.679981
    C   C16  0.270170  0.001854  0.352269  0.829249
    Zn  Zn1  0.497098  0.837137  0.496572  1.054590
    Zn  Zn2  0.498729  0.162165  0.500507  1.033889
    C   C17  0.510157  0.647970  0.689377  -0.093305
    C   C18  0.511904  0.357106  0.691826  -0.106624
    H   H7   0.510175  0.760266  0.699988  0.139539
    H   H8   0.513140  0.244770  0.702964  0.173827
    C   C19  0.517018  0.576437  0.783082  -0.072974
    C   C20  0.517842  0.431100  0.784363  -0.100457
    H   H9   0.521679  0.635699  0.855962  0.114624
    H   H10  0.523153  0.374036  0.858183  0.127800
    C   C21  0.504997  0.426510  0.594460  0.097422
    C   C22  0.503900  0.575988  0.592758  0.076523
    N   N3   0.496904  0.648155  0.499296  -0.041477
    N   N4   0.499358  0.351123  0.503007  -0.060107
    C   C23  0.491289  0.572218  0.409392  0.193154
    C   C24  0.492437  0.423486  0.411283  0.246925
    F   F1   0.484520  0.641537  0.315971  -0.082931
    F   F2   0.486322  0.350417  0.319421  -0.114045
