# Generated by REPEAT Assigner based on pymatgen
data_DB0-m2_o16_o18_f0_pcu.sym.9
_audit_creation_date              2022-05-24
_audit_creation_method            REPEAT_Assigner
_cell_length_a                    12.265735
_cell_length_b                    13.302453
_cell_length_c                    14.458161
_cell_angle_alpha                 91.419032
_cell_angle_beta                  107.570978
_cell_angle_gamma                 116.788235
_cell_volume                      1971.452857
_symmetry_space_group_name_H-M    P1
_symmetry_Int_Tables_number       1
loop_
    _symmetry_equiv_pos_site_id
    _symmetry_equiv_pos_as_xyz
    1  x,y,z
loop_
    _atom_site_type_symbol
    _atom_site_label
    _atom_site_fract_x
    _atom_site_fract_y
    _atom_site_fract_z
    _atom_type_partial_charge
    O   O1   0.539742  0.682681  0.535202  -0.644006
    O   O2   0.683748  0.641794  0.496012  -0.529394
    C   C1   0.645483  0.714906  0.513153  0.736484
    O   O3   0.517312  0.537438  0.663998  -0.562009
    O   O4   0.654093  0.484284  0.626624  -0.541963
    C   C2   0.613715  0.513613  0.690797  0.603029
    Cu  Cu1  0.414927  0.522572  0.526370  0.904662
    Cu  Cu2  0.586712  0.475941  0.484332  0.781461
    O   O5   0.318415  0.357229  0.517048  -0.557503
    O   O6   0.459236  0.315125  0.470117  -0.579586
    O   O7   0.342206  0.508566  0.383654  -0.616275
    O   O8   0.487729  0.464991  0.346617  -0.594526
    C   C3   0.350339  0.283594  0.488771  0.673601
    C   C4   0.385891  0.482477  0.319739  0.725793
    C   C5   0.685312  0.526141  0.796222  -0.052959
    C   C6   0.316022  0.472355  0.214197  -0.152981
    C   C7   0.729917  0.587487  0.965286  -0.183747
    C   C8   0.657523  0.570274  0.867470  -0.088252
    C   C9   0.785185  0.497763  0.824140  -0.120638
    C   C10  0.861134  0.515706  0.923478  0.040116
    C   C11  0.831160  0.561143  0.993468  0.088726
    C   C12  0.966459  0.491279  0.954659  -0.031621
    C   C13  0.038473  0.511776  0.055539  0.079612
    C   C14  0.006458  0.560182  0.122586  -0.333530
    C   C15  0.903533  0.582508  0.092213  0.273318
    C   C16  0.003424  0.448642  0.887423  -0.098918
    C   C17  0.107945  0.428689  0.918496  -0.302671
    C   C18  0.177085  0.446609  0.017047  0.278585
    C   C19  0.142519  0.485899  0.087020  0.007162
    C   C20  0.280545  0.423705  0.044495  -0.273014
    C   C21  0.350662  0.437342  0.142479  -0.007810
    C   C22  0.212464  0.496148  0.186437  -0.103949
    H   H1   0.186806  0.519967  0.244751  0.105259
    H   H2   0.430493  0.418034  0.161873  0.076391
    H   H3   0.134487  0.397015  0.863918  0.137390
    H   H4   0.706230  0.623381  0.019314  0.117182
    H   H5   0.580691  0.593409  0.847777  0.100967
    H   H6   0.801104  0.461875  0.765644  0.086059
    H   H7   0.060991  0.585441  0.200469  0.174768
    H   H8   0.955484  0.430455  0.808838  0.134649
    H   H9   0.306849  0.393920  0.988694  0.128909
    C   C23  0.144836  0.972346  0.378548  -0.262203
    H   H10  0.328978  0.102257  0.380330  0.102842
    H   H11  0.931288  0.777877  0.319083  0.160719
    H   H12  0.143381  0.909546  0.328605  0.124075
    C   C24  0.251185  0.162215  0.469381  -0.132216
    C   C25  0.722750  0.917470  0.573180  -0.003835
    C   C26  0.814243  0.031133  0.593577  -0.151008
    C   C27  0.918685  0.067138  0.561876  -0.165763
    C   C28  0.930254  0.990271  0.503304  0.015572
    C   C29  0.829399  0.876827  0.474281  0.256919
    C   C30  0.038840  0.023348  0.472421  -0.005529
    C   C31  0.039585  0.944379  0.408916  0.244341
    C   C32  0.933237  0.837320  0.372442  -0.255754
    C   C33  0.828661  0.804340  0.403116  -0.210340
    C   C34  0.147534  0.132675  0.502978  -0.094941
    C   C35  0.250500  0.080785  0.408471  -0.037456
    C   C36  0.730601  0.838235  0.516046  -0.266553
    H   H13  0.154814  0.197652  0.553551  0.088938
    H   H14  0.647780  0.891000  0.605668  0.094299
    H   H15  0.987002  0.157226  0.583355  0.138269
    H   H16  0.807338  0.092404  0.638817  0.106070
    H   H17  0.745657  0.721485  0.367481  0.123036
    C   C37  0.243321  0.629748  0.683536  -0.310736
    H   H18  0.431709  0.666576  0.689789  0.148436
    H   H19  0.072434  0.640305  0.738315  0.202249
    H   H20  0.279621  0.682096  0.755422  0.127281
    N   N1   0.285034  0.556734  0.557335  -0.153457
    C   C38  0.666766  0.361152  0.376435  -0.006531
    C   C39  0.741364  0.324419  0.347338  -0.143069
    C   C40  0.872602  0.373152  0.398425  -0.099161
    C   C41  0.930235  0.458117  0.481603  0.127395
    C   C42  0.851128  0.492503  0.511662  0.025996
    C   C43  0.065654  0.510457  0.535390  -0.206560
    C   C44  0.113109  0.575598  0.627596  0.409102
    C   C45  0.032726  0.593894  0.663525  -0.450916
    C   C46  0.913081  0.573415  0.600923  0.270639
    C   C47  0.156337  0.499126  0.502410  0.047405
    C   C48  0.329031  0.622011  0.646131  0.031090
    N   N2   0.719717  0.445151  0.455715  -0.113034
    H   H21  0.128137  0.447082  0.432593  0.109967
    H   H22  0.563574  0.320328  0.334688  0.148362
    H   H23  0.925113  0.338867  0.373011  0.112439
    H   H24  0.696343  0.256604  0.283693  0.116632
    O   O9   0.878463  0.632604  0.161195  -0.359617
    C   C49  0.804843  0.543035  0.201247  0.147043
    H   H25  0.867469  0.545324  0.275673  0.019060
    H   H26  0.765114  0.459280  0.153147  -0.013830
    H   H27  0.722418  0.553561  0.207318  0.050282
    O   O10  0.861935  0.634987  0.630964  -0.035921
    C   C50  0.954589  0.751516  0.649081  -0.203966
    H   H28  0.000852  0.769739  0.591955  0.089096
    H   H29  0.028062  0.779765  0.724693  0.045469
    H   H30  0.905922  0.803888  0.648077  0.120600
