# Generated by REPEAT Assigner based on pymatgen
data_DB0-m3_o17_o24_f0_nbo.sym.110_sqe
_audit_creation_date              2022-05-24
_audit_creation_method            REPEAT_Assigner
_cell_length_a                    36.781940
_cell_length_b                    30.091625
_cell_length_c                    21.493330
_cell_angle_alpha                 90.000000
_cell_angle_beta                  54.983696
_cell_angle_gamma                 90.000000
_cell_volume                      19483.274482
_symmetry_space_group_name_H-M    P1
_symmetry_Int_Tables_number       1
loop_
    _symmetry_equiv_pos_site_id
    _symmetry_equiv_pos_as_xyz
    1  x,y,z
loop_
    _atom_site_type_symbol
    _atom_site_label
    _atom_site_fract_x
    _atom_site_fract_y
    _atom_site_fract_z
    _atom_type_partial_charge
    O   O1    0.065766  0.538746  0.434601  -0.738337
    O   O2    0.933412  0.539563  0.563375  -0.714479
    O   O3    0.565766  0.038746  0.434601  -0.738360
    O   O4    0.433412  0.039563  0.563375  -0.714479
    O   O5    0.066895  0.461989  0.434663  -0.715999
    O   O6    0.934563  0.462878  0.566719  -0.726904
    O   O7    0.566895  0.961989  0.434663  -0.716039
    O   O8    0.434563  0.962878  0.566719  -0.726940
    C   C1    0.087006  0.500636  0.414182  0.783949
    C   C2    0.913301  0.500942  0.585507  0.777497
    C   C3    0.587006  0.000636  0.414182  0.784008
    C   C4    0.413301  0.000942  0.585507  0.777517
    O   O9    0.998157  0.538221  0.594312  -0.705156
    O   O10   0.998919  0.540124  0.408145  -0.689283
    O   O11   0.498157  0.038221  0.594312  -0.705160
    O   O12   0.498919  0.040124  0.408145  -0.689249
    O   O13   0.002409  0.461491  0.590565  -0.699485
    O   O14   0.001125  0.463310  0.406396  -0.714632
    O   O15   0.502409  0.961491  0.590565  -0.699476
    O   O16   0.501125  0.963310  0.406396  -0.714648
    C   C5    0.000242  0.499928  0.621247  0.485622
    C   C6    0.000008  0.501651  0.378515  0.485887
    C   C7    0.500242  0.999928  0.621247  0.485630
    C   C8    0.500008  0.001651  0.378515  0.485917
    Zn  Zn1   0.999635  0.551144  0.500389  1.340043
    Zn  Zn2   0.499635  0.051144  0.500389  1.340043
    Zn  Zn3   0.000660  0.450429  0.499365  1.347460
    Zn  Zn4   0.500660  0.950429  0.499365  1.347483
    C   C9    0.039653  0.489418  0.691287  -0.193893
    C   C10   0.970836  0.471977  0.299103  -0.195767
    C   C11   0.539653  0.989418  0.691287  -0.193804
    C   C12   0.470836  0.971977  0.299103  -0.195705
    C   C13   0.010182  0.460145  0.760414  -0.101737
    C   C14   0.010903  0.461039  0.219492  -0.137452
    C   C15   0.510182  0.960145  0.760414  -0.101763
    C   C16   0.510903  0.961039  0.219492  -0.137489
    H   H1    0.018944  0.426964  0.770587  0.050888
    H   H2    0.019796  0.427754  0.192463  0.059493
    H   H3    0.518944  0.926964  0.770587  0.050900
    H   H4    0.519796  0.927754  0.192463  0.059509
    H   H5    0.072937  0.480567  0.640387  0.074262
    H   H6    0.946498  0.447764  0.341677  0.073470
    H   H7    0.572937  0.980567  0.640387  0.074241
    H   H8    0.446498  0.947764  0.341677  0.073461
    C   C17   0.999177  0.500179  0.810346  0.470621
    C   C18   0.000244  0.500867  0.190245  0.467790
    C   C19   0.499177  0.000179  0.810346  0.470400
    C   C20   0.500244  0.000867  0.190245  0.467551
    C   C21   0.028649  0.529479  0.742413  -0.133389
    C   C22   0.960197  0.511778  0.268647  -0.094977
    C   C23   0.528649  0.029479  0.742413  -0.133424
    C   C24   0.460197  0.011778  0.268647  -0.094933
    C   C25   0.988933  0.540147  0.740438  -0.147451
    C   C26   0.989418  0.541289  0.280247  -0.152497
    C   C27   0.488933  0.040147  0.740438  -0.147385
    C   C28   0.489418  0.041289  0.280247  -0.152418
    C   C29   0.959427  0.510837  0.809580  -0.150275
    C   C30   0.029435  0.530362  0.200697  -0.168785
    C   C31   0.459427  0.010837  0.809580  -0.150090
    C   C32   0.529435  0.030362  0.200697  -0.168809
    C   C33   0.970419  0.470825  0.758477  -0.173209
    C   C34   0.040085  0.490512  0.231147  -0.112284
    C   C35   0.470419  0.970825  0.758477  -0.173253
    C   C36   0.540085  0.990512  0.231147  -0.112188
    C   C37   0.999911  0.500106  0.690523  0.518265
    C   C38   0.000047  0.501454  0.309533  0.501471
    C   C39   0.499911  0.000106  0.690523  0.518208
    C   C40   0.500047  0.001454  0.309533  0.501339
    H   H9    0.052792  0.553842  0.737504  0.054198
    H   H10   0.926951  0.520658  0.282966  0.037366
    H   H11   0.552792  0.053842  0.737504  0.054212
    H   H12   0.426951  0.020658  0.282966  0.037354
    H   H13   0.980074  0.573450  0.730876  0.054537
    H   H14   0.980436  0.574690  0.306855  0.054604
    H   H15   0.480074  0.073450  0.730876  0.054505
    H   H16   0.480436  0.074690  0.306855  0.054588
    H   H17   0.926027  0.519779  0.860084  0.059078
    H   H18   0.053756  0.554592  0.158141  0.064692
    H   H19   0.426027  0.019779  0.860084  0.059016
    H   H20   0.553756  0.054592  0.158141  0.064703
    H   H21   0.946252  0.446487  0.763412  0.060182
    H   H22   0.073211  0.481727  0.217459  0.041950
    H   H23   0.446252  0.946487  0.763412  0.060191
    H   H24   0.573211  0.981727  0.217459  0.041938
    C   C41   0.341215  0.473178  0.120307  -0.391982
    C   C42   0.659035  0.472772  0.879093  -0.386644
    C   C43   0.841215  0.973178  0.120307  -0.391988
    C   C44   0.159035  0.972772  0.879093  -0.386679
    C   C45   0.364785  0.500314  0.136708  0.212527
    C   C46   0.635470  0.500144  0.862955  0.207335
    C   C47   0.864785  0.000314  0.136708  0.212491
    C   C48   0.135470  0.000144  0.862955  0.207339
    C   C49   0.342668  0.527521  0.199716  -0.403638
    C   C50   0.657612  0.527261  0.799842  -0.400539
    C   C51   0.842668  0.027521  0.199716  -0.403624
    C   C52   0.157612  0.027261  0.799842  -0.400568
    C   C53   0.296560  0.528240  0.246411  0.233005
    C   C54   0.703707  0.527676  0.752801  0.224056
    C   C55   0.796560  0.028240  0.246411  0.233082
    C   C56   0.203707  0.027676  0.752801  0.224145
    C   C57   0.273141  0.500548  0.229753  -0.085599
    C   C58   0.727120  0.499822  0.769261  -0.072017
    C   C59   0.773141  0.000548  0.229753  -0.085779
    C   C60   0.227120  0.999822  0.769261  -0.072009
    C   C61   0.295521  0.472583  0.167614  0.281428
    C   C62   0.704732  0.471943  0.831501  0.271834
    C   C63   0.795521  0.972583  0.167614  0.281514
    C   C64   0.204732  0.971943  0.831501  0.271854
    C   C65   0.273356  0.556875  0.308358  -0.116869
    C   C66   0.726903  0.556202  0.690715  -0.111258
    C   C67   0.773356  0.056875  0.308358  -0.116947
    C   C68   0.226903  0.056202  0.690715  -0.111259
    C   C69   0.227629  0.558481  0.350459  -0.271385
    C   C70   0.772629  0.557607  0.648360  -0.280546
    C   C71   0.727629  0.058481  0.350459  -0.271325
    C   C72   0.272629  0.057607  0.648360  -0.280798
    C   C73   0.204551  0.530285  0.334435  0.235031
    C   C74   0.795684  0.529336  0.664313  0.255924
    C   C75   0.704551  0.030285  0.334435  0.234879
    C   C76   0.295684  0.029336  0.664313  0.256255
    C   C77   0.227272  0.500772  0.274946  -0.040322
    C   C78   0.772992  0.499869  0.723840  -0.056505
    C   C79   0.727272  0.000772  0.274946  -0.040018
    C   C80   0.272992  0.999869  0.723840  -0.056680
    C   C81   0.204032  0.471555  0.260533  0.254180
    C   C82   0.796264  0.470632  0.738183  0.268797
    C   C83   0.704032  0.971555  0.260533  0.253953
    C   C84   0.296264  0.970632  0.738183  0.268872
    C   C85   0.226557  0.442942  0.199567  -0.241794
    C   C86   0.773713  0.442061  0.799217  -0.253623
    C   C87   0.726557  0.942942  0.199567  -0.241675
    C   C88   0.273713  0.942061  0.799217  -0.253627
    C   C89   0.272207  0.443924  0.152554  -0.224106
    C   C90   0.728055  0.443163  0.846383  -0.215947
    C   C91   0.772207  0.943924  0.152554  -0.224194
    C   C92   0.228055  0.943163  0.846383  -0.215944
    C   C93   0.158715  0.531279  0.378558  -0.320968
    C   C94   0.841486  0.530365  0.620240  -0.339140
    C   C95   0.658715  0.031279  0.378558  -0.320908
    C   C96   0.341486  0.030365  0.620240  -0.339273
    C   C97   0.135506  0.501102  0.365656  0.110036
    C   C98   0.864779  0.500359  0.633243  0.113893
    C   C99   0.635506  0.001102  0.365656  0.109971
    C   C100  0.364779  0.000359  0.633243  0.113946
    C   C101  0.158249  0.470911  0.307090  -0.360035
    C   C102  0.842086  0.470073  0.691702  -0.370454
    C   C103  0.658249  0.970911  0.307090  -0.359946
    C   C104  0.342086  0.970073  0.691702  -0.370534
    H   H25   0.358645  0.451503  0.071393  0.172474
    H   H26   0.641618  0.451113  0.928027  0.173191
    H   H27   0.858645  0.951503  0.071393  0.172479
    H   H28   0.141618  0.951113  0.928027  0.173189
    H   H29   0.362320  0.549327  0.209169  0.176625
    H   H30   0.638018  0.549240  0.790520  0.179180
    H   H31   0.862320  0.049327  0.209169  0.176614
    H   H32   0.138018  0.049240  0.790520  0.179175
    H   H33   0.209755  0.581008  0.398119  0.139004
    H   H34   0.790510  0.580100  0.600652  0.141035
    H   H35   0.709755  0.081008  0.398119  0.138998
    H   H36   0.290510  0.080100  0.600652  0.141105
    H   H37   0.140945  0.554542  0.425123  0.159675
    H   H38   0.859165  0.553752  0.573853  0.167235
    H   H39   0.640945  0.054542  0.425123  0.159671
    H   H40   0.359165  0.053752  0.573853  0.167247
    H   H41   0.140130  0.447641  0.296202  0.174694
    H   H42   0.860220  0.446962  0.702806  0.177426
    H   H43   0.640130  0.947641  0.296202  0.174685
    H   H44   0.360220  0.946962  0.702806  0.177447
    H   H45   0.208569  0.420081  0.187758  0.147932
    H   H46   0.791690  0.419178  0.811019  0.150683
    H   H47   0.708569  0.920081  0.187758  0.147914
    H   H48   0.291690  0.919178  0.811019  0.150679
    H   H49   0.289622  0.421809  0.104242  0.134543
    H   H50   0.710640  0.421102  0.894772  0.132959
    H   H51   0.789622  0.921809  0.104242  0.134555
    H   H52   0.210640  0.921102  0.894772  0.132961
    O   O17   0.961784  0.434720  0.035366  -0.727359
    O   O18   0.038401  0.433539  0.964747  -0.702488
    O   O19   0.461784  0.934720  0.035366  -0.727300
    O   O20   0.538401  0.933539  0.964747  -0.702382
    C   C105  0.999808  0.413464  0.000327  0.763915
    C   C106  0.499808  0.913464  0.000327  0.763686
    O   O21   0.960522  0.502444  0.945761  -0.689212
    O   O22   0.038933  0.499359  0.054804  -0.699842
    O   O23   0.460522  0.002444  0.945761  -0.689254
    O   O24   0.538933  0.999359  0.054804  -0.699870
    O   O25   0.037168  0.498143  0.871018  -0.717858
    O   O26   0.962204  0.501615  0.129624  -0.700529
    O   O27   0.537168  0.998143  0.871018  -0.717911
    O   O28   0.462204  0.001615  0.129624  -0.700588
    C   C107  0.998926  0.500218  0.879542  0.500470
    C   C108  0.000477  0.500552  0.121073  0.497055
    C   C109  0.498926  0.000218  0.879542  0.500711
    C   C110  0.500477  0.000552  0.121073  0.497324
    Zn  Zn5   0.949399  0.500899  0.049633  1.330712
    Zn  Zn6   0.050025  0.499805  0.950926  1.332674
    Zn  Zn7   0.449399  0.000899  0.049633  1.330714
    Zn  Zn8   0.550025  0.999805  0.950926  1.332658
    O   O29   0.960984  0.567194  0.037607  -0.705347
    O   O30   0.037690  0.566007  0.963492  -0.718085
    O   O31   0.460984  0.067194  0.037607  -0.705321
    O   O32   0.537690  0.066007  0.963492  -0.718100
    C   C111  0.999626  0.587253  0.000273  0.770063
    C   C112  0.499626  0.087253  0.000273  0.769933
    O   O33   0.500797  0.434005  0.054275  -0.691389
    O   O34   0.499511  0.434178  0.948066  -0.705487
    O   O35   0.000797  0.934005  0.054275  -0.691417
    O   O36   0.999511  0.934178  0.948066  -0.705478
    C   C113  0.500200  0.413430  0.001076  0.686120
    C   C114  0.000200  0.913430  0.001076  0.686090
    O   O37   0.435051  0.500653  0.118665  -0.698470
    O   O38   0.565183  0.502392  0.881190  -0.698254
    O   O39   0.935051  0.000653  0.118665  -0.698472
    O   O40   0.065183  0.002392  0.881190  -0.698276
    O   O41   0.432826  0.500014  0.013408  -0.691521
    O   O42   0.567410  0.498342  0.986291  -0.692053
    O   O43   0.932826  0.000014  0.013408  -0.691536
    O   O44   0.067410  0.998342  0.986291  -0.692049
    C   C115  0.413272  0.500355  0.087154  0.683995
    C   C116  0.586970  0.500393  0.912614  0.680707
    C   C117  0.913272  0.000355  0.087154  0.684042
    C   C118  0.086970  0.000393  0.912614  0.680745
    Zn  Zn9   0.501392  0.500409  0.069120  1.312743
    Zn  Zn10  0.498885  0.500261  0.930622  1.313219
    Zn  Zn11  0.001392  0.000409  0.069120  1.312747
    Zn  Zn12  0.998885  0.000261  0.930622  1.313215
    O   O45   0.503133  0.566446  0.049179  -0.711426
    O   O46   0.497025  0.566626  0.948034  -0.699043
    O   O47   0.003133  0.066446  0.049179  -0.711406
    O   O48   0.997025  0.066626  0.948034  -0.699000
    C   C119  0.500096  0.587206  0.998642  0.698684
    C   C120  0.000096  0.087206  0.998642  0.698637
    C   C121  0.526561  0.658629  0.014080  -0.394000
    C   C122  0.473068  0.658728  0.984602  -0.402104
    C   C123  0.026561  0.158629  0.014080  -0.393996
    C   C124  0.973068  0.158728  0.984602  -0.402099
    C   C125  0.499941  0.635721  0.999014  0.221246
    C   C126  0.999941  0.135721  0.999014  0.221242
    C   C127  0.472025  0.704558  0.987113  0.247252
    C   C128  0.527158  0.704461  0.012795  0.239984
    C   C129  0.972025  0.204558  0.987113  0.247292
    C   C130  0.027158  0.204461  0.012795  0.240013
    C   C131  0.499484  0.727427  0.000254  -0.034905
    C   C132  0.999484  0.227427  0.000254  -0.035033
    C   C133  0.443512  0.727564  0.976572  -0.233320
    C   C134  0.555466  0.727361  0.023933  -0.233043
    C   C135  0.943512  0.227564  0.976572  -0.233352
    C   C136  0.055466  0.227361  0.023933  -0.233068
    C   C137  0.942267  0.273328  0.979667  -0.228128
    C   C138  0.056379  0.273127  0.021834  -0.229563
    C   C139  0.442267  0.773328  0.979667  -0.228255
    C   C140  0.556379  0.773127  0.021834  -0.229655
    C   C141  0.970310  0.296242  0.991439  0.213564
    C   C142  0.028192  0.296118  0.010506  0.224655
    C   C143  0.470310  0.796242  0.991439  0.213879
    C   C144  0.528192  0.796118  0.010506  0.224906
    C   C145  0.999307  0.273263  0.000779  -0.012587
    C   C146  0.499307  0.773263  0.000779  -0.012907
    C   C147  0.969508  0.342089  0.993574  -0.334779
    C   C148  0.028926  0.341935  0.008789  -0.351742
    C   C149  0.469508  0.842089  0.993574  -0.334975
    C   C150  0.528926  0.841935  0.008789  -0.351886
    C   C151  0.999261  0.364963  0.001170  0.122238
    C   C152  0.499261  0.864963  0.001170  0.122417
    H   H53   0.548046  0.640659  0.024432  0.173870
    H   H54   0.451725  0.640822  0.973851  0.175412
    H   H55   0.048046  0.140659  0.024432  0.173873
    H   H56   0.951725  0.140822  0.973851  0.175409
    H   H57   0.421752  0.709864  0.966563  0.145072
    H   H58   0.577376  0.709580  0.033500  0.144955
    H   H59   0.921752  0.209864  0.966563  0.145070
    H   H60   0.077376  0.209580  0.033500  0.144956
    H   H61   0.919577  0.291101  0.971976  0.146387
    H   H62   0.078986  0.290837  0.029804  0.146833
    H   H63   0.419577  0.791101  0.971976  0.146419
    H   H64   0.578986  0.790837  0.029804  0.146858
    H   H65   0.946683  0.360108  0.986508  0.162439
    H   H66   0.051872  0.359826  0.015705  0.168070
    H   H67   0.446683  0.860108  0.986508  0.162456
    H   H68   0.551872  0.859826  0.015705  0.168059
    C   C153  0.526375  0.342061  0.933351  -0.381488
    C   C154  0.474293  0.341936  0.068258  -0.386301
    C   C155  0.026375  0.842061  0.933351  -0.381503
    C   C156  0.974293  0.841936  0.068258  -0.386295
    C   C157  0.500283  0.364937  0.000873  0.208781
    C   C158  0.000283  0.864937  0.000873  0.208813
    C   C159  0.473464  0.296111  0.067886  0.238122
    C   C160  0.527333  0.296223  0.933480  0.230792
    C   C161  0.973464  0.796111  0.067886  0.238091
    C   C162  0.027333  0.796223  0.933480  0.230791
    C   C163  0.500422  0.273250  0.000623  -0.043055
    C   C164  0.000422  0.773250  0.000623  -0.043043
    C   C165  0.445634  0.273115  0.134712  -0.201975
    C   C166  0.555194  0.273313  0.866548  -0.197921
    C   C167  0.945634  0.773115  0.134712  -0.201937
    C   C168  0.055194  0.773313  0.866548  -0.197898
    C   C169  0.944463  0.727361  0.134138  -0.243265
    C   C170  0.056365  0.727538  0.866876  -0.246518
    C   C171  0.444463  0.227361  0.134138  -0.243234
    C   C172  0.556365  0.227538  0.866876  -0.246471
    C   C173  0.971982  0.704468  0.067072  0.259661
    C   C174  0.028827  0.704525  0.933811  0.264663
    C   C175  0.471982  0.204468  0.067072  0.259652
    C   C176  0.528827  0.204525  0.933811  0.264630
    C   C177  0.000429  0.727414  0.000503  -0.055021
    C   C178  0.500429  0.227414  0.000503  -0.055004
    C   C179  0.971048  0.658660  0.066518  -0.366532
    C   C180  0.029547  0.658672  0.934090  -0.375625
    C   C181  0.471048  0.158660  0.066518  -0.366582
    C   C182  0.529547  0.158672  0.934090  -0.375672
    C   C183  0.000195  0.635734  0.000248  0.136288
    C   C184  0.500195  0.135734  0.000248  0.136422
    H   H69   0.547193  0.360105  0.880671  0.168173
    H   H70   0.453424  0.359876  0.121037  0.168405
    H   H71   0.047193  0.860105  0.880671  0.168169
    H   H72   0.953424  0.859876  0.121037  0.168408
    H   H73   0.424276  0.290817  0.187597  0.132705
    H   H74   0.576527  0.291096  0.813744  0.131439
    H   H75   0.924276  0.790817  0.187597  0.132695
    H   H76   0.076527  0.791096  0.813744  0.131436
    H   H77   0.922216  0.709578  0.186587  0.142234
    H   H78   0.078573  0.709836  0.814318  0.142256
    H   H79   0.422216  0.209578  0.186587  0.142228
    H   H80   0.578573  0.209836  0.814318  0.142242
    H   H81   0.948444  0.640647  0.118535  0.168285
    H   H82   0.051956  0.640674  0.881958  0.172086
    H   H83   0.448444  0.140647  0.118535  0.168296
    H   H84   0.551956  0.140674  0.881958  0.172112
    C   C185  0.295650  0.585865  0.331376  0.300892
    C   C186  0.319247  0.567906  0.357262  -0.253480
    C   C187  0.338923  0.595375  0.381225  0.001326
    C   C188  0.334613  0.640824  0.380306  -0.062034
    Br  Br1   0.361707  0.678793  0.413648  -0.072662
    C   C189  0.310386  0.658795  0.355864  0.004074
    C   C190  0.290692  0.631353  0.331895  -0.279761
    H   H85   0.322261  0.532263  0.358915  0.137619
    H   H86   0.357576  0.581256  0.401048  0.084655
    H   H87   0.306749  0.694426  0.355635  0.087816
    H   H88   0.271676  0.645607  0.312876  0.144591
    C   C191  0.704603  0.585329  0.667879  0.298672
    C   C192  0.680740  0.567515  0.642404  -0.251984
    C   C193  0.661042  0.595106  0.618634  0.002848
    C   C194  0.665594  0.640531  0.619336  -0.062571
    Br  Br2   0.638463  0.678669  0.586274  -0.072186
    C   C195  0.690084  0.658354  0.643365  0.004401
    C   C196  0.709799  0.630789  0.667142  -0.281203
    H   H89   0.677529  0.531889  0.640933  0.136938
    H   H90   0.642179  0.581101  0.599138  0.083893
    H   H91   0.693908  0.693964  0.643427  0.088238
    H   H92   0.729017  0.644929  0.685846  0.145342
    C   C197  0.795650  0.085865  0.331376  0.300912
    C   C198  0.819247  0.067906  0.357262  -0.253469
    C   C199  0.838923  0.095375  0.381225  0.001310
    C   C200  0.834613  0.140824  0.380306  -0.062017
    Br  Br3   0.861707  0.178793  0.413648  -0.072666
    C   C201  0.810386  0.158795  0.355864  0.004052
    C   C202  0.790692  0.131353  0.331895  -0.279751
    H   H93   0.822261  0.032263  0.358915  0.137615
    H   H94   0.857576  0.081256  0.401048  0.084659
    H   H95   0.806749  0.194426  0.355635  0.087822
    H   H96   0.771676  0.145607  0.312876  0.144590
    C   C203  0.204603  0.085329  0.667879  0.298639
    C   C204  0.180740  0.067515  0.642404  -0.251878
    C   C205  0.161042  0.095106  0.618634  0.002784
    C   C206  0.165594  0.140531  0.619336  -0.062567
    Br  Br4   0.138463  0.178669  0.586274  -0.072186
    C   C207  0.190084  0.158354  0.643365  0.004407
    C   C208  0.209799  0.130789  0.667142  -0.281184
    H   H97   0.177529  0.031889  0.640933  0.136907
    H   H98   0.142179  0.081101  0.599138  0.083907
    H   H99   0.193908  0.193964  0.643427  0.088239
    H   H100  0.229017  0.144929  0.685846  0.145332
