# Generated by REPEAT Assigner based on pymatgen
data_DB0-m3_o48_o17_f0_fsc.sym.19
_audit_creation_date              2022-05-24
_audit_creation_method            REPEAT_Assigner
_cell_length_a                    8.606797
_cell_length_b                    10.891731
_cell_length_c                    13.427753
_cell_angle_alpha                 90.000000
_cell_angle_beta                  93.713866
_cell_angle_gamma                 90.000000
_cell_volume                      1256.113305
_symmetry_space_group_name_H-M    P1
_symmetry_Int_Tables_number       1
loop_
    _symmetry_equiv_pos_site_id
    _symmetry_equiv_pos_as_xyz
    1  x,y,z
loop_
    _atom_site_type_symbol
    _atom_site_label
    _atom_site_fract_x
    _atom_site_fract_y
    _atom_site_fract_z
    _atom_type_partial_charge
    C   C1   0.990510  0.429691  0.139627  0.018007
    C   C2   0.990357  0.559217  0.135092  -0.031773
    C   C3   0.851549  0.366556  0.151825  0.150263
    C   C4   0.850097  0.622778  0.136333  0.202778
    C   C5   0.714868  0.432746  0.153223  -0.184445
    C   C6   0.713735  0.557226  0.141731  -0.178576
    C   C7   0.848397  0.750589  0.129452  -0.225720
    C   C8   0.851999  0.238624  0.161232  -0.303168
    C   C9   0.984064  0.811604  0.111433  0.187780
    C   C10  0.992375  0.177725  0.163721  0.195040
    C   C11  0.125123  0.752366  0.115161  -0.150589
    C   C12  0.127750  0.236316  0.142605  -0.159759
    C   C13  0.128018  0.626864  0.131433  -0.134062
    C   C14  0.125706  0.361567  0.127801  -0.116296
    H   H1   0.239212  0.584438  0.143724  0.110473
    H   H2   0.230996  0.402757  0.105925  0.112667
    H   H3   0.993989  0.080248  0.174116  -0.026359
    H   H4   0.980925  0.908901  0.099956  0.066517
    O   O1   0.325811  0.862156  0.207853  -0.569741
    O   O2   0.326546  0.111257  0.221281  -0.613216
    O   O3   0.319118  0.874454  0.036375  -0.732590
    O   O4   0.322915  0.134115  0.050713  -0.502420
    C   C15  0.268503  0.828172  0.119246  0.831895
    C   C16  0.270848  0.162177  0.138006  0.633333
    O   O5   0.652981  0.126742  0.066759  -0.640228
    O   O6   0.650473  0.876704  0.052797  -0.553875
    O   O7   0.657863  0.116051  0.238548  -0.742484
    O   O8   0.657051  0.855618  0.224024  -0.627745
    C   C17  0.710016  0.160867  0.155846  0.891921
    C   C18  0.707634  0.827052  0.136001  0.624306
    Zn  Zn1  0.483912  0.004874  0.025856  0.932876
    Zn  Zn2  0.494391  0.984197  0.248380  0.968738
    C   C19  0.626751  0.962227  0.436272  -0.153573
    N   N1   0.492432  0.973630  0.379191  0.084611
    C   C20  0.355897  0.984977  0.423916  -0.194941
    C   C21  0.354161  0.995253  0.526614  0.178173
    C   C22  0.490116  0.984895  0.584899  0.051103
    C   C23  0.626595  0.965707  0.539655  0.116139
    C   C24  0.216647  0.016548  0.571748  -0.211389
    C   C25  0.216935  0.030649  0.673189  -0.104422
    C   C26  0.353806  0.019094  0.732129  0.096040
    C   C27  0.489233  0.994125  0.687722  -0.029019
    C   C28  0.624457  0.983305  0.746545  0.227024
    C   C29  0.762397  0.961884  0.700943  -0.259381
    C   C30  0.762878  0.952966  0.598282  -0.129334
    C   C31  0.353838  0.030965  0.834834  -0.011386
    N   N2   0.485431  0.014837  0.894480  0.066711
    C   C32  0.621193  0.995468  0.849748  -0.191885
    H   H5   0.735535  0.952592  0.401088  0.167657
    H   H6   0.105831  0.024849  0.530484  0.128525
    H   H7   0.106381  0.048351  0.703760  0.111359
    H   H8   0.872110  0.950907  0.743344  0.185690
    H   H9   0.870752  0.935572  0.564131  0.134870
    C   C33  0.564721  0.375630  0.165074  0.808603
    O   O9   0.494000  0.329316  0.093196  -0.526699
    O   O10  0.496484  0.384999  0.255963  -0.637419
    H   H10  0.390447  0.344873  0.252092  0.423257
    C   C34  0.561936  0.613004  0.121251  0.828115
    O   O11  0.492951  0.657302  0.188973  -0.506070
    O   O12  0.494381  0.609851  0.024169  -0.619660
    H   H11  0.387908  0.648867  0.019772  0.387369
    C   C35  0.205905  0.989300  0.366161  0.876251
    O   O13  0.137600  0.893870  0.344810  -0.552812
    O   O14  0.123953  0.099522  0.361071  -0.600195
    H   H12  0.009745  0.082855  0.344008  0.362204
    C   C36  0.213152  0.076556  0.875241  0.569496
    O   O15  0.133733  0.009181  0.923258  -0.410591
    O   O16  0.168964  0.197647  0.855415  -0.561745
    H   H13  0.073081  0.221006  0.890278  0.409088
    C   C37  0.769569  0.003151  0.907668  0.812942
    O   O17  0.848744  0.911431  0.923163  -0.530870
    O   O18  0.830600  0.118239  0.931042  -0.622690
    H   H14  0.918343  0.110329  0.983981  0.395306
