# Generated by REPEAT Assigner based on pymatgen
data_DB0-m3_o152_o159_f0_fsc.sym.21
_audit_creation_date              2022-05-24
_audit_creation_method            REPEAT_Assigner
_cell_length_a                    8.524876
_cell_length_b                    12.999294
_cell_length_c                    13.406110
_cell_angle_alpha                 90.610890
_cell_angle_beta                  93.280485
_cell_angle_gamma                 86.461708
_cell_volume                      1480.330125
_symmetry_space_group_name_H-M    P1
_symmetry_Int_Tables_number       1
loop_
    _symmetry_equiv_pos_site_id
    _symmetry_equiv_pos_as_xyz
    1  x,y,z
loop_
    _atom_site_type_symbol
    _atom_site_label
    _atom_site_fract_x
    _atom_site_fract_y
    _atom_site_fract_z
    _atom_type_partial_charge
    C   C1   0.128051  0.711362  0.984460  -0.226877
    C   C2   0.997416  0.655328  0.973513  -0.102613
    C   C3   0.851566  0.700522  0.988865  -0.060906
    C   C4   0.831127  0.804895  0.002361  -0.281081
    C   C5   0.958304  0.866365  0.998430  0.106938
    C   C6   0.108583  0.817934  0.995802  0.218207
    C   C7   0.938370  0.974357  0.000254  0.010278
    C   C8   0.069769  0.032756  0.005186  0.041770
    C   C9   0.218819  0.981813  0.010942  -0.189214
    C   C10  0.237475  0.876249  0.004245  -0.261573
    C   C11  0.789319  0.025298  0.994426  -0.167981
    C   C12  0.770652  0.130858  0.001145  -0.276228
    C   C13  0.899541  0.189164  0.009708  0.246745
    C   C14  0.049822  0.140747  0.007099  0.082222
    C   C15  0.880077  0.295715  0.021190  -0.261544
    C   C16  0.010627  0.351746  0.032334  -0.090341
    C   C17  0.156435  0.306609  0.016945  -0.072208
    C   C18  0.176970  0.202256  0.003312  -0.259981
    H   H1   0.011574  0.573584  0.960837  0.115434
    H   H2   0.713887  0.833893  0.016804  0.170207
    H   H3   0.682202  0.986394  0.983315  0.120272
    H   H4   0.652989  0.167040  0.999435  0.145485
    H   H5   0.996429  0.433472  0.045115  0.111809
    H   H6   0.294242  0.173315  0.988880  0.156835
    H   H7   0.325948  0.020717  0.021961  0.131033
    H   H8   0.355137  0.840070  0.005917  0.142737
    O   O1   0.342974  0.413333  0.093787  -0.790526
    O   O2   0.336174  0.391530  0.922644  -0.683507
    C   C19  0.287977  0.371395  0.011046  0.915369
    O   O3   0.325969  0.604363  0.908341  -0.693697
    O   O4   0.342184  0.626392  0.079633  -0.558095
    C   C20  0.280303  0.651193  0.990218  0.777905
    O   O5   0.665297  0.593613  0.911825  -0.772580
    O   O6   0.671240  0.616084  0.083303  -0.664870
    C   C21  0.719824  0.635824  0.994735  0.884949
    O   O7   0.682588  0.403052  0.097068  -0.713422
    O   O8   0.665649  0.380547  0.926326  -0.592780
    C   C22  0.727931  0.355904  0.015489  0.839403
    Zn  Zn1  0.496951  0.492143  0.891766  1.005992
    Zn  Zn2  0.511150  0.514889  0.113940  0.991746
    C   C23  0.488072  0.608952  0.302404  -0.153094
    N   N1   0.518770  0.524625  0.244900  0.074491
    C   C24  0.539971  0.431215  0.287653  -0.011144
    C   C25  0.535442  0.418845  0.388748  -0.230146
    C   C26  0.508886  0.503186  0.450466  0.058359
    C   C27  0.486029  0.599450  0.406153  0.220309
    C   C28  0.527919  0.400411  0.603945  -0.168679
    C   C29  0.503186  0.493736  0.554315  0.064935
    C   C30  0.474606  0.580548  0.611603  0.147765
    C   C31  0.456582  0.676107  0.567773  -0.184925
    C   C32  0.463675  0.685888  0.466184  -0.225879
    C   C33  0.522712  0.395331  0.706613  -0.057309
    N   N2   0.489531  0.481668  0.760841  0.055202
    C   C34  0.467984  0.573166  0.713894  -0.091804
    H   H9   0.553560  0.362659  0.242240  0.139258
    H   H10  0.451443  0.643132  0.757037  0.147864
    H   H11  0.438243  0.744544  0.613176  0.142767
    H   H12  0.455127  0.762766  0.436306  0.164928
    H   H13  0.550766  0.340918  0.414735  0.149682
    H   H14  0.552259  0.328655  0.566057  0.144983
    C   C35  0.443734  0.708634  0.254888  0.559311
    O   O9   0.531598  0.746256  0.198808  -0.436694
    C   C36  0.286861  0.761938  0.270668  -0.459762
    H   H15  0.222432  0.716920  0.323057  0.086569
    H   H16  0.217579  0.768557  0.198226  0.180456
    H   H17  0.302534  0.840429  0.301383  0.127131
    C   C37  0.561620  0.294653  0.753588  0.576958
    O   O10  0.478183  0.262004  0.815208  -0.433137
    C   C38  0.698108  0.227810  0.720936  -0.493773
    H   H18  0.768357  0.270588  0.670056  0.095590
    H   H19  0.654773  0.158311  0.682330  0.135930
    H   H20  0.774412  0.203916  0.787474  0.178547
