# Generated by REPEAT Assigner based on pymatgen
data_DB0-m9_o6_o20_f0_sra.sym.27_sqe
_audit_creation_date              2022-05-24
_audit_creation_method            REPEAT_Assigner
_cell_length_a                    6.322648
_cell_length_b                    19.865721
_cell_length_c                    22.477270
_cell_angle_alpha                 90.855102
_cell_angle_beta                  89.921118
_cell_angle_gamma                 90.011742
_cell_volume                      2822.916907
_symmetry_space_group_name_H-M    P1
_symmetry_Int_Tables_number       1
loop_
    _symmetry_equiv_pos_site_id
    _symmetry_equiv_pos_as_xyz
    1  x,y,z
loop_
    _atom_site_type_symbol
    _atom_site_label
    _atom_site_fract_x
    _atom_site_fract_y
    _atom_site_fract_z
    _atom_type_partial_charge
    O  O1   0.539167  0.432634  0.473262  -0.466322
    O  O2   0.738997  0.429643  0.543534  -0.441867
    O  O3   0.954879  0.539649  0.588482  -0.591110
    C  C1   0.633263  0.446927  0.591982  0.907737
    O  O4   0.834532  0.471319  0.427249  -0.601413
    O  O5   0.042790  0.580820  0.472409  -0.391115
    C  C2   0.661442  0.435359  0.425915  0.887638
    O  O6   0.459346  0.483060  0.588933  -0.611736
    O  O7   0.644720  0.560102  0.507474  -0.547381
    V  V1   0.918925  0.500019  0.508330  1.161816
    O  O8   0.329274  0.538620  0.426283  -0.619771
    C  C3   0.149787  0.569943  0.424112  0.886051
    O  O9   0.242789  0.589585  0.542257  -0.481324
    C  C4   0.121886  0.580121  0.590273  0.887289
    V  V2   0.418863  0.516278  0.507735  1.330427
    O  O10  0.144345  0.456285  0.510753  -0.523569
    C  C5   0.125614  0.630942  0.637714  -0.357438
    C  C6   0.125241  0.672940  0.677778  0.172257
    C  C7   0.121568  0.722046  0.725157  -0.040066
    C  C8   0.115853  0.763706  0.765465  -0.039342
    C  C9   0.105746  0.812799  0.812779  0.175604
    C  C10  0.093384  0.854770  0.852713  -0.363478
    C  C11  0.229287  0.753734  0.291219  -0.229886
    H  H1   0.359358  0.754744  0.322380  0.175524
    C  C12  0.077438  0.704498  0.294393  0.228253
    C  C13  0.910745  0.702038  0.255205  -0.188606
    H  H2   0.792821  0.662843  0.258357  0.142587
    C  C14  0.898918  0.748831  0.211125  -0.098037
    H  H3   0.772646  0.746569  0.178780  0.124207
    C  C15  0.053581  0.797255  0.207303  0.200668
    C  C16  0.217549  0.800302  0.247218  0.048191
    C  C17  0.097254  0.655077  0.338522  0.016304
    C  C18  0.056588  0.841103  0.158468  -0.075996
    C  C19  0.069345  0.876838  0.116528  -0.227542
    C  C20  0.119876  0.614945  0.376845  -0.336812
    H  H4   0.330473  0.328077  0.746539  0.125914
    C  C21  0.452282  0.238275  0.784021  -0.162298
    H  H5   0.310375  0.227747  0.809099  0.144482
    C  C22  0.621262  0.194879  0.785652  0.214213
    C  C23  0.804257  0.207530  0.754731  -0.156467
    H  H6   0.936342  0.173126  0.756976  0.131182
    C  C24  0.816244  0.263795  0.720407  -0.147085
    H  H7   0.956327  0.273539  0.694285  0.136646
    C  C25  0.645823  0.306646  0.718080  0.167021
    C  C26  0.464315  0.294490  0.749778  -0.127434
    C  C27  0.608442  0.137789  0.822137  -0.018356
    C  C28  0.647478  0.359711  0.677018  0.032928
    C  C29  0.643205  0.401438  0.639538  -0.360826
    C  C30  0.595303  0.091981  0.855532  -0.289441
    H  H8   0.310251  0.314989  0.264678  0.153769
    C  C31  0.440155  0.235073  0.211056  0.013480
    C  C32  0.612488  0.193699  0.199921  0.222543
    C  C33  0.790131  0.201064  0.235360  -0.216230
    H  H9   0.926227  0.169260  0.227342  0.167028
    C  C34  0.795812  0.248945  0.281013  -0.086821
    H  H10  0.936367  0.254016  0.308040  0.121684
    C  C35  0.623877  0.290388  0.292168  0.211871
    C  C36  0.445991  0.283003  0.256776  -0.217854
    C  C37  0.607958  0.143407  0.151906  -0.054141
    C  C38  0.631946  0.341227  0.339697  0.005568
    C  C39  0.642511  0.383885  0.379183  -0.338201
    C  C40  0.606826  0.101070  0.112038  -0.196838
    O  O11  0.689043  0.050544  0.947047  -0.436425
    O  O12  0.488155  0.059061  0.016904  -0.375078
    O  O13  0.271022  0.951912  0.063071  -0.478932
    C  C41  0.609382  0.049839  0.064790  0.745038
    O  O14  0.402896  0.008277  0.900672  -0.588657
    O  O15  0.192995  0.902251  0.947375  -0.421140
    C  C42  0.578857  0.041692  0.898994  0.839468
    O  O16  0.775166  0.008900  0.063010  -0.585017
    O  O17  0.587027  0.925781  0.984924  -0.538479
    V  V3   0.312831  0.985776  0.982118  1.189857
    O  O18  0.898328  0.941013  0.901293  -0.610235
    C  C43  0.072215  0.905479  0.899879  0.892028
    O  O19  0.991751  0.898974  0.017550  -0.494885
    C  C44  0.093249  0.917774  0.066160  0.832528
    V  V4   0.812339  0.969374  0.982387  1.308153
    O  O20  0.086877  0.029466  0.981916  -0.529262
    N  N1   0.377881  0.850007  0.241537  0.585963
    O  O21  0.368055  0.893352  0.198869  -0.351126
    O  O22  0.535269  0.851725  0.278685  -0.413312
    N  N2   0.255636  0.228570  0.175328  0.558995
    O  O23  0.093362  0.267250  0.185518  -0.363769
    O  O24  0.249177  0.183917  0.132498  -0.353791
