# Generated by REPEAT Assigner based on pymatgen
data_DB0-m2_o6_bbj
_audit_creation_date              2022-05-24
_audit_creation_method            REPEAT_Assigner
_cell_length_a                    30.088425
_cell_length_b                    30.140191
_cell_length_c                    46.479934
_cell_angle_alpha                 90.003672
_cell_angle_beta                  89.990711
_cell_angle_gamma                 119.396453
_cell_volume                      36724.073452
_symmetry_space_group_name_H-M    P1
_symmetry_Int_Tables_number       1
loop_
    _symmetry_equiv_pos_site_id
    _symmetry_equiv_pos_as_xyz
    1  x,y,z
loop_
    _atom_site_type_symbol
    _atom_site_label
    _atom_site_fract_x
    _atom_site_fract_y
    _atom_site_fract_z
    _atom_type_partial_charge
    C   C1    0.978105  0.407049  0.500467  0.862607
    C   C2    0.081756  0.967111  0.424771  0.797214
    C   C3    0.310890  0.233832  0.993040  -0.160537
    C   C4    0.173474  0.140112  0.002642  -0.009537
    C   C5    0.358860  0.326681  0.997193  -0.009019
    C   C6    0.400127  0.364847  0.997045  -0.257383
    C   C7    0.135069  0.099058  0.002592  -0.251404
    C   C8    0.688911  0.462659  0.974405  -0.205177
    C   C9    0.667012  0.430108  0.951331  0.280848
    C   C10   0.691858  0.405959  0.939746  -0.188441
    C   C11   0.737953  0.414235  0.951082  -0.182606
    C   C12   0.759845  0.446773  0.974162  0.264106
    C   C13   0.038801  0.025323  0.366263  0.826338
    C   C14   0.735006  0.470934  0.985742  -0.187177
    C   C15   0.618710  0.421422  0.939460  -0.099752
    C   C16   0.808120  0.455413  0.986050  -0.075540
    C   C17   0.848426  0.462465  0.996029  -0.218729
    C   C18   0.578293  0.414093  0.929507  -0.187398
    C   C19   0.269392  0.512746  0.941163  -0.176766
    C   C20   0.261554  0.464007  0.945268  0.285828
    C   C21   0.223307  0.431547  0.963712  -0.176079
    C   C22   0.193221  0.447659  0.977875  -0.250815
    C   C23   0.201066  0.496407  0.973759  0.327303
    C   C24   0.069316  0.133756  0.416755  0.821852
    C   C25   0.239317  0.528853  0.955327  -0.212160
    C   C26   0.293017  0.447190  0.930407  -0.086931
    C   C27   0.169655  0.513321  0.988585  -0.093193
    C   C28   0.144458  0.528947  0.000866  -0.226321
    C   C29   0.319647  0.434132  0.917382  -0.213029
    C   C30   0.087807  0.785814  0.013282  -0.194952
    C   C31   0.053388  0.740301  0.026068  0.280551
    C   C32   0.027200  0.741462  0.050254  -0.206440
    C   C33   0.035322  0.787488  0.061497  -0.186964
    C   C34   0.069750  0.833001  0.048714  0.282915
    C   C35   0.475355  0.461835  0.866163  0.826627
    C   C36   0.095930  0.831838  0.024525  -0.199073
    C   C37   0.044886  0.692081  0.014290  -0.094962
    C   C38   0.078288  0.881226  0.060504  -0.093976
    C   C39   0.085584  0.921601  0.070404  -0.191274
    C   C40   0.037832  0.651782  0.004402  -0.202665
    C   C41   0.985599  0.224746  0.053833  -0.186162
    C   C42   0.036758  0.238799  0.054533  0.300745
    C   C43   0.071584  0.283339  0.041061  -0.211750
    C   C44   0.055413  0.313510  0.027084  -0.226021
    C   C45   0.004244  0.299456  0.026405  0.320820
    C   C46   0.532709  0.418142  0.924778  0.808863
    C   C47   0.969433  0.254900  0.039848  -0.208580
    C   C48   0.053625  0.207264  0.069234  -0.092169
    C   C49   0.987289  0.330989  0.011789  -0.094282
    C   C50   0.971815  0.356393  0.999622  -0.219895
    C   C51   0.066498  0.180412  0.082146  -0.218007
    C   C52   0.419465  0.386454  0.969180  0.819947
    C   C53   0.366388  0.431542  0.916282  0.826662
    C   C54   0.038449  0.025066  0.133674  0.817456
    C   C55   0.081691  0.967214  0.075096  0.815854
    C   C56   0.113525  0.080020  0.030507  0.822834
    C   C57   0.093549  0.522568  0.498980  0.869125
    C   C58   0.068908  0.133652  0.083336  0.835024
    C   C59   0.024467  0.598546  0.002688  0.840750
    C   C60   0.093598  0.522596  0.000937  0.868510
    C   C61   0.978080  0.407134  0.999539  0.865320
    C   C62   0.901773  0.475906  0.997753  0.850624
    C   C63   0.747167  0.484945  0.525712  -0.191097
    C   C64   0.759704  0.446518  0.525795  0.263793
    C   C65   0.725477  0.399709  0.537338  -0.189472
    C   C66   0.679353  0.391437  0.548634  -0.204687
    C   C67   0.666812  0.429860  0.548547  0.292992
    C   C68   0.024319  0.598400  0.497208  0.857356
    C   C69   0.701041  0.476672  0.537008  -0.188285
    C   C70   0.808012  0.455170  0.513946  -0.076037
    C   C71   0.618488  0.421189  0.560382  -0.103866
    C   C72   0.578067  0.413863  0.570337  -0.189217
    C   C73   0.848330  0.462241  0.503968  -0.216416
    C   C74   0.241986  0.530083  0.542630  -0.211225
    C   C75   0.200944  0.496386  0.526182  0.317509
    C   C76   0.190283  0.446370  0.524052  -0.243340
    C   C77   0.220357  0.430246  0.538210  -0.153728
    C   C78   0.261397  0.463958  0.554669  0.271586
    C   C79   0.901686  0.475720  0.502230  0.860453
    C   C80   0.272042  0.513961  0.556793  -0.176346
    C   C81   0.169550  0.513313  0.511358  -0.085930
    C   C82   0.292841  0.447127  0.569531  -0.078410
    C   C83   0.319501  0.434058  0.582509  -0.213159
    C   C84   0.144428  0.528973  0.499036  -0.228468
    C   C85   0.985760  0.222440  0.448753  -0.185160
    C   C86   0.037215  0.238974  0.445559  0.292415
    C   C87   0.072268  0.285957  0.456523  -0.202446
    C   C88   0.056024  0.316089  0.470482  -0.225393
    C   C89   0.004555  0.299549  0.473656  0.319752
    C   C90   0.419259  0.386247  0.530674  0.787962
    C   C91   0.969523  0.252552  0.462723  -0.210425
    C   C92   0.054146  0.207476  0.430869  -0.090430
    C   C93   0.987517  0.331039  0.488248  -0.097515
    C   C94   0.971908  0.356336  0.500412  -0.214163
    C   C95   0.066994  0.180560  0.418001  -0.213231
    C   C96   0.012654  0.746050  0.464797  -0.194078
    C   C97   0.053262  0.740128  0.473760  0.269273
    C   C98   0.102162  0.780896  0.471326  -0.198288
    C   C99   0.110339  0.826939  0.460088  -0.204926
    C   C100  0.069733  0.832864  0.451124  0.300376
    C   C101  0.532493  0.417932  0.575064  0.802592
    C   C102  0.020831  0.792096  0.453559  -0.189182
    C   C103  0.044699  0.691894  0.485543  -0.082147
    C   C104  0.078306  0.881102  0.439342  -0.108785
    C   C105  0.085577  0.921452  0.429422  -0.183588
    C   C106  0.037652  0.651622  0.495467  -0.210605
    C   C107  0.306883  0.236591  0.515459  -0.156914
    C   C108  0.311470  0.278768  0.501152  0.249866
    C   C109  0.270583  0.275000  0.485679  -0.157077
    C   C110  0.225400  0.229272  0.484472  -0.187489
    C   C111  0.220852  0.187083  0.498759  0.245945
    C   C112  0.475200  0.461716  0.633668  0.828508
    C   C113  0.261710  0.190880  0.514261  -0.185902
    C   C114  0.358708  0.326397  0.502330  -0.005588
    C   C115  0.173752  0.139347  0.497497  0.000660
    C   C116  0.135101  0.098501  0.497463  -0.245394
    C   C117  0.399924  0.364613  0.502814  -0.246811
    C   C118  0.443840  0.451780  0.735022  -0.198725
    C   C119  0.488416  0.481295  0.719938  0.288039
    C   C120  0.533015  0.510808  0.734994  -0.208400
    C   C121  0.533038  0.510824  0.764800  -0.207194
    C   C122  0.488462  0.481328  0.779886  0.288982
    C   C123  0.366228  0.431439  0.583583  0.819349
    C   C124  0.443863  0.451796  0.764831  -0.197291
    C   C125  0.488392  0.481313  0.688752  -0.071694
    C   C126  0.488486  0.481379  0.811071  -0.074822
    C   C127  0.488693  0.481694  0.837181  -0.208474
    C   C128  0.488562  0.481600  0.662642  -0.212667
    C   C129  0.063844  0.026925  0.264830  -0.195593
    C   C130  0.019227  0.012455  0.279935  0.283003
    C   C131  0.974543  0.997934  0.264899  -0.202313
    C   C132  0.974472  0.997870  0.235093  -0.199746
    C   C133  0.019083  0.012326  0.219987  0.282494
    C   C134  0.113620  0.079701  0.469511  0.809897
    C   C135  0.063772  0.026861  0.235021  -0.191662
    C   C136  0.019288  0.012495  0.311121  -0.070576
    C   C137  0.018995  0.012231  0.188801  -0.073465
    C   C138  0.018676  0.011963  0.162691  -0.203990
    C   C139  0.019092  0.012337  0.337231  -0.209593
    C   C140  0.265607  0.188247  0.994398  -0.188339
    C   C141  0.220706  0.187713  0.001251  0.275285
    C   C142  0.221336  0.233037  0.006745  -0.186590
    C   C143  0.266629  0.278640  0.005367  -0.184633
    C   C144  0.311543  0.279153  0.998537  0.271398
    Cu  Cu1   0.996662  0.499954  0.471611  1.057212
    Cu  Cu2   0.121190  0.074118  0.092267  1.077077
    Cu  Cu3   0.996756  0.500124  0.028345  1.054281
    Cu  Cu4   0.000416  0.503746  0.972117  1.056888
    Cu  Cu5   0.000368  0.503680  0.527833  1.059793
    Cu  Cu6   0.473638  0.470858  0.570800  1.079270
    Cu  Cu7   0.425569  0.378922  0.592434  1.060917
    Cu  Cu8   0.029164  0.026274  0.429122  1.082272
    Cu  Cu9   0.121448  0.074103  0.407739  1.069671
    Cu  Cu10  0.473820  0.471036  0.929030  1.082883
    Cu  Cu11  0.425771  0.379071  0.907425  1.072759
    Cu  Cu12  0.028960  0.026255  0.070813  1.084933
    H   H1    0.691757  0.507063  0.536792  0.152545
    H   H2    0.958003  0.185768  0.440275  0.162184
    H   H3    0.112619  0.299291  0.454168  0.150525
    H   H4    0.083767  0.352786  0.478932  0.162583
    H   H5    0.988717  0.796161  0.446642  0.150433
    H   H6    0.974218  0.714523  0.466567  0.155175
    H   H7    0.134278  0.776835  0.478242  0.159591
    H   H8    0.148776  0.858464  0.458318  0.154517
    H   H9    0.258360  0.157971  0.525488  0.166774
    H   H10   0.338756  0.239330  0.527618  0.150027
    H   H11   0.273943  0.307907  0.474443  0.141879
    H   H12   0.773542  0.521732  0.516763  0.152963
    H   H13   0.193527  0.226507  0.472292  0.157165
    H   H14   0.408769  0.428568  0.776399  0.155981
    H   H15   0.408729  0.428539  0.723478  0.156824
    H   H16   0.568110  0.534042  0.723429  0.159018
    H   H17   0.568151  0.534071  0.776341  0.158285
    H   H18   0.098896  0.038247  0.223437  0.157741
    H   H19   0.099023  0.038360  0.276359  0.158872
    H   H20   0.939416  0.986544  0.276479  0.155864
    H   H21   0.939289  0.986430  0.223568  0.154709
    H   H22   0.345931  0.234012  0.987667  0.153112
    H   H23   0.734756  0.369316  0.537553  0.155862
    H   H24   0.265339  0.152878  0.990081  0.163538
    H   H25   0.186293  0.232849  0.012140  0.150907
    H   H26   0.266898  0.314015  0.009675  0.151951
    H   H27   0.751659  0.496476  0.003783  0.151723
    H   H28   0.669931  0.481802  0.983682  0.164480
    H   H29   0.675203  0.380413  0.921706  0.152792
    H   H30   0.756929  0.395087  0.941806  0.150802
    H   H31   0.245807  0.567061  0.951945  0.164147
    H   H32   0.299194  0.538463  0.926796  0.156586
    H   H33   0.216831  0.393343  0.967107  0.139606
    H   H34   0.652979  0.354649  0.557582  0.156320
    H   H35   0.163436  0.421961  0.992249  0.167157
    H   H36   0.122956  0.867102  0.014300  0.153693
    H   H37   0.108556  0.785509  0.994366  0.155811
    H   H38   0.000177  0.706196  0.060479  0.163001
    H   H39   0.014577  0.787795  0.080414  0.152849
    H   H40   0.929320  0.243519  0.039454  0.162854
    H   H41   0.958019  0.189995  0.064284  0.161339
    H   H42   0.111700  0.294715  0.041447  0.157031
    H   H43   0.082976  0.348273  0.016645  0.157550
    H   H44   0.304037  0.540662  0.569600  0.156719
    H   H45   0.250685  0.569287  0.544451  0.163200
    H   H46   0.158277  0.419673  0.511255  0.159782
    H   H47   0.211663  0.391042  0.536381  0.127435
    H   H48   0.929175  0.239219  0.465079  0.163095
    O   O1    0.980477  0.429193  0.475803  -0.638868
    O   O2    0.406439  0.355945  0.553010  -0.620722
    O   O3    0.532355  0.459744  0.567328  -0.629181
    O   O4    0.491302  0.379814  0.586493  -0.637453
    O   O5    0.490209  0.492725  0.611376  -0.639219
    O   O6    0.447646  0.412376  0.629861  -0.649771
    O   O7    0.408546  0.470114  0.574025  -0.638030
    O   O8    0.365949  0.390009  0.592955  -0.632390
    O   O9    0.063950  0.051166  0.466332  -0.643610
    O   O10   0.144156  0.092646  0.447250  -0.628561
    O   O11   0.039906  0.967388  0.432439  -0.628185
    O   O12   0.984022  0.431715  0.524848  -0.650690
    O   O13   0.120153  0.008252  0.413502  -0.637050
    O   O14   0.007560  0.010253  0.388477  -0.639684
    O   O15   0.088214  0.052583  0.370206  -0.658403
    O   O16   0.030342  0.091501  0.426125  -0.642686
    O   O17   0.110764  0.133887  0.407412  -0.631782
    O   O18   0.490372  0.492863  0.888446  -0.640654
    O   O19   0.447814  0.412498  0.869987  -0.652511
    O   O20   0.532556  0.459954  0.932501  -0.632586
    O   O21   0.491523  0.380005  0.913363  -0.640835
    O   O22   0.448305  0.436040  0.966131  -0.644579
    O   O23   0.068823  0.516552  0.474598  -0.650463
    O   O24   0.406644  0.356130  0.946855  -0.642310
    O   O25   0.408706  0.470241  0.925816  -0.640551
    O   O26   0.366122  0.390113  0.906917  -0.635551
    O   O27   0.007266  0.010033  0.111440  -0.638420
    O   O28   0.087865  0.052409  0.129768  -0.656828
    O   O29   0.039836  0.967462  0.067417  -0.632679
    O   O30   0.120018  0.008338  0.086423  -0.642662
    O   O31   0.063855  0.051383  0.033642  -0.647057
    O   O32   0.143999  0.092889  0.052787  -0.642672
    O   O33   0.030010  0.091406  0.073905  -0.645817
    O   O34   0.071326  0.520114  0.523642  -0.643339
    O   O35   0.110371  0.133822  0.092682  -0.636317
    O   O36   0.017073  0.572559  0.026541  -0.642857
    O   O37   0.019277  0.576228  0.977537  -0.644763
    O   O38   0.068897  0.516645  0.025328  -0.648157
    O   O39   0.071362  0.520124  0.976281  -0.642861
    O   O40   0.980502  0.429336  0.024190  -0.639334
    O   O41   0.984003  0.431765  0.975145  -0.649405
    O   O42   0.924125  0.481156  0.022907  -0.645303
    O   O43   0.927827  0.483315  0.973904  -0.643807
    O   O44   0.016927  0.572378  0.473369  -0.646258
    O   O45   0.019161  0.576131  0.522371  -0.651288
    O   O46   0.924022  0.480936  0.477069  -0.650840
    O   O47   0.927763  0.483195  0.526071  -0.647211
    O   O48   0.448100  0.435835  0.533709  -0.632806
