# Generated by REPEAT Assigner based on pymatgen
data_DB0-m29_o99_o148_f0_pts.sym.101
_audit_creation_date              2022-05-24
_audit_creation_method            REPEAT_Assigner
_cell_length_a                    15.860630
_cell_length_b                    9.241443
_cell_length_c                    16.172429
_cell_angle_alpha                 92.063311
_cell_angle_beta                  99.132633
_cell_angle_gamma                 97.293295
_cell_volume                      2317.671379
_symmetry_space_group_name_H-M    P1
_symmetry_Int_Tables_number       1
loop_
    _symmetry_equiv_pos_site_id
    _symmetry_equiv_pos_as_xyz
    1  x,y,z
loop_
    _atom_site_type_symbol
    _atom_site_label
    _atom_site_fract_x
    _atom_site_fract_y
    _atom_site_fract_z
    _atom_type_partial_charge
    C   C1   0.199889  0.982031  0.869445  -0.127709
    H   H1   0.207573  0.968465  0.804513  0.146062
    C   C2   0.118464  0.981238  0.888846  -0.186723
    H   H2   0.062910  0.964730  0.839590  0.147622
    C   C3   0.107984  0.002896  0.970902  0.313442
    C   C4   0.178712  0.022207  0.033758  -0.198349
    H   H3   0.168082  0.034350  0.097835  0.164571
    C   C5   0.261131  0.021796  0.015329  -0.038458
    C   C6   0.271555  0.004922  0.931651  0.073793
    C   C7   0.023069  0.000775  0.991406  -0.183775
    C   C8   0.951798  0.997678  0.008882  -0.066047
    C   C9   0.796141  0.980732  0.967990  -0.212486
    H   H4   0.806851  0.980438  0.903685  0.160836
    C   C10  0.713499  0.970657  0.987314  0.015272
    C   C11  0.703032  0.969296  0.071633  -0.099129
    C   C12  0.775378  0.981203  0.133653  0.168954
    C   C13  0.856701  0.994302  0.112811  -0.235291
    H   H5   0.912548  0.001842  0.161509  0.131401
    C   C14  0.867027  0.991889  0.030206  0.246143
    O   O1   0.521284  0.165712  0.775265  -0.581055
    C   C15  0.480277  0.185562  0.700212  0.588826
    O   O2   0.415081  0.126918  0.932206  -0.459778
    O   O3   0.425097  0.079717  0.658761  -0.544893
    O   O4   0.369561  0.921105  0.847762  -0.573047
    C   C16  0.356168  0.015024  0.905489  0.557362
    Fe  Fe1  0.485244  0.973010  0.817443  1.391337
    O   O5   0.560979  0.960589  0.928103  -0.438712
    O   O6   0.658459  0.981217  0.840364  -0.508246
    C   C17  0.641517  0.968968  0.916835  0.552059
    O   O7   0.492701  0.838036  0.719587  -0.458901
    O   O8   0.540592  0.699149  0.824592  -0.459806
    C   C18  0.521824  0.716688  0.743943  0.494682
    O   O9   0.476486  0.125493  0.281381  -0.534916
    O   O10  0.478473  0.280090  0.176282  -0.491452
    C   C19  0.475346  0.258158  0.255525  0.643136
    O   O11  0.408713  0.994245  0.074302  -0.460662
    O   O12  0.319325  0.051312  0.162677  -0.516257
    C   C20  0.333246  0.027778  0.085817  0.585194
    O   O13  0.548690  0.896786  0.345674  -0.402645
    O   O14  0.600831  0.050604  0.152410  -0.591227
    C   C21  0.618071  0.954218  0.097879  0.697435
    O   O15  0.456813  0.797360  0.229288  -0.621153
    C   C22  0.497362  0.785075  0.305546  0.656801
    O   O16  0.562571  0.836714  0.073892  -0.462362
    Fe  Fe2  0.486754  0.990344  0.184571  1.386979
    C   C23  0.512309  0.453242  0.716475  -0.149556
    C   C24  0.494002  0.328572  0.664440  0.114390
    C   C25  0.484337  0.338577  0.578983  -0.292252
    C   C26  0.518552  0.589952  0.683989  -0.018137
    C   C27  0.515364  0.599965  0.597163  -0.075329
    C   C28  0.498342  0.473439  0.544074  0.268056
    C   C29  0.494068  0.485705  0.457084  -0.207453
    C   C30  0.484146  0.364920  0.400121  -0.007954
    C   C31  0.477602  0.382836  0.314955  -0.123423
    C   C32  0.530829  0.733733  0.562305  0.176399
    N   N1   0.521542  0.742701  0.478927  -0.358207
    C   C33  0.502209  0.623763  0.426059  0.410248
    C   C34  0.491758  0.640797  0.340480  -0.135301
    C   C35  0.477763  0.520241  0.285432  -0.051522
    H   H6   0.552849  0.833533  0.599973  0.128173
    H   H7   0.514944  0.442406  0.783049  0.164570
    H   H8   0.472225  0.534589  0.218923  0.165077
    H   H9   0.466322  0.237418  0.541967  0.185172
    H   H10  0.485009  0.255320  0.419669  0.118383
    C   C36  0.767529  0.976348  0.222446  0.010235
    C   C37  0.734616  0.849681  0.256835  0.165289
    C   C38  0.706340  0.707610  0.206858  -0.428044
    C   C39  0.730675  0.851686  0.341551  -0.168180
    C   C40  0.759253  0.977274  0.391950  -0.072101
    C   C41  0.793030  0.101809  0.358101  -0.155997
    C   C42  0.797580  0.100905  0.273749  -0.120395
    H   H11  0.720574  0.710159  0.142155  0.120865
    H   H12  0.636137  0.676584  0.204764  0.121709
    H   H13  0.740603  0.622200  0.238510  0.118007
    H   H14  0.705539  0.753592  0.368866  0.105236
    H   H15  0.755904  0.977585  0.458194  0.103007
    H   H16  0.816132  0.200115  0.397685  0.117572
    H   H17  0.824275  0.198971  0.247465  0.102634
