# Generated by REPEAT Assigner based on pymatgen
data_DB0-m9_o20_o24_f0_sra.sym.11_sqe
_audit_creation_date              2022-05-24
_audit_creation_method            REPEAT_Assigner
_cell_length_a                    6.697867
_cell_length_b                    14.567456
_cell_length_c                    20.055787
_cell_angle_alpha                 108.610922
_cell_angle_beta                  90.837849
_cell_angle_gamma                 91.130670
_cell_volume                      1853.718934
_symmetry_space_group_name_H-M    P1
_symmetry_Int_Tables_number       1
loop_
    _symmetry_equiv_pos_site_id
    _symmetry_equiv_pos_as_xyz
    1  x,y,z
loop_
    _atom_site_type_symbol
    _atom_site_label
    _atom_site_fract_x
    _atom_site_fract_y
    _atom_site_fract_z
    _atom_type_partial_charge
    O  O1   0.520919  0.464670  0.575669  -0.525679
    O  O2   0.143992  0.431975  0.396164  -0.609139
    O  O3   0.971818  0.604255  0.463407  -0.479888
    C  C1   0.313168  0.385202  0.384385  0.584155
    O  O4   0.204212  0.400805  0.528213  -0.575324
    O  O5   0.025519  0.574363  0.592619  -0.560529
    C  C2   0.341691  0.425864  0.580407  0.735118
    O  O6   0.460949  0.392763  0.430683  -0.441331
    O  O7   0.340027  0.570950  0.507026  -0.546139
    V  V1   0.061345  0.495268  0.493880  1.447195
    O  O8   0.716087  0.626537  0.563404  -0.532068
    C  C3   0.848251  0.613963  0.609937  0.607520
    O  O9   0.649272  0.552415  0.415149  -0.575036
    C  C4   0.820007  0.600838  0.418989  0.842390
    V  V2   0.562442  0.516657  0.497413  1.379159
    O  O10  0.833726  0.441259  0.486383  -0.583680
    C  C5   0.842189  0.652527  0.369123  -0.343125
    C  C6   0.852164  0.692108  0.324727  0.177549
    C  C7   0.856965  0.735716  0.270964  -0.072139
    C  C8   0.857982  0.772065  0.224634  -0.003527
    C  C9   0.858193  0.815284  0.170631  0.104753
    C  C10  0.860221  0.854254  0.125777  -0.265014
    C  C11  0.657149  0.775796  0.761638  -0.037750
    C  C12  0.779947  0.786710  0.701759  0.281075
    H  H1   0.503519  0.801217  0.775380  0.040977
    C  C13  0.843254  0.683779  0.681988  0.034366
    C  C14  0.726858  0.672491  0.742189  0.134079
    C  C15  0.908958  0.701593  0.790222  -0.050987
    C  C16  0.027735  0.714356  0.729204  -0.061195
    C  C17  0.963562  0.819354  0.748346  0.009114
    C  C18  0.843873  0.805507  0.808140  0.064284
    H  H2   0.958855  0.666058  0.828713  0.063431
    H  H3   0.180430  0.688188  0.714623  0.048980
    H  H4   0.060302  0.883432  0.751755  0.039656
    C  C19  0.536717  0.292143  0.275185  -0.162420
    C  C20  0.460933  0.187801  0.248351  0.550860
    H  H5   0.687005  0.317174  0.298661  0.062500
    C  C21  0.371691  0.203393  0.183677  -0.038941
    C  C22  0.444212  0.308523  0.209488  -0.080635
    C  C23  0.247023  0.336326  0.247798  -0.109302
    C  C24  0.179587  0.230980  0.221879  0.352494
    C  C25  0.268374  0.214458  0.285655  0.191932
    C  C26  0.339150  0.318407  0.312206  0.043304
    H  H6   0.517735  0.347142  0.176593  0.070725
    H  H7   0.154098  0.398734  0.248375  0.070934
    C  C27  0.331365  0.375928  0.631786  -0.244739
    C  C28  0.329563  0.335694  0.675953  0.124015
    C  C29  0.333326  0.289499  0.728335  -0.067008
    C  C30  0.339858  0.250035  0.772917  0.008152
    C  C31  0.349892  0.202699  0.824559  0.033452
    C  C32  0.359079  0.160430  0.867423  -0.182838
    O  O11  0.209535  0.096181  0.082978  -0.440124
    O  O12  0.543958  0.096344  0.941692  -0.555076
    O  O13  0.693630  0.915491  0.907761  -0.560557
    C  C33  0.369277  0.106584  0.916357  0.725575
    O  O14  0.551425  0.115794  0.082595  -0.497915
    O  O15  0.701474  0.936137  0.057209  -0.562116
    C  C34  0.378872  0.133257  0.111832  0.480761
    O  O16  0.202075  0.074674  0.933475  -0.552288
    O  O17  0.373116  0.944927  0.985632  -0.480205
    V  V3   0.650775  0.017986  0.997635  1.430721
    O  O18  0.040995  0.915232  0.049845  -0.540358
    C  C35  0.867727  0.904965  0.074907  0.769918
    O  O19  0.033564  0.894988  0.908950  -0.622207
    C  C36  0.857554  0.877438  0.879464  0.632907
    V  V4   0.149531  0.993051  0.993553  1.409258
    O  O20  0.879214  0.066278  0.005494  -0.486213
    O  O21  0.714956  0.830338  0.653036  -0.348863
    C  C37  0.755487  0.928903  0.685669  0.057223
    H  H8   0.904519  0.948276  0.669987  0.046675
    H  H9   0.753496  0.945409  0.743594  -0.035000
    H  H10  0.639574  0.971476  0.669641  0.065194
    O  O22  0.990579  0.197691  0.193323  -0.474622
    C  C38  0.991833  0.098068  0.181484  0.212314
    H  H11  0.919464  0.081263  0.225754  0.017450
    H  H12  0.148238  0.073620  0.177374  -0.099182
    H  H13  0.909688  0.060003  0.131571  0.050531
    O  O23  0.175208  0.164850  0.326161  -0.374312
    C  C39  0.189922  0.228561  0.394804  0.137753
    H  H14  0.095559  0.291970  0.399665  0.067120
    H  H15  0.347811  0.252856  0.407736  0.021384
    H  H16  0.137980  0.190999  0.431787  0.032099
    O  O24  0.603275  0.592279  0.737006  -0.334944
    C  C40  0.538556  0.607420  0.805344  0.164290
    H  H17  0.562668  0.684801  0.836724  -0.038970
    H  H18  0.624071  0.561601  0.829790  0.017794
    H  H19  0.377021  0.588502  0.803900  0.028785
    O  O25  0.572042  0.107617  0.247686  -0.430785
    C  C41  0.590556  0.113556  0.318272  0.056758
    H  H20  0.441801  0.102083  0.338289  -0.001682
    H  H21  0.653087  0.185934  0.349239  -0.027088
    H  H22  0.692567  0.056990  0.323338  0.084264
