# Generated by REPEAT Assigner based on pymatgen
data_DB0-m2_o20_o24_f0_pcu.sym.19_sqe
_audit_creation_date              2022-05-24
_audit_creation_method            REPEAT_Assigner
_cell_length_a                    14.440266
_cell_length_b                    13.019442
_cell_length_c                    10.762946
_cell_angle_alpha                 90.000000
_cell_angle_beta                  90.008635
_cell_angle_gamma                 90.000000
_cell_volume                      2023.479084
_symmetry_space_group_name_H-M    P1
_symmetry_Int_Tables_number       1
loop_
    _symmetry_equiv_pos_site_id
    _symmetry_equiv_pos_as_xyz
    1  x,y,z
loop_
    _atom_site_type_symbol
    _atom_site_label
    _atom_site_fract_x
    _atom_site_fract_y
    _atom_site_fract_z
    _atom_type_partial_charge
    O   O1   0.367339  0.588312  0.508836  -0.575799
    O   O2   0.636369  0.411583  0.494235  -0.592390
    O   O3   0.636456  0.588431  0.503008  -0.592499
    O   O4   0.367250  0.411678  0.499869  -0.571393
    C   C1   0.324154  0.499992  0.505115  0.809570
    C   C2   0.679524  0.500007  0.497930  0.897941
    O   O5   0.502406  0.587844  0.320998  -0.535884
    O   O6   0.506828  0.411958  0.681860  -0.517051
    O   O7   0.506900  0.588652  0.682055  -0.501375
    O   O8   0.502494  0.411555  0.320801  -0.514715
    C   C3   0.501990  0.046278  0.501352  0.014534
    C   C4   0.501983  0.953723  0.501318  0.006236
    C   C5   0.496442  0.499729  0.262925  0.472556
    C   C6   0.505315  0.500270  0.739946  0.524485
    Cu  Cu1  0.501839  0.602785  0.501549  0.933903
    Cu  Cu2  0.501854  0.397216  0.501409  0.915405
    N   N1   0.501949  0.243598  0.501433  -0.174911
    N   N2   0.501920  0.756403  0.501323  -0.186047
    C   C7   0.454429  0.580739  0.038193  0.137305
    C   C8   0.543158  0.419459  0.963225  0.061812
    C   C9   0.542182  0.581263  0.963486  0.060380
    C   C10  0.455404  0.418510  0.037929  0.131827
    C   C11  0.413324  0.499410  0.952894  -0.175207
    C   C12  0.584756  0.500582  0.048247  -0.150270
    H   H1   0.341829  0.498925  0.915253  0.173307
    H   H2   0.656430  0.501068  0.085268  0.156007
    C   C13  0.503292  0.500159  0.878263  -0.013487
    C   C14  0.494606  0.499826  0.124033  0.119681
    C   C15  0.501977  0.154731  0.501404  0.282420
    C   C16  0.501957  0.845271  0.501301  0.291985
    C   C17  0.224783  0.500037  0.504962  -0.244912
    C   C18  0.778899  0.499966  0.498098  -0.311880
    C   C19  0.141339  0.500037  0.504023  0.098861
    C   C20  0.862344  0.499965  0.499054  0.157885
    C   C21  0.043564  0.500015  0.502348  -0.002931
    C   C22  0.960123  0.499989  0.500758  -0.048785
    N   N3   0.401910  0.671882  0.072234  0.465490
    O   O9   0.370235  0.731232  0.984853  -0.320088
    O   O10  0.370694  0.682772  0.184696  -0.294637
    N   N4   0.594549  0.329916  0.921440  0.499114
    O   O11  0.569725  0.238255  0.955817  -0.301202
    O   O12  0.670579  0.342236  0.858496  -0.316522
    N   N5   0.592499  0.671655  0.922021  0.492004
    O   O13  0.566502  0.762867  0.956582  -0.298596
    O   O14  0.668755  0.660605  0.859223  -0.313369
    N   N6   0.403942  0.326531  0.071596  0.462763
    O   O15  0.373210  0.266841  0.983949  -0.318948
    O   O16  0.372295  0.315252  0.183785  -0.292571
