data_DB0-m3_o11_o29_f0_pcu.sym.38_repeat
_audit_creation_date              2024-02-20
_audit_creation_method            'Materials Studio'
_symmetry_space_group_name_H-M    'P1'
_symmetry_Int_Tables_number       1
_symmetry_cell_setting            triclinic
loop_
_symmetry_equiv_pos_as_xyz
  x,y,z
_cell_length_a                    27.6274
_cell_length_b                    11.0954
_cell_length_c                    9.9362
_cell_angle_alpha                 89.9974
_cell_angle_beta                  89.9930
_cell_angle_gamma                 89.9936
loop_
_atom_site_label
_atom_site_type_symbol
_atom_site_fract_x
_atom_site_fract_y
_atom_site_fract_z
_atom_site_U_iso_or_equiv
_atom_site_adp_type
_atom_site_occupancy
O1     O     0.49623   0.33139   0.61053   0.00000  Uiso   1.00
O2     O     0.49610   0.32597   0.37864   0.00000  Uiso   1.00
C1     C     0.49434   0.27218   0.49609   0.00000  Uiso   1.00
O3     O     0.43015   0.52373   0.60242   0.00000  Uiso   1.00
O4     O     0.42910   0.51831   0.37036   0.00000  Uiso   1.00
C2     C     0.40700   0.52472   0.48708   0.00000  Uiso   1.00
Zn1    Zn    0.50221   0.51175   0.63788   0.00000  Uiso   1.00
Zn2    Zn    0.50086   0.50327   0.33181   0.00000  Uiso   1.00
O5     O     0.50743   0.68880   0.59105   0.00000  Uiso   1.00
O6     O     0.50612   0.68398   0.35885   0.00000  Uiso   1.00
O7     O     0.57392   0.49553   0.59911   0.00000  Uiso   1.00
O8     O     0.57299   0.49308   0.36702   0.00000  Uiso   1.00
C3     C     0.50843   0.74234   0.47386   0.00000  Uiso   1.00
C4     C     0.59607   0.49004   0.48243   0.00000  Uiso   1.00
C5     C     0.17893   0.43146   0.42927   0.00000  Uiso   1.00
O9     O     0.20485   0.34585   0.36627   0.00000  Uiso   1.00
N1     N     0.20188   0.52104   0.49438   0.00000  Uiso   1.00
C6     C     0.17664   0.60550   0.56194   0.00000  Uiso   1.00
C7     C     0.27928   0.52455   0.61136   0.00000  Uiso   1.00
C8     C     0.32918   0.52602   0.60984   0.00000  Uiso   1.00
C9     C     0.32812   0.53321   0.36967   0.00000  Uiso   1.00
C10    C     0.27819   0.53210   0.37147   0.00000  Uiso   1.00
C11    C     0.25353   0.52664   0.49226   0.00000  Uiso   1.00
C12    C     0.10219   0.51050   0.49790   0.00000  Uiso   1.00
C13    C     0.12901   0.42682   0.42758   0.00000  Uiso   1.00
C14    C     0.10594   0.33851   0.35493   0.00000  Uiso   1.00
C15    C     0.12627   0.59798   0.57150   0.00000  Uiso   1.00
C16    C     0.35392   0.52934   0.48889   0.00000  Uiso   1.00
H1     H     0.34649   0.53634   0.27373   0.00000  Uiso   1.00
H2     H     0.25852   0.53546   0.27750   0.00000  Uiso   1.00
H3     H     0.12607   0.27302   0.29713   0.00000  Uiso   1.00
C17    C     0.64916   0.48452   0.48109   0.00000  Uiso   1.00
C18    C     0.97772   0.40753   0.42691   0.00000  Uiso   1.00
C19    C     0.97465   0.59529   0.54794   0.00000  Uiso   1.00
C20    C     0.95122   0.49988   0.48559   0.00000  Uiso   1.00
C21    C     0.95264   0.30971   0.37308   0.00000  Uiso   1.00
C22    C     0.90295   0.30671   0.37255   0.00000  Uiso   1.00
C23    C     0.87682   0.40065   0.42579   0.00000  Uiso   1.00
C24    C     0.90088   0.49667   0.48243   0.00000  Uiso   1.00
C25    C     0.87402   0.58936   0.53621   0.00000  Uiso   1.00
C26    C     0.82399   0.58459   0.53357   0.00000  Uiso   1.00
N2     N     0.80113   0.48921   0.47884   0.00000  Uiso   1.00
C27    C     0.82672   0.39789   0.42479   0.00000  Uiso   1.00
C28    C     0.72461   0.48544   0.59970   0.00000  Uiso   1.00
C29    C     0.67473   0.48484   0.60075   0.00000  Uiso   1.00
C30    C     0.67416   0.48225   0.36044   0.00000  Uiso   1.00
C31    C     0.72411   0.48205   0.35971   0.00000  Uiso   1.00
C32    C     0.74951   0.48485   0.47931   0.00000  Uiso   1.00
O10    O     0.80332   0.30255   0.37260   0.00000  Uiso   1.00
C33    C     0.02838   0.41462   0.42426   0.00000  Uiso   1.00
C34    C     0.05179   0.50625   0.49409   0.00000  Uiso   1.00
C35    C     0.02512   0.59403   0.55969   0.00000  Uiso   1.00
C36    C     0.05641   0.33240   0.35270   0.00000  Uiso   1.00
H4     H     0.65624   0.48576   0.69650   0.00000  Uiso   1.00
H5     H     0.74415   0.48625   0.69396   0.00000  Uiso   1.00
H6     H     0.88516   0.22890   0.32985   0.00000  Uiso   1.00
H7     H     0.97000   0.23067   0.33346   0.00000  Uiso   1.00
H8     H     0.04158   0.26328   0.28922   0.00000  Uiso   1.00
O11    O     0.20072   0.70098   0.61118   0.00000  Uiso   1.00
C37    C     0.09917   0.67689   0.65005   0.00000  Uiso   1.00
H9     H     0.34836   0.52237   0.70451   0.00000  Uiso   1.00
H10    H     0.26046   0.51905   0.70657   0.00000  Uiso   1.00
C38    C     0.94686   0.69091   0.59580   0.00000  Uiso   1.00
C39    C     0.89725   0.68745   0.59053   0.00000  Uiso   1.00
O12    O     0.79788   0.67639   0.58377   0.00000  Uiso   1.00
C40    C     0.04948   0.67590   0.64090   0.00000  Uiso   1.00
H11    H     0.96221   0.77296   0.63455   0.00000  Uiso   1.00
H12    H     0.65515   0.48207   0.26542   0.00000  Uiso   1.00
H13    H     0.87720   0.76335   0.62972   0.00000  Uiso   1.00
H14    H     0.74325   0.48250   0.26479   0.00000  Uiso   1.00
H15    H     0.03066   0.73495   0.70882   0.00000  Uiso   1.00
C41    C     0.49470   0.94305   0.37800   0.00000  Uiso   1.00
C42    C     0.51259   0.87380   0.47576   0.00000  Uiso   1.00
H16    H     0.48108   0.90172   0.28673   0.00000  Uiso   1.00
H17    H     0.52832   0.91447   0.56461   0.00000  Uiso   1.00
C43    C     0.49639   0.07596   0.38632   0.00000  Uiso   1.00
C44    C     0.48767   0.14033   0.49888   0.00000  Uiso   1.00
H18    H     0.50631   0.12252   0.29457   0.00000  Uiso   1.00
C45    C     0.53621   0.56345   0.91956   0.00000  Uiso   1.00
N3     N     0.50340   0.52190   0.83912   0.00000  Uiso   1.00
H19    H     0.47123   0.49858   0.88377   0.00000  Uiso   1.00
C46    C     0.52887   0.56737   0.06712   0.00000  Uiso   1.00
N4     N     0.50059   0.49536   0.13068   0.00000  Uiso   1.00
H20    H     0.54986   0.63193   0.12444   0.00000  Uiso   1.00
H21    H     0.48596   0.42467   0.07778   0.00000  Uiso   1.00
C47    C     0.12029   0.75541   0.75397   0.00000  Uiso   1.00
O13    O     0.10432   0.85677   0.77080   0.00000  Uiso   1.00
O14    O     0.15476   0.71037   0.84299   0.00000  Uiso   1.00
H22    H     0.16383   0.77436   0.91104   0.00000  Uiso   1.00
C48    C     0.46628   0.08536   0.62071   0.00000  Uiso   1.00
O15    O     0.47571   0.12553   0.73187   0.00000  Uiso   1.00
O16    O     0.43270   0.99238   0.60923   0.00000  Uiso   1.00
H23    H     0.42089   0.96757   0.70159   0.00000  Uiso   1.00
C49    C     0.58142   0.61768   0.87015   0.00000  Uiso   1.00
O17    O     0.61782   0.61109   0.93915   0.00000  Uiso   1.00
O18    O     0.58203   0.68879   0.75526   0.00000  Uiso   1.00
H24    H     0.61554   0.72330   0.74088   0.00000  Uiso   1.00
