# Generated by REPEAT Assigner based on pymatgen
data_DB0-m3_o1_o7_f0_pcu.sym.12
_audit_creation_date              2022-05-24
_audit_creation_method            REPEAT_Assigner
_cell_length_a                    10.964822
_cell_length_b                    9.986228
_cell_length_c                    17.848906
_cell_angle_alpha                 90.000000
_cell_angle_beta                  90.001101
_cell_angle_gamma                 90.000000
_cell_volume                      1954.405450
_symmetry_space_group_name_H-M    P1
_symmetry_Int_Tables_number       1
loop_
    _symmetry_equiv_pos_site_id
    _symmetry_equiv_pos_as_xyz
    1  x,y,z
loop_
    _atom_site_type_symbol
    _atom_site_label
    _atom_site_fract_x
    _atom_site_fract_y
    _atom_site_fract_z
    _atom_type_partial_charge
    O   O1   0.309596  0.617366  0.498056  -0.663424
    O   O2   0.672953  0.385947  0.503116  -0.591440
    O   O3   0.672820  0.617366  0.501966  -0.664089
    O   O4   0.309464  0.385947  0.496906  -0.589389
    C   C1   0.252310  0.502044  0.497618  0.680931
    C   C2   0.730106  0.502044  0.502403  0.681716
    O   O5   0.497103  0.617400  0.388354  -0.621875
    O   O6   0.483636  0.385988  0.611497  -0.715194
    O   O7   0.485314  0.617400  0.611668  -0.621866
    O   O8   0.498780  0.385988  0.388525  -0.711409
    C   C3   0.053823  0.385270  0.502080  -0.049103
    C   C4   0.928163  0.623212  0.501101  -0.105804
    C   C5   0.928593  0.385270  0.497941  -0.049878
    C   C6   0.054253  0.623212  0.498918  -0.104023
    C   C7   0.501259  0.501369  0.353310  0.739051
    C   C8   0.481158  0.501369  0.646712  0.740516
    Zn  Zn1  0.491208  0.655484  0.500011  1.042113
    Zn  Zn2  0.491208  0.347822  0.500011  1.033064
    C   C9   0.864283  0.503649  0.500584  -0.064691
    C   C10  0.118134  0.503649  0.499436  -0.066295
    N   N1   0.491208  0.857994  0.500011  -0.248657
    N   N2   0.491208  0.145244  0.500011  -0.154250
    C   C11  0.453153  0.615269  0.846199  -0.023581
    C   C12  0.487091  0.380078  0.154790  -0.095222
    C   C13  0.529259  0.615269  0.153822  -0.026800
    C   C14  0.495317  0.380077  0.845232  -0.092354
    C   C15  0.448409  0.614359  0.768801  -0.130125
    C   C16  0.487521  0.381863  0.232205  -0.143323
    C   C17  0.534006  0.614359  0.231220  -0.129782
    C   C18  0.494890  0.381863  0.767817  -0.145934
    H   H1   0.425587  0.705189  0.739312  0.102081
    H   H2   0.471802  0.289840  0.262277  0.127020
    H   H3   0.556831  0.705188  0.260709  0.102693
    H   H4   0.510608  0.289839  0.737745  0.128716
    C   C19  0.474750  0.499477  0.729114  -0.084902
    C   C20  0.507665  0.499477  0.270907  -0.087528
    C   C21  0.565027  0.072675  0.547410  -0.000246
    C   C22  0.419769  0.930350  0.451397  0.197590
    C   C23  0.417390  0.072675  0.452611  -0.002354
    C   C24  0.562648  0.930349  0.548624  0.195340
    C   C25  0.478188  0.497976  0.885142  0.074873
    C   C26  0.504221  0.497976  0.114879  0.084441
    C   C27  0.487093  0.498524  0.966155  -0.051387
    C   C28  0.495315  0.498524  0.033867  -0.062169
    H   H5   0.100281  0.291038  0.507323  0.070301
    H   H6   0.880778  0.718043  0.502106  0.102211
    H   H7   0.882135  0.291038  0.492699  0.070509
    H   H8   0.101638  0.718043  0.497912  0.101758
    C   C29  0.434636  0.745035  0.886037  0.166737
    C   C30  0.557354  0.809062  0.901931  -0.141403
    H   H9   0.618836  0.736390  0.929650  0.039602
    H   H10  0.599575  0.841283  0.848543  -0.004573
    H   H11  0.544865  0.897818  0.938358  0.055878
    H   H12  0.381066  0.814072  0.850215  -0.022067
    H   H13  0.382606  0.730237  0.938449  -0.047912
    C   C31  0.469520  0.249169  0.115896  0.275140
    C   C32  0.592760  0.191799  0.094579  -0.132037
    H   H14  0.645738  0.266040  0.061896  0.024746
    H   H15  0.644099  0.166398  0.146192  0.030687
    H   H16  0.579750  0.099918  0.060673  0.022931
    H   H17  0.423734  0.177509  0.154092  -0.061581
    H   H18  0.410772  0.260321  0.065929  -0.062478
    C   C33  0.547776  0.745034  0.113983  0.168717
    C   C34  0.425058  0.809060  0.098089  -0.140594
    H   H19  0.363576  0.736386  0.070371  0.039216
    H   H20  0.382837  0.841283  0.151476  -0.005231
    H   H21  0.437546  0.897814  0.061660  0.055953
    H   H22  0.601345  0.814072  0.149806  -0.022572
    H   H23  0.599806  0.730235  0.061572  -0.048794
    C   C35  0.512886  0.249169  0.884126  0.273117
    C   C36  0.389646  0.191799  0.905443  -0.124784
    H   H24  0.336669  0.266039  0.938127  0.023296
    H   H25  0.338307  0.166401  0.853829  0.028496
    H   H26  0.402656  0.099916  0.939347  0.020878
    H   H27  0.558674  0.177508  0.845930  -0.061731
    H   H28  0.571634  0.260320  0.934094  -0.061805
    C   C37  0.644422  0.144223  0.604426  0.092724
    C   C38  0.781115  0.124251  0.596634  -0.228231
    H   H29  0.817475  0.057082  0.640568  0.039412
    H   H30  0.804098  0.087574  0.539711  0.082368
    H   H31  0.825419  0.221902  0.607324  0.050955
    H   H32  0.636712  0.249842  0.598981  0.099456
    H   H33  0.612951  0.126865  0.662171  0.015577
    C   C39  0.335817  0.858272  0.397412  -0.177532
    C   C40  0.367917  0.874490  0.315232  -0.149994
    H   H34  0.303481  0.942024  0.286142  0.067422
    H   H35  0.463381  0.909480  0.309054  0.080057
    H   H36  0.356560  0.775690  0.288173  0.071907
    H   H37  0.340304  0.752958  0.404748  0.143871
    H   H38  0.238710  0.876261  0.409157  0.078116
    C   C41  0.337995  0.144223  0.395595  0.094629
    C   C42  0.201302  0.124252  0.403388  -0.227547
    H   H39  0.164942  0.057083  0.359454  0.039076
    H   H40  0.178320  0.087575  0.460311  0.082508
    H   H41  0.156999  0.221903  0.392698  0.050459
    H   H42  0.345705  0.249842  0.401041  0.097251
    H   H43  0.369465  0.126865  0.337851  0.016187
    C   C43  0.646601  0.858271  0.602609  -0.171974
    C   C44  0.614501  0.874490  0.684790  -0.154344
    H   H44  0.678938  0.942024  0.713879  0.068424
    H   H45  0.519037  0.909480  0.690968  0.081304
    H   H46  0.625858  0.775690  0.711848  0.071795
    H   H47  0.642113  0.752957  0.595274  0.143671
    H   H48  0.743708  0.876260  0.590864  0.076793
