data_DB0-m2_o12_o150_f0_pcu_repeat
_audit_creation_date              2024-02-23
_audit_creation_method            'Materials Studio'
_symmetry_space_group_name_H-M    'P1'
_symmetry_Int_Tables_number       1
_symmetry_cell_setting            triclinic
loop_
_symmetry_equiv_pos_as_xyz
  x,y,z
_cell_length_a                    11.1797
_cell_length_b                    15.0913
_cell_length_c                    9.7477
_cell_angle_alpha                 99.7195
_cell_angle_beta                  92.3130
_cell_angle_gamma                 90.0051
loop_
_atom_site_label
_atom_site_type_symbol
_atom_site_fract_x
_atom_site_fract_y
_atom_site_fract_z
_atom_site_U_iso_or_equiv
_atom_site_adp_type
_atom_site_occupancy
O1     O     0.98326   0.88339   0.11464   0.00000  Uiso   1.00
O2     O     0.01674   0.11661   0.88536   0.00000  Uiso   1.00
O3     O     0.01489   0.85861   0.88159   0.00000  Uiso   1.00
O4     O     0.98511   0.14139   0.11841   0.00000  Uiso   1.00
C1     C     0.99859   0.82788   0.99779   0.00000  Uiso   1.00
C2     C     0.00141   0.17212   0.00221   0.00000  Uiso   1.00
O5     O     0.15594   0.01595   0.15607   0.00000  Uiso   1.00
O6     O     0.84406   0.98405   0.84393   0.00000  Uiso   1.00
O7     O     0.18750   0.99127   0.92275   0.00000  Uiso   1.00
O8     O     0.81250   0.00873   0.07725   0.00000  Uiso   1.00
C3     C     0.22892   0.00484   0.05262   0.00000  Uiso   1.00
C4     C     0.77108   0.99516   0.94738   0.00000  Uiso   1.00
Cu1    Cu    0.98181   0.01419   0.13541   0.00000  Uiso   1.00
Cu2    Cu    0.01819   0.98581   0.86460   0.00000  Uiso   1.00
H1     H     0.59525   0.01315   0.12584   0.00000  Uiso   1.00
H2     H     0.40475   0.98685   0.87417   0.00000  Uiso   1.00
C5     C     0.35803   0.00809   0.08392   0.00000  Uiso   1.00
C6     C     0.64197   0.99191   0.91608   0.00000  Uiso   1.00
C7     C     0.43565   0.99797   0.98253   0.00000  Uiso   1.00
C8     C     0.56435   0.00203   0.01747   0.00000  Uiso   1.00
H3     H     0.60961   0.98075   0.80819   0.00000  Uiso   1.00
H4     H     0.39039   0.01925   0.19181   0.00000  Uiso   1.00
C9     C     0.98889   0.32899   0.12481   0.00000  Uiso   1.00
C10    C     0.01111   0.67101   0.87519   0.00000  Uiso   1.00
C11    C     0.00227   0.26926   0.00230   0.00000  Uiso   1.00
C12    C     0.99773   0.73074   0.99770   0.00000  Uiso   1.00
C13    C     0.02312   0.30179   0.88092   0.00000  Uiso   1.00
C14    C     0.97689   0.69821   0.11908   0.00000  Uiso   1.00
C15    C     0.02444   0.39318   0.88069   0.00000  Uiso   1.00
C16    C     0.97556   0.60682   0.11931   0.00000  Uiso   1.00
C17    C     0.00189   0.45196   0.00084   0.00000  Uiso   1.00
C18    C     0.99811   0.54804   0.99916   0.00000  Uiso   1.00
C19    C     0.99025   0.42040   0.12428   0.00000  Uiso   1.00
C20    C     0.00975   0.57960   0.87572   0.00000  Uiso   1.00
C21    C     0.06640   0.42844   0.75695   0.00000  Uiso   1.00
C22    C     0.93360   0.57156   0.24305   0.00000  Uiso   1.00
C23    C     0.00407   0.51541   0.74148   0.00000  Uiso   1.00
C24    C     0.99593   0.48460   0.25852   0.00000  Uiso   1.00
H5     H     0.04176   0.25622   0.78637   0.00000  Uiso   1.00
H6     H     0.95824   0.74378   0.21363   0.00000  Uiso   1.00
H7     H     0.16417   0.44137   0.77078   0.00000  Uiso   1.00
H8     H     0.83583   0.55863   0.22922   0.00000  Uiso   1.00
H9     H     0.04692   0.54550   0.65939   0.00000  Uiso   1.00
H10    H     0.95308   0.45451   0.34061   0.00000  Uiso   1.00
H11    H     0.95139   0.62161   0.33889   0.00000  Uiso   1.00
H12    H     0.04862   0.37839   0.66111   0.00000  Uiso   1.00
H13    H     0.90882   0.50048   0.70982   0.00000  Uiso   1.00
H14    H     0.09118   0.49952   0.29018   0.00000  Uiso   1.00
H15    H     0.98055   0.30476   0.22217   0.00000  Uiso   1.00
H16    H     0.01945   0.69524   0.77783   0.00000  Uiso   1.00
H17    H     0.92306   0.05833   0.61504   0.00000  Uiso   1.00
H18    H     0.07694   0.94167   0.38496   0.00000  Uiso   1.00
N1     N     0.95472   0.03486   0.34078   0.00000  Uiso   1.00
N2     N     0.04528   0.96514   0.65922   0.00000  Uiso   1.00
C25    C     0.01152   0.99141   0.42505   0.00000  Uiso   1.00
C26    C     0.98848   0.00859   0.57495   0.00000  Uiso   1.00
H19    H     0.10533   0.91952   0.61152   0.00000  Uiso   1.00
H20    H     0.89467   0.08048   0.38848   0.00000  Uiso   1.00
