# Generated by REPEAT Assigner based on pymatgen
data_DB0-m3_o7_o15_f0_pcu.sym.18
_audit_creation_date              2022-05-24
_audit_creation_method            REPEAT_Assigner
_cell_length_a                    17.791849
_cell_length_b                    16.656151
_cell_length_c                    11.043747
_cell_angle_alpha                 90.000000
_cell_angle_beta                  90.004215
_cell_angle_gamma                 90.000000
_cell_volume                      3272.745027
_symmetry_space_group_name_H-M    P1
_symmetry_Int_Tables_number       1
loop_
    _symmetry_equiv_pos_site_id
    _symmetry_equiv_pos_as_xyz
    1  x,y,z
loop_
    _atom_site_type_symbol
    _atom_site_label
    _atom_site_fract_x
    _atom_site_fract_y
    _atom_site_fract_z
    _atom_type_partial_charge
    O   O1   0.388159  0.568869  0.491132  -0.593873
    O   O2   0.611842  0.431131  0.508868  -0.593868
    O   O3   0.611842  0.568869  0.508868  -0.593873
    O   O4   0.388159  0.431131  0.491132  -0.593867
    C   C1   0.352744  0.500000  0.489290  0.622632
    C   C2   0.647256  0.500000  0.510710  0.622642
    O   O5   0.506013  0.568692  0.319815  -0.570113
    O   O6   0.493987  0.431308  0.680185  -0.570109
    O   O7   0.493987  0.568692  0.680185  -0.570105
    O   O8   0.506013  0.431308  0.319815  -0.570115
    C   C3   0.511062  0.500000  0.261242  0.696980
    C   C4   0.488938  0.500000  0.738758  0.696970
    Zn  Zn1  0.500000  0.591068  0.500000  0.953805
    Zn  Zn2  0.500000  0.408932  0.500000  0.953794
    H   H1   0.539638  0.227979  0.091039  0.068973
    H   H2   0.460363  0.772021  0.908961  0.068967
    H   H3   0.460363  0.227979  0.908961  0.068972
    H   H4   0.539637  0.772021  0.091039  0.068970
    C   C5   0.537859  0.644455  0.107385  -0.032594
    C   C6   0.462142  0.355545  0.892614  -0.032576
    C   C7   0.462141  0.644455  0.892614  -0.032596
    C   C8   0.537859  0.355545  0.107386  -0.032595
    C   C9   0.521595  0.715952  0.051211  -0.086726
    C   C10  0.478405  0.284048  0.948789  -0.086732
    C   C11  0.478405  0.715952  0.948789  -0.086719
    C   C12  0.521596  0.284048  0.051211  -0.086729
    C   C13  0.486922  0.571872  0.940652  0.099158
    C   C14  0.513078  0.428128  0.059348  0.099170
    C   C15  0.513078  0.571872  0.059348  0.099167
    C   C16  0.486922  0.428128  0.940652  0.099149
    C   C17  0.482093  0.500000  0.875215  -0.270322
    C   C18  0.517907  0.500000  0.124785  -0.270336
    H   H5   0.573034  0.647070  0.186748  0.054632
    H   H6   0.426967  0.352930  0.813252  0.054625
    H   H7   0.426967  0.647070  0.813251  0.054631
    H   H8   0.573034  0.352930  0.186748  0.054633
    C   C19  0.846738  0.571538  0.505640  -0.291771
    C   C20  0.153262  0.428462  0.494360  -0.291777
    C   C21  0.153262  0.571538  0.494360  -0.291770
    C   C22  0.846738  0.428462  0.505639  -0.291779
    H   H9   0.877106  0.627740  0.504013  0.145528
    H   H10  0.122894  0.372260  0.495987  0.145530
    H   H11  0.122894  0.627740  0.495987  0.145529
    H   H12  0.877106  0.372260  0.504013  0.145530
    C   C23  0.769246  0.571670  0.508047  0.035311
    C   C24  0.230755  0.428330  0.491953  0.035304
    C   C25  0.230755  0.571670  0.491953  0.035302
    C   C26  0.769246  0.428330  0.508046  0.035313
    H   H13  0.740270  0.628567  0.507380  0.074558
    H   H14  0.259730  0.371433  0.492620  0.074564
    H   H15  0.259730  0.628567  0.492620  0.074563
    H   H16  0.740270  0.371433  0.507379  0.074558
    C   C27  0.729882  0.500000  0.510177  -0.150594
    C   C28  0.270118  0.500000  0.489823  -0.150584
    C   C29  0.885514  0.500000  0.504635  0.336232
    C   C30  0.114486  0.500000  0.495365  0.336232
    C   C31  0.966146  0.500000  0.501391  -0.174223
    C   C32  0.033854  0.500000  0.498608  -0.174223
    C   C33  0.438059  0.835959  0.462223  -0.554006
    C   C34  0.561941  0.164041  0.537777  -0.554002
    C   C35  0.561941  0.835959  0.537777  -0.554003
    C   C36  0.438059  0.164041  0.462222  -0.554009
    H   H17  0.388678  0.868723  0.433743  0.215303
    H   H18  0.611322  0.131277  0.566257  0.215303
    H   H19  0.611322  0.868723  0.566257  0.215302
    H   H20  0.388679  0.131277  0.433743  0.215306
    C   C37  0.439544  0.752982  0.457842  0.442834
    C   C38  0.560456  0.247018  0.542157  0.442826
    C   C39  0.560456  0.752982  0.542158  0.442824
    C   C40  0.439544  0.247018  0.457842  0.442837
    N   N1   0.500000  0.711526  0.500000  -0.216102
    N   N2   0.500000  0.288474  0.500000  -0.216096
    C   C41  0.500000  0.877669  0.500000  0.545725
    C   C42  0.500000  0.122331  0.500000  0.545717
    C   C43  0.500000  0.963826  0.500000  -0.182479
    C   C44  0.500000  0.036174  0.500000  -0.182463
    O   O9   0.377632  0.713635  0.414413  -0.302711
    C   C45  0.376002  0.729369  0.290148  0.450429
    H   H21  0.434130  0.733694  0.255556  -0.088201
    H   H22  0.345637  0.786315  0.272417  -0.072978
    C   C46  0.335041  0.662404  0.224845  -0.244634
    H   H23  0.276055  0.659714  0.256915  0.063702
    H   H24  0.335456  0.674463  0.126103  0.013317
    H   H25  0.363078  0.604252  0.242768  0.093036
    O   O10  0.622369  0.286365  0.585587  -0.302713
    C   C47  0.623998  0.270631  0.709851  0.450438
    H   H26  0.654364  0.213685  0.727583  -0.072982
    H   H27  0.565870  0.266306  0.744444  -0.088205
    C   C48  0.664959  0.337596  0.775155  -0.244646
    H   H28  0.636922  0.395748  0.757231  0.093037
    H   H29  0.664545  0.325537  0.873897  0.013323
    H   H30  0.723946  0.340286  0.743084  0.063702
    O   O11  0.622369  0.713635  0.585587  -0.302701
    C   C49  0.623998  0.729369  0.709851  0.450416
    H   H31  0.565870  0.733694  0.744444  -0.088199
    H   H32  0.654364  0.786315  0.727583  -0.072978
    C   C50  0.664959  0.662404  0.775155  -0.244627
    H   H33  0.723946  0.659714  0.743084  0.063698
    H   H34  0.664545  0.674463  0.873897  0.013318
    H   H35  0.636922  0.604252  0.757232  0.093031
    O   O12  0.377632  0.286365  0.414413  -0.302723
    C   C51  0.376002  0.270631  0.290148  0.450447
    H   H36  0.345637  0.213685  0.272416  -0.072980
    H   H37  0.434130  0.266306  0.255556  -0.088205
    C   C52  0.335041  0.337596  0.224845  -0.244647
    H   H38  0.363078  0.395748  0.242768  0.093039
    H   H39  0.335456  0.325537  0.126103  0.013320
    H   H40  0.276055  0.340286  0.256915  0.063704
