# Generated by REPEAT Assigner based on pymatgen
data_DB0-m3_o17_o27_f0_nbo.sym.118
_audit_creation_date              2022-05-24
_audit_creation_method            REPEAT_Assigner
_cell_length_a                    30.096654
_cell_length_b                    30.096670
_cell_length_c                    38.604029
_cell_angle_alpha                 90.000000
_cell_angle_beta                  90.000000
_cell_angle_gamma                 90.000000
_cell_volume                      34967.879281
_symmetry_space_group_name_H-M    P1
_symmetry_Int_Tables_number       1
loop_
    _symmetry_equiv_pos_site_id
    _symmetry_equiv_pos_as_xyz
    1  x,y,z
loop_
    _atom_site_type_symbol
    _atom_site_label
    _atom_site_fract_x
    _atom_site_fract_y
    _atom_site_fract_z
    _atom_type_partial_charge
    O   O1    0.539227  0.933872  0.001417  -0.691262
    O   O2    0.066475  0.539200  0.000218  -0.690494
    O   O3    0.460450  0.066529  0.999977  -0.690323
    O   O4    0.933773  0.460495  0.001174  -0.691147
    O   O5    0.537185  0.066361  0.999908  -0.704526
    O   O6    0.066271  0.462465  0.000158  -0.705288
    O   O7    0.462570  0.934035  0.998712  -0.705658
    O   O8    0.933990  0.537151  0.998462  -0.706669
    O   O9    0.039271  0.433816  0.501537  -0.691115
    O   O10   0.566406  0.039159  0.501580  -0.690939
    O   O11   0.960497  0.566474  0.499855  -0.690335
    O   O12   0.433719  0.960455  0.499813  -0.691071
    O   O13   0.037233  0.566302  0.499823  -0.705019
    O   O14   0.566216  0.962509  0.498803  -0.705259
    O   O15   0.962616  0.433977  0.498796  -0.705343
    O   O16   0.433921  0.037192  0.499814  -0.705348
    O   O17   0.433827  0.502374  0.030767  -0.692585
    O   O18   0.497942  0.433951  0.029072  -0.708060
    O   O19   0.566408  0.499607  0.029037  -0.706984
    O   O20   0.500745  0.566533  0.030733  -0.693839
    O   O21   0.433825  0.498267  0.970961  -0.707236
    O   O22   0.499792  0.566436  0.970850  -0.706399
    O   O23   0.566416  0.500470  0.969154  -0.692891
    O   O24   0.501958  0.433841  0.969262  -0.692574
    O   O25   0.933797  0.002303  0.530745  -0.692238
    O   O26   0.997916  0.933884  0.529063  -0.707804
    O   O27   0.066379  0.999536  0.529060  -0.707413
    O   O28   0.000717  0.066465  0.530741  -0.693601
    O   O29   0.933822  0.998225  0.470940  -0.706631
    O   O30   0.999789  0.066390  0.470858  -0.706289
    O   O31   0.066413  0.000429  0.469175  -0.692741
    O   O32   0.001957  0.933796  0.469254  -0.692905
    C   C1    0.500869  0.913274  0.000051  0.713219
    C   C2    0.087052  0.500789  0.000246  0.711339
    C   C3    0.498851  0.087124  0.999915  0.711141
    C   C4    0.913202  0.498863  0.999720  0.712954
    C   C5    0.000912  0.413217  0.500179  0.713316
    C   C6    0.586995  0.000793  0.500213  0.710849
    C   C7    0.998899  0.587067  0.499785  0.711768
    C   C8    0.413144  0.998865  0.499751  0.713367
    O   O33   0.539350  0.000111  0.051716  -0.677153
    O   O34   0.000094  0.537030  0.051684  -0.694392
    O   O35   0.462659  0.000460  0.051687  -0.693897
    O   O36   0.999707  0.460340  0.051719  -0.677979
    O   O37   0.537022  0.998406  0.948328  -0.696032
    O   O38   0.998629  0.462663  0.948325  -0.696009
    O   O39   0.460399  0.001788  0.948295  -0.681509
    O   O40   0.002048  0.539284  0.948297  -0.681157
    O   O41   0.039356  0.500185  0.551735  -0.677854
    O   O42   0.500003  0.039214  0.551759  -0.678965
    O   O43   0.962665  0.500540  0.551668  -0.694011
    O   O44   0.499624  0.962523  0.551645  -0.693805
    O   O45   0.037108  0.498212  0.448347  -0.696591
    O   O46   0.498622  0.960476  0.448247  -0.681267
    O   O47   0.960485  0.501600  0.448273  -0.680734
    O   O48   0.502038  0.037098  0.448371  -0.697129
    C   C9    0.501006  0.000311  0.067867  0.598461
    C   C10   0.999838  0.498687  0.067867  0.603126
    C   C11   0.498707  0.000030  0.932149  0.604345
    C   C12   0.000361  0.500975  0.932149  0.602723
    C   C13   0.000999  0.500438  0.567867  0.599323
    C   C14   0.499728  0.000840  0.567867  0.600331
    C   C15   0.998806  0.499789  0.432148  0.603650
    C   C16   0.500453  0.998814  0.432147  0.603932
    Zn  Zn1   0.550194  0.000278  0.999855  1.321139
    Zn  Zn2   0.000041  0.550165  0.000131  1.323210
    Zn  Zn3   0.449521  0.000088  0.000136  1.322446
    Zn  Zn4   0.000181  0.449492  0.999859  1.321596
    Zn  Zn5   0.050240  0.500218  0.499878  1.321846
    Zn  Zn6   0.500012  0.050166  0.499910  1.322958
    Zn  Zn7   0.949567  0.500034  0.500111  1.322020
    Zn  Zn8   0.500153  0.949490  0.500078  1.322586
    C   C17   0.413241  0.500306  0.000875  0.694670
    C   C18   0.499843  0.413311  0.999176  0.696475
    C   C19   0.587000  0.499979  0.999088  0.699396
    C   C20   0.500300  0.587073  0.000779  0.698935
    C   C21   0.913221  0.000250  0.500847  0.693304
    C   C22   0.999834  0.913255  0.499164  0.696353
    C   C23   0.086981  0.999923  0.499116  0.699653
    C   C24   0.000288  0.087016  0.500792  0.699250
    C   C25   0.463883  0.986165  0.123716  -0.193021
    C   C26   0.013614  0.461658  0.123823  -0.195373
    C   C27   0.538064  0.014199  0.123796  -0.196383
    C   C28   0.985598  0.535846  0.123688  -0.191799
    C   C29   0.462439  0.015904  0.876234  -0.203035
    C   C30   0.016377  0.537259  0.876262  -0.202111
    C   C31   0.535090  0.984112  0.876290  -0.197889
    C   C32   0.984565  0.464617  0.876261  -0.200539
    C   C33   0.963819  0.486586  0.623738  -0.194309
    C   C34   0.513514  0.963597  0.623723  -0.192772
    C   C35   0.038002  0.514616  0.623772  -0.194826
    C   C36   0.485492  0.037783  0.623788  -0.196108
    C   C37   0.962562  0.515381  0.376176  -0.202694
    C   C38   0.516624  0.035300  0.376375  -0.195606
    C   C39   0.035210  0.483585  0.376347  -0.196574
    C   C40   0.484815  0.962657  0.376147  -0.203978
    H   H1    0.434650  0.974836  0.110074  0.134352
    H   H2    0.025030  0.432396  0.110263  0.134138
    H   H3    0.567311  0.025610  0.110215  0.134319
    H   H4    0.974289  0.565069  0.110024  0.133783
    H   H5    0.433802  0.028750  0.889826  0.138660
    H   H6    0.029209  0.565885  0.889877  0.138189
    H   H7    0.563688  0.971253  0.889925  0.137049
    H   H8    0.971677  0.436014  0.889874  0.137653
    H   H9    0.934602  0.475181  0.610115  0.134790
    H   H10   0.524933  0.934395  0.610087  0.134122
    H   H11   0.067266  0.525947  0.610172  0.134032
    H   H12   0.474182  0.067064  0.610201  0.134730
    H   H13   0.933922  0.528304  0.389721  0.138187
    H   H14   0.529429  0.063868  0.390078  0.136538
    H   H15   0.063805  0.470799  0.390029  0.136714
    H   H16   0.471901  0.933996  0.389670  0.138621
    C   C41   0.464123  0.985352  0.159411  0.105541
    C   C42   0.014140  0.461964  0.159523  0.108311
    C   C43   0.537807  0.014710  0.159497  0.108310
    C   C44   0.984801  0.535654  0.159384  0.104824
    C   C45   0.462790  0.016604  0.840536  0.109504
    C   C46   0.017093  0.536947  0.840564  0.107836
    C   C47   0.534875  0.983514  0.840590  0.107169
    C   C48   0.983985  0.464870  0.840563  0.109695
    C   C49   0.964009  0.486005  0.659437  0.107298
    C   C50   0.514044  0.963742  0.659421  0.105620
    C   C51   0.037695  0.515358  0.659471  0.107790
    C   C52   0.484698  0.037430  0.659486  0.108144
    C   C53   0.962911  0.515863  0.340476  0.109792
    C   C54   0.517384  0.035154  0.340677  0.104836
    C   C55   0.034994  0.482768  0.340650  0.107327
    C   C56   0.484278  0.963077  0.340448  0.111426
    H   H17   0.434824  0.973973  0.172936  0.046789
    H   H18   0.025399  0.432687  0.173139  0.045976
    H   H19   0.567104  0.025958  0.173092  0.046387
    H   H20   0.973446  0.564979  0.172888  0.046775
    H   H21   0.434139  0.029431  0.826954  0.045669
    H   H22   0.029924  0.565613  0.827004  0.046479
    H   H23   0.563586  0.970744  0.827053  0.045490
    H   H24   0.971203  0.436182  0.827004  0.045068
    H   H25   0.934689  0.474719  0.672981  0.046425
    H   H26   0.525305  0.934402  0.672953  0.046795
    H   H27   0.066972  0.526696  0.673046  0.046397
    H   H28   0.473342  0.066691  0.673074  0.046420
    H   H29   0.934259  0.528606  0.326848  0.045843
    H   H30   0.530221  0.063888  0.327209  0.046487
    H   H31   0.063701  0.469911  0.327159  0.045553
    H   H32   0.471505  0.934456  0.326797  0.045175
    C   C57   0.500964  0.999944  0.177473  -0.538741
    C   C58   0.999405  0.498839  0.177472  -0.535729
    C   C59   0.498872  0.000097  0.822545  -0.533312
    C   C60   0.000573  0.500893  0.822545  -0.534642
    C   C61   0.000823  0.500717  0.677472  -0.540598
    C   C62   0.499307  0.000533  0.677472  -0.539018
    C   C63   0.998988  0.499238  0.322545  -0.535024
    C   C64   0.500875  0.999190  0.322544  -0.534269
    C   C65   0.500979  0.000250  0.105759  0.187904
    C   C66   0.999678  0.498725  0.105759  0.183256
    C   C67   0.498735  0.999992  0.894258  0.187723
    C   C68   0.000438  0.500951  0.894258  0.189926
    C   C69   0.000940  0.500558  0.605759  0.187098
    C   C70   0.499570  0.000742  0.605759  0.186528
    C   C71   0.998856  0.499574  0.394257  0.187453
    C   C72   0.500651  0.998915  0.394257  0.188116
    N   N1    0.529066  0.026167  0.232985  -0.369186
    N   N2    0.972701  0.527076  0.232799  -0.368953
    N   N3    0.472843  0.973117  0.232798  -0.369382
    N   N4    0.025749  0.470850  0.232984  -0.368451
    N   N5    0.525736  0.972322  0.767123  -0.367531
    N   N6    0.972734  0.474126  0.767116  -0.368414
    N   N7    0.472312  0.028190  0.767128  -0.367405
    N   N8    0.028606  0.527546  0.767136  -0.368370
    N   N9    0.028843  0.527318  0.732901  -0.369072
    N   N10   0.472603  0.028475  0.732895  -0.369595
    N   N11   0.972617  0.474270  0.732882  -0.369156
    N   N12   0.525655  0.972252  0.732888  -0.369117
    N   N13   0.025837  0.471122  0.267219  -0.368108
    N   N14   0.473002  0.972748  0.267031  -0.368187
    N   N15   0.972416  0.526993  0.267032  -0.367681
    N   N16   0.528872  0.026171  0.267220  -0.368197
    C   C73   0.500927  0.999366  0.284621  0.991431
    C   C74   0.999077  0.499107  0.284622  0.991562
    C   C75   0.499184  0.000419  0.715396  0.996312
    C   C76   0.000760  0.500772  0.715396  0.997189
    C   C77   0.000639  0.500857  0.784622  0.991600
    C   C78   0.498970  0.000200  0.784621  0.989998
    C   C79   0.999276  0.498917  0.215396  0.993167
    C   C80   0.500960  0.999738  0.215396  0.996115
    Zn  Zn9   0.500292  0.500038  0.039274  1.314235
    Zn  Zn10  0.499904  0.500300  0.960685  1.313027
    Zn  Zn11  0.000257  0.999969  0.539275  1.313930
    Zn  Zn12  0.999906  0.000256  0.460685  1.312878
    C   C81   0.470653  0.658050  0.980273  -0.424593
    C   C82   0.342246  0.470067  0.980923  -0.424165
    C   C83   0.529779  0.342132  0.979316  -0.425621
    C   C84   0.658165  0.529372  0.978704  -0.423710
    C   C85   0.469303  0.342470  0.019187  -0.418589
    C   C86   0.342212  0.530535  0.020803  -0.428406
    C   C87   0.530066  0.658102  0.021106  -0.426009
    C   C88   0.657840  0.469948  0.019527  -0.423401
    C   C89   0.970682  0.158013  0.480292  -0.424067
    C   C90   0.842216  0.970310  0.480622  -0.427167
    C   C91   0.029809  0.842095  0.479296  -0.426197
    C   C92   0.158136  0.029617  0.478997  -0.426312
    C   C93   0.969332  0.842393  0.519167  -0.419170
    C   C94   0.842187  0.030225  0.521006  -0.427461
    C   C95   0.030085  0.158025  0.521134  -0.423988
    C   C96   0.157817  0.969635  0.519320  -0.420891
    C   C97   0.500339  0.635444  0.000725  0.235970
    C   C98   0.364866  0.500299  0.000874  0.236054
    C   C99   0.499634  0.364938  0.999222  0.230731
    C   C100  0.635371  0.499763  0.999099  0.234202
    C   C101  0.000349  0.135387  0.500747  0.234759
    C   C102  0.864842  0.000257  0.500832  0.236891
    C   C103  0.999649  0.864881  0.499202  0.231596
    C   C104  0.135347  0.999722  0.499138  0.235144
    C   C105  0.530565  0.704122  0.021078  0.294711
    C   C106  0.296192  0.531007  0.020801  0.291354
    C   C107  0.468695  0.296454  0.019319  0.282505
    C   C108  0.703855  0.469322  0.019648  0.285665
    C   C109  0.530052  0.296111  0.979348  0.290708
    C   C110  0.296229  0.469660  0.980818  0.283453
    C   C111  0.470280  0.704069  0.980116  0.293382
    C   C112  0.704190  0.529620  0.978698  0.291742
    C   C113  0.030601  0.204046  0.521117  0.290896
    C   C114  0.796166  0.030700  0.521010  0.293725
    C   C115  0.968745  0.796377  0.519292  0.283174
    C   C116  0.203831  0.969012  0.519435  0.281979
    C   C117  0.030102  0.796074  0.479319  0.292390
    C   C118  0.796198  0.969931  0.480493  0.291517
    C   C119  0.970326  0.204031  0.480145  0.292157
    C   C120  0.204159  0.029888  0.479010  0.291324
    C   C121  0.500470  0.726984  0.000535  -0.155749
    C   C122  0.273322  0.500371  0.000760  -0.145121
    C   C123  0.499308  0.273394  0.999393  -0.144256
    C   C124  0.726911  0.499392  0.999218  -0.149345
    C   C125  0.000511  0.226927  0.500582  -0.152813
    C   C126  0.773293  0.000358  0.500700  -0.152572
    C   C127  0.999358  0.773337  0.499351  -0.145694
    C   C128  0.226883  0.999376  0.499270  -0.144423
    C   C129  0.561355  0.727663  0.040692  -0.123177
    C   C130  0.272662  0.562289  0.039938  -0.117341
    C   C131  0.437324  0.273117  0.038505  -0.116744
    C   C132  0.727197  0.438450  0.039322  -0.113827
    C   C133  0.561240  0.272428  0.960233  -0.119803
    C   C134  0.272738  0.438395  0.961641  -0.109737
    C   C135  0.439539  0.727559  0.960422  -0.121022
    C   C136  0.727878  0.560291  0.959079  -0.122954
    C   C137  0.061401  0.227567  0.540734  -0.120949
    C   C138  0.772639  0.061707  0.540421  -0.125660
    C   C139  0.937392  0.773020  0.538483  -0.116810
    C   C140  0.227176  0.937863  0.538838  -0.113809
    C   C141  0.061306  0.772411  0.460207  -0.120797
    C   C142  0.772701  0.938959  0.461030  -0.114666
    C   C143  0.939605  0.227541  0.460445  -0.119804
    C   C144  0.227841  0.060849  0.459667  -0.121595
    C   C145  0.562678  0.773311  0.038719  -0.256262
    C   C146  0.227014  0.563584  0.037942  -0.265118
    C   C147  0.435992  0.227455  0.036753  -0.261499
    C   C148  0.772856  0.437078  0.037584  -0.265882
    C   C149  0.562325  0.226777  0.962244  -0.260996
    C   C150  0.227073  0.437273  0.963409  -0.267122
    C   C151  0.438413  0.773228  0.962133  -0.259977
    C   C152  0.773536  0.561367  0.961024  -0.252505
    C   C153  0.062723  0.273217  0.538791  -0.258539
    C   C154  0.726988  0.062997  0.538471  -0.256166
    C   C155  0.936059  0.727360  0.536698  -0.259601
    C   C156  0.272834  0.936487  0.537057  -0.262754
    C   C157  0.062390  0.726757  0.462187  -0.260930
    C   C158  0.727032  0.937860  0.462750  -0.263217
    C   C159  0.938478  0.273208  0.462186  -0.260639
    C   C160  0.273495  0.061947  0.461661  -0.258339
    C   C161  0.532110  0.795953  0.018994  0.237997
    C   C162  0.204361  0.532505  0.018713  0.246713
    C   C163  0.467100  0.204610  0.017689  0.244990
    C   C164  0.795696  0.467662  0.018011  0.242437
    C   C165  0.531132  0.204278  0.981471  0.243292
    C   C166  0.204382  0.468483  0.982483  0.244495
    C   C167  0.469113  0.795923  0.981698  0.240929
    C   C168  0.796035  0.530671  0.980728  0.229852
    C   C169  0.032150  0.295880  0.519086  0.240322
    C   C170  0.704332  0.032204  0.518968  0.240020
    C   C171  0.967154  0.704535  0.517607  0.243116
    C   C172  0.295669  0.967356  0.517755  0.244745
    C   C173  0.031186  0.704237  0.481389  0.243057
    C   C174  0.704345  0.968790  0.482101  0.239180
    C   C175  0.969163  0.295882  0.481779  0.242211
    C   C176  0.295998  0.030972  0.481096  0.240254
    C   C177  0.500564  0.772903  0.000409  -0.023933
    C   C178  0.227405  0.500450  0.000655  -0.035020
    C   C179  0.499178  0.227477  0.999516  -0.032664
    C   C180  0.772830  0.499239  0.999316  -0.023321
    C   C181  0.000607  0.272846  0.500483  -0.025942
    C   C182  0.727374  0.000448  0.500592  -0.025534
    C   C183  0.999231  0.727420  0.499447  -0.031649
    C   C184  0.272800  0.999232  0.499371  -0.032162
    C   C185  0.532906  0.841764  0.018201  -0.353745
    C   C186  0.158549  0.533300  0.017887  -0.354898
    C   C187  0.466304  0.158789  0.017132  -0.358527
    C   C188  0.841513  0.466844  0.017471  -0.352725
    C   C189  0.531710  0.158464  0.982305  -0.353988
    C   C190  0.158559  0.467903  0.983049  -0.352300
    C   C191  0.468527  0.841747  0.982230  -0.352822
    C   C192  0.841852  0.531233  0.981512  -0.345357
    C   C193  0.032942  0.341693  0.518321  -0.354723
    C   C194  0.658520  0.032990  0.518185  -0.355712
    C   C195  0.966353  0.658717  0.517019  -0.357715
    C   C196  0.341487  0.966530  0.517175  -0.355736
    C   C197  0.031761  0.658421  0.482192  -0.354338
    C   C198  0.658521  0.968227  0.482633  -0.351094
    C   C199  0.968574  0.341704  0.482339  -0.353379
    C   C200  0.341813  0.031553  0.481916  -0.351283
    C   C201  0.500773  0.864756  0.000146  0.143705
    C   C202  0.135561  0.500663  0.000394  0.148094
    C   C203  0.498959  0.135633  0.999793  0.150738
    C   C204  0.864684  0.498981  0.999561  0.141118
    C   C205  0.000811  0.364700  0.500277  0.143633
    C   C206  0.635516  0.000672  0.500339  0.145786
    C   C207  0.999004  0.635576  0.499663  0.150497
    C   C208  0.364639  0.998986  0.499613  0.147380
    H   H33   0.447105  0.638682  0.965602  0.178949
    H   H34   0.361596  0.446144  0.966609  0.182661
    H   H35   0.553782  0.361339  0.964969  0.182205
    H   H36   0.638941  0.552990  0.963988  0.178768
    H   H37   0.445461  0.361939  0.033485  0.181800
    H   H38   0.361536  0.554455  0.035139  0.182926
    H   H39   0.553576  0.638769  0.035840  0.179054
    H   H40   0.638362  0.446504  0.034211  0.179817
    H   H41   0.947129  0.138660  0.465615  0.178845
    H   H42   0.861557  0.946574  0.466114  0.183218
    H   H43   0.053802  0.861317  0.464951  0.182183
    H   H44   0.138903  0.053426  0.464476  0.179090
    H   H45   0.945479  0.861847  0.533465  0.181895
    H   H46   0.861507  0.053945  0.535546  0.182458
    H   H47   0.053582  0.138677  0.535870  0.178809
    H   H48   0.138336  0.945989  0.533804  0.178971
    H   H49   0.586918  0.791423  0.053797  0.137535
    H   H50   0.208911  0.588215  0.052637  0.139843
    H   H51   0.411299  0.209510  0.051503  0.138426
    H   H52   0.790808  0.412779  0.052721  0.139363
    H   H53   0.586881  0.208553  0.947563  0.137873
    H   H54   0.209006  0.412664  0.948664  0.139008
    H   H55   0.414210  0.791297  0.946987  0.137021
    H   H56   0.791763  0.585522  0.945947  0.135788
    H   H57   0.086971  0.291311  0.553875  0.137823
    H   H58   0.708889  0.087406  0.553392  0.137352
    H   H59   0.911379  0.709396  0.551448  0.138280
    H   H60   0.290790  0.911966  0.551972  0.138316
    H   H61   0.086960  0.708552  0.447506  0.137826
    H   H62   0.708962  0.913483  0.447775  0.138678
    H   H63   0.914291  0.291294  0.447037  0.137194
    H   H64   0.291719  0.086331  0.446807  0.137049
    H   H65   0.557851  0.859631  0.032744  0.171249
    H   H66   0.140664  0.558653  0.031983  0.168860
    H   H67   0.440939  0.141039  0.031319  0.170291
    H   H68   0.859235  0.441879  0.032101  0.170992
    H   H69   0.556979  0.140458  0.968211  0.169420
    H   H70   0.140688  0.442630  0.968855  0.169526
    H   H71   0.443647  0.859596  0.967605  0.171405
    H   H72   0.859846  0.556101  0.966983  0.170258
    H   H73   0.057888  0.359548  0.532873  0.171460
    H   H74   0.640668  0.058102  0.532564  0.171746
    H   H75   0.940993  0.640955  0.531201  0.170082
    H   H76   0.359243  0.941324  0.531528  0.169564
    H   H77   0.057034  0.640426  0.468095  0.169792
    H   H78   0.640675  0.943196  0.468165  0.170741
    H   H79   0.943703  0.359565  0.467713  0.171407
    H   H80   0.359829  0.056662  0.467657  0.169023
    C   C209  0.592890  0.705575  0.063810  0.217181
    C   C210  0.577924  0.683189  0.092781  -0.107417
    C   C211  0.607790  0.662825  0.114682  0.036984
    Cl  Cl1   0.588654  0.633853  0.151051  -0.087874
    C   C212  0.652695  0.665272  0.107954  -0.088460
    C   C213  0.667742  0.688328  0.079416  -0.131629
    C   C214  0.637889  0.708679  0.057470  -0.219797
    H   H81   0.542732  0.681424  0.098227  0.094507
    H   H82   0.676106  0.649285  0.125143  0.103996
    H   H83   0.702968  0.690427  0.074237  0.129905
    H   H84   0.649792  0.726607  0.035055  0.133783
    C   C215  0.294779  0.594333  0.062607  0.218576
    C   C216  0.317092  0.580004  0.091807  -0.110816
    C   C217  0.337536  0.610333  0.113269  0.042267
    Cl  Cl2   0.366412  0.591996  0.149932  -0.087837
    C   C218  0.335255  0.655070  0.105868  -0.094921
    C   C219  0.312282  0.669492  0.077093  -0.125673
    C   C220  0.291844  0.639176  0.055585  -0.225071
    H   H85   0.318742  0.544944  0.097772  0.094179
    H   H86   0.351310  0.678842  0.122714  0.105034
    H   H87   0.310320  0.704589  0.071384  0.128813
    H   H88   0.273989  0.650581  0.032980  0.134966
    C   C221  0.405200  0.295481  0.060949  0.215112
    C   C222  0.419382  0.317748  0.090210  -0.108788
    C   C223  0.388978  0.338501  0.111427  0.040649
    Cl  Cl3   0.407132  0.367321  0.148171  -0.088760
    C   C224  0.344312  0.336591  0.103706  -0.094457
    C   C225  0.330032  0.313685  0.074855  -0.128474
    C   C226  0.360422  0.292931  0.053596  -0.221613
    H   H89   0.454388  0.319134  0.096406  0.094803
    H   H90   0.320484  0.352894  0.120359  0.106297
    H   H91   0.294990  0.312026  0.068891  0.129017
    H   H92   0.349139  0.275138  0.030925  0.135205
    C   C227  0.704865  0.406858  0.062244  0.215778
    C   C228  0.682479  0.421721  0.091245  -0.110382
    C   C229  0.661832  0.391800  0.112938  0.039564
    Cl  Cl4   0.632864  0.410807  0.149349  -0.088970
    C   C230  0.663983  0.346941  0.105963  -0.090855
    C   C231  0.687022  0.331992  0.077385  -0.129138
    C   C232  0.707661  0.361900  0.055649  -0.221363
    H   H93   0.680926  0.456877  0.096869  0.095642
    H   H94   0.647770  0.323488  0.122989  0.104884
    H   H95   0.688880  0.296802  0.072010  0.128988
    H   H96   0.725571  0.350083  0.033199  0.134892
    C   C233  0.593405  0.294387  0.937575  0.216870
    C   C234  0.579209  0.316719  0.908345  -0.109566
    C   C235  0.609651  0.337022  0.886898  0.041292
    Cl  Cl5   0.591484  0.365923  0.850196  -0.087747
    C   C236  0.654367  0.334580  0.894347  -0.094016
    C   C237  0.668653  0.311590  0.923154  -0.128774
    C   C238  0.638225  0.291293  0.944646  -0.220857
    H   H97   0.544165  0.318497  0.902345  0.094357
    H   H98   0.678227  0.350525  0.877512  0.105248
    H   H99   0.703733  0.309504  0.928901  0.129324
    H   H100  0.649524  0.273425  0.967277  0.134208
    C   C239  0.294940  0.406163  0.939194  0.213873
    C   C240  0.317247  0.420233  0.909917  -0.111062
    C   C241  0.337849  0.389729  0.888700  0.044458
    Cl  Cl6   0.366721  0.407738  0.851938  -0.089406
    C   C242  0.335748  0.345075  0.896435  -0.097874
    C   C243  0.312802  0.330909  0.925301  -0.125981
    C   C244  0.292200  0.361401  0.946561  -0.222511
    H   H101  0.318783  0.455230  0.903712  0.095241
    H   H102  0.351934  0.321167  0.879781  0.106832
    H   H103  0.310994  0.295878  0.931276  0.128453
    H   H104  0.274375  0.350207  0.969244  0.135169
    C   C245  0.407819  0.705376  0.937519  0.217375
    C   C246  0.422554  0.682847  0.908544  -0.108647
    C   C247  0.392514  0.662341  0.886870  0.039344
    Cl  Cl7   0.411355  0.633188  0.850496  -0.088703
    C   C248  0.347667  0.664777  0.893834  -0.091315
    C   C249  0.332850  0.687961  0.922383  -0.131000
    C   C250  0.362877  0.708458  0.944101  -0.219166
    H   H105  0.457701  0.681071  0.902927  0.094471
    H   H106  0.324120  0.648675  0.876824  0.104885
    H   H107  0.297670  0.690043  0.927750  0.129971
    H   H108  0.351163  0.726480  0.966529  0.133850
    C   C251  0.705935  0.591968  0.935994  0.215800
    C   C252  0.683427  0.577152  0.907034  -0.106832
    C   C253  0.663194  0.607150  0.885168  0.034565
    Cl  Cl8   0.634065  0.588207  0.848814  -0.087388
    C   C254  0.665895  0.652035  0.891921  -0.085062
    C   C255  0.689074  0.666929  0.920447  -0.135495
    C   C256  0.709292  0.636944  0.942359  -0.216629
    H   H109  0.681461  0.541976  0.901570  0.094448
    H   H110  0.650011  0.675550  0.874760  0.103391
    H   H111  0.691372  0.702137  0.925645  0.130931
    H   H112  0.727315  0.648727  0.964765  0.133040
    C   C257  0.092957  0.205451  0.563817  0.218418
    C   C258  0.078023  0.183093  0.592811  -0.109364
    C   C259  0.107909  0.162695  0.614675  0.039192
    Cl  Cl9   0.088814  0.133761  0.651076  -0.088293
    C   C260  0.152802  0.165076  0.607885  -0.090314
    C   C261  0.167819  0.188100  0.579322  -0.130009
    C   C262  0.137945  0.208486  0.557412  -0.221489
    H   H113  0.042839  0.181375  0.598301  0.094807
    H   H114  0.176230  0.149062  0.625046  0.104305
    H   H115  0.203035  0.190146  0.574093  0.129646
    H   H116  0.149821  0.226388  0.534977  0.134201
    C   C263  0.794753  0.093487  0.563317  0.221407
    C   C264  0.817114  0.078828  0.592394  -0.111155
    C   C265  0.837542  0.108918  0.614070  0.039911
    Cl  Cl10  0.866482  0.090167  0.650576  -0.087937
    C   C266  0.835193  0.153743  0.607006  -0.091229
    C   C267  0.812170  0.168489  0.578357  -0.129914
    C   C268  0.791751  0.138412  0.556635  -0.222611
    H   H117  0.818814  0.043699  0.598095  0.095063
    H   H118  0.851234  0.177328  0.624019  0.104590
    H   H119  0.810152  0.203652  0.572913  0.129649
    H   H120  0.773855  0.150073  0.534129  0.134514
    C   C269  0.905297  0.795352  0.560973  0.212723
    C   C270  0.919528  0.817667  0.590199  -0.106179
    C   C271  0.889151  0.838374  0.611467  0.039976
    Cl  Cl11  0.907366  0.867257  0.648163  -0.088565
    C   C272  0.844464  0.836365  0.603837  -0.094678
    C   C273  0.830136  0.813405  0.575027  -0.128357
    C   C274  0.860499  0.792699  0.553716  -0.221138
    H   H121  0.954550  0.819124  0.596329  0.093959
    H   H122  0.820657  0.852632  0.620529  0.106384
    H   H123  0.795078  0.811665  0.569136  0.129100
    H   H124  0.849176  0.774861  0.531078  0.134897
    C   C275  0.204842  0.906006  0.561534  0.217239
    C   C276  0.182505  0.920538  0.590660  -0.112538
    C   C277  0.161841  0.890377  0.612139  0.042561
    Cl  Cl12  0.132937  0.908970  0.648710  -0.089199
    C   C278  0.163920  0.845606  0.604823  -0.093051
    C   C279  0.186906  0.830982  0.576117  -0.130427
    C   C280  0.207566  0.861130  0.554595  -0.221011
    H   H125  0.181004  0.955626  0.596550  0.095613
    H   H126  0.147692  0.821966  0.621682  0.105542
    H   H127  0.188706  0.795858  0.570474  0.129778
    H   H128  0.225433  0.849570  0.532043  0.134585
    C   C281  0.093499  0.794399  0.437592  0.218076
    C   C282  0.079346  0.816699  0.408335  -0.110610
    C   C283  0.109815  0.837039  0.386933  0.042511
    Cl  Cl13  0.091704  0.865899  0.350195  -0.088075
    C   C284  0.154515  0.834673  0.394458  -0.095904
    C   C285  0.168758  0.811720  0.423297  -0.127413
    C   C286  0.138303  0.791383  0.444742  -0.221933
    H   H129  0.044315  0.818423  0.402280  0.094472
    H   H130  0.178396  0.850648  0.377659  0.105895
    H   H131  0.203825  0.809694  0.429104  0.129004
    H   H132  0.149566  0.773545  0.467399  0.134568
    C   C287  0.794891  0.906990  0.438347  0.209379
    C   C288  0.817290  0.921402  0.409215  -0.106246
    C   C289  0.837859  0.891137  0.387770  0.039609
    Cl  Cl14  0.866851  0.909574  0.351193  -0.088544
    C   C290  0.835627  0.846384  0.395129  -0.093511
    C   C291  0.812583  0.831883  0.423846  -0.128628
    C   C292  0.792018  0.862136  0.445334  -0.218506
    H   H133  0.818923  0.956477  0.403299  0.094381
    H   H134  0.851784  0.822663  0.378299  0.105848
    H   H135  0.810668  0.796776  0.429526  0.128904
    H   H136  0.774114  0.850676  0.467899  0.134244
    C   C293  0.907916  0.205385  0.437498  0.214570
    C   C294  0.922695  0.182829  0.408550  -0.106228
    C   C295  0.892685  0.162358  0.386831  0.037593
    Cl  Cl15  0.911583  0.133167  0.350493  -0.088365
    C   C296  0.847823  0.164861  0.393721  -0.089312
    C   C297  0.832962  0.188078  0.422239  -0.133488
    C   C298  0.862959  0.208537  0.444003  -0.216469
    H   H137  0.957855  0.181004  0.402988  0.093981
    H   H138  0.824299  0.148787  0.376675  0.104498
    H   H139  0.797771  0.190215  0.427546  0.130449
    H   H140  0.851209  0.226586  0.466407  0.133278
    C   C299  0.205889  0.092783  0.436805  0.220079
    C   C300  0.183453  0.078291  0.407711  -0.111380
    C   C301  0.163201  0.108524  0.386056  0.038064
    Cl  Cl16  0.134167  0.089985  0.349529  -0.087960
    C   C302  0.165805  0.153325  0.393154  -0.086964
    C   C303  0.188908  0.167903  0.421817  -0.132778
    C   C304  0.209149  0.137682  0.443518  -0.220350
    H   H141  0.181560  0.043180  0.401978  0.095579
    H   H142  0.149903  0.177024  0.376157  0.103200
    H   H143  0.191128  0.203048  0.427287  0.130445
    H   H144  0.227112  0.149215  0.466033  0.133910
