# Generated by REPEAT Assigner based on pymatgen
data_DB0-m3_o1490_o158_f0_fsc.sym.51
_audit_creation_date              2022-05-24
_audit_creation_method            REPEAT_Assigner
_cell_length_a                    8.531024
_cell_length_b                    10.764252
_cell_length_c                    13.414670
_cell_angle_alpha                 97.683230
_cell_angle_beta                  90.095825
_cell_angle_gamma                 90.008356
_cell_volume                      1220.809286
_symmetry_space_group_name_H-M    P1
_symmetry_Int_Tables_number       1
loop_
    _symmetry_equiv_pos_site_id
    _symmetry_equiv_pos_as_xyz
    1  x,y,z
loop_
    _atom_site_type_symbol
    _atom_site_label
    _atom_site_fract_x
    _atom_site_fract_y
    _atom_site_fract_z
    _atom_type_partial_charge
    C   C1   0.998434  0.692693  0.035808  -0.100669
    C   C2   0.138681  0.749957  0.022436  0.106135
    C   C3   0.142172  0.872008  0.003613  -0.173103
    C   C4   0.860066  0.753243  0.022673  -0.229297
    C   C5   0.861767  0.878683  0.008946  0.646200
    C   C6   0.003802  0.940469  0.002929  -0.398114
    C   C7   0.003688  0.067479  0.991857  0.549755
    C   C8   0.141947  0.136229  0.991627  -0.395327
    C   C9   0.138306  0.258326  0.973036  -0.055524
    N   N1   0.725654  0.940357  0.002461  -0.649197
    C   C10  0.722978  0.062840  0.991268  0.327180
    C   C11  0.861287  0.128492  0.985312  -0.279901
    C   C12  0.859171  0.254345  0.971766  -0.112522
    C   C13  0.997742  0.315210  0.959355  -0.101267
    H   H1   0.996710  0.595743  0.047870  0.094623
    H   H2   0.995810  0.412214  0.947452  0.128401
    H   H3   0.255478  0.908279  0.987951  0.097794
    H   H4   0.255349  0.100037  0.007293  0.209259
    H   H5   0.611215  0.108679  0.985867  0.010110
    O   O1   0.330144  0.631535  0.924014  -0.745650
    O   O2   0.335873  0.636386  0.096478  -0.590102
    C   C14  0.280174  0.673974  0.014496  0.731939
    O   O3   0.331022  0.376614  0.071617  -0.690102
    O   O4   0.335223  0.371831  0.898546  -0.733001
    C   C15  0.280097  0.334415  0.980903  0.849274
    O   O5   0.668397  0.375892  0.070929  -0.711703
    O   O6   0.663371  0.371605  0.898399  -0.747503
    C   C16  0.717365  0.331741  0.980174  0.914264
    O   O7   0.668017  0.632431  0.923914  -0.748463
    O   O8   0.664579  0.636334  0.095787  -0.572208
    C   C17  0.717719  0.676686  0.014348  0.796318
    Zn  Zn1  0.500260  0.505051  0.109028  0.907996
    Zn  Zn2  0.499331  0.503490  0.886058  1.124251
    C   C18  0.524837  0.393415  0.693009  -0.352318
    N   N2   0.498902  0.501024  0.755051  0.240399
    C   C19  0.468908  0.608698  0.717534  -0.361617
    C   C20  0.464636  0.610323  0.615092  0.237735
    C   C21  0.494324  0.502404  0.551579  -0.157061
    C   C22  0.524313  0.393000  0.589884  0.244721
    C   C23  0.422397  0.725932  0.571876  -0.125420
    C   C24  0.521234  0.734800  0.479432  0.119414
    C   C25  0.503991  0.617109  0.406751  0.028156
    C   C26  0.496014  0.504666  0.443950  0.022041
    C   C27  0.490655  0.394513  0.379763  0.125925
    C   C28  0.472033  0.274283  0.422412  0.006658
    C   C29  0.565317  0.278327  0.519566  -0.095493
    C   C30  0.505255  0.617956  0.303632  -0.120217
    N   N3   0.501153  0.508445  0.240261  0.133608
    C   C31  0.493810  0.397811  0.277145  -0.280121
    H   H6   0.447226  0.694006  0.767749  0.219483
    H   H7   0.442135  0.809852  0.628040  0.058897
    H   H8   0.645851  0.745605  0.502645  0.011617
    H   H9   0.488061  0.311378  0.225995  0.201759
    H   H10  0.512944  0.194752  0.367499  0.030635
    H   H11  0.539700  0.193275  0.555073  0.061372
    H   H12  0.297051  0.721136  0.549644  0.037522
    H   H13  0.483772  0.819238  0.446879  -0.015420
    H   H14  0.346334  0.260811  0.439005  0.012820
    H   H15  0.692109  0.280706  0.501809  0.039270
    H   H16  0.548483  0.307659  0.723936  0.189663
    C   C32  0.512161  0.739051  0.265130  0.362547
    O   O9   0.639168  0.789441  0.258968  -0.411489
    C   C33  0.368333  0.812414  0.257218  0.223524
    C   C34  0.377500  0.932074  0.230839  -0.262690
    C   C35  0.243226  0.001797  0.224152  -0.001735
    C   C36  0.099200  0.952435  0.243565  -0.169691
    C   C37  0.089368  0.833215  0.269746  -0.042153
    C   C38  0.223387  0.763244  0.276694  -0.214137
    H   H17  0.489462  0.972284  0.215260  0.146072
    H   H18  0.250998  0.095392  0.203721  0.071625
    H   H19  0.994025  0.007183  0.238264  0.124719
    H   H20  0.976348  0.794453  0.284944  0.099771
    H   H21  0.212807  0.669960  0.297278  0.099765
