# Generated by REPEAT Assigner based on pymatgen
data_DB0-m3_o17_o540_f0_fsc.sym.5_sqe
_audit_creation_date              2022-05-24
_audit_creation_method            REPEAT_Assigner
_cell_length_a                    13.262949
_cell_length_b                    8.556879
_cell_length_c                    23.150472
_cell_angle_alpha                 90.000000
_cell_angle_beta                  93.886763
_cell_angle_gamma                 90.000000
_cell_volume                      2621.291459
_symmetry_space_group_name_H-M    P1
_symmetry_Int_Tables_number       1
loop_
    _symmetry_equiv_pos_site_id
    _symmetry_equiv_pos_as_xyz
    1  x,y,z
loop_
    _atom_site_type_symbol
    _atom_site_label
    _atom_site_fract_x
    _atom_site_fract_y
    _atom_site_fract_z
    _atom_type_partial_charge
    C   C1   0.080450  0.097987  0.795160  0.468458
    C   C2   0.914556  0.909612  0.204792  0.466196
    C   C3   0.051359  0.081878  0.214188  0.450749
    C   C4   0.952144  0.910719  0.786141  0.451797
    O   O1   0.149256  0.186931  0.770614  -0.498538
    O   O2   0.842540  0.827536  0.229444  -0.499343
    O   O3   0.118154  0.163810  0.248300  -0.502318
    O   O4   0.888396  0.822671  0.752339  -0.501004
    N   N1   0.019467  0.003753  0.761818  -0.193445
    N   N2   0.980015  0.996284  0.238224  -0.191576
    C   C5   0.032872  0.859320  0.671745  -0.299188
    C   C6   0.968976  0.140592  0.328300  -0.293244
    C   C7   0.967480  0.860668  0.329818  -0.261492
    C   C8   0.031100  0.139212  0.669910  -0.264741
    C   C9   0.046774  0.857367  0.613272  0.016471
    C   C10  0.954089  0.142792  0.386663  0.010879
    C   C11  0.953974  0.863303  0.388362  0.031698
    C   C12  0.046134  0.136760  0.611537  0.033946
    C   C13  0.028428  0.000633  0.700704  0.335436
    C   C14  0.971591  0.999331  0.299283  0.333983
    C   C15  0.008480  0.003233  0.880429  0.137440
    C   C16  0.990647  0.996363  0.119709  0.138766
    C   C17  0.075236  0.099446  0.854619  -0.150157
    C   C18  0.918915  0.908962  0.145284  -0.147112
    C   C19  0.057559  0.082679  0.154755  -0.130078
    C   C20  0.946524  0.908537  0.845610  -0.130497
    C   C21  0.136864  0.196893  0.888280  -0.027494
    C   C22  0.850361  0.823523  0.111286  -0.019268
    C   C23  0.131150  0.168347  0.130362  -0.026748
    C   C24  0.879668  0.810687  0.870337  -0.035410
    C   C25  0.057506  0.995909  0.583999  -0.177918
    C   C26  0.943109  0.004271  0.415932  -0.173308
    H   H1   0.018888  0.249642  0.691005  0.151704
    H   H2   0.977694  0.750231  0.308303  0.149471
    H   H3   0.975921  0.249728  0.305423  0.164418
    H   H4   0.027926  0.749755  0.694563  0.167593
    H   H5   0.188418  0.276155  0.869026  0.119974
    H   H6   0.792084  0.756169  0.130214  0.116940
    H   H7   0.186006  0.234482  0.156934  0.120098
    H   H8   0.831380  0.733064  0.844108  0.121939
    C   C27  0.067101  0.089263  0.034938  0.068740
    C   C28  0.934536  0.905489  0.965324  0.031253
    C   C29  0.068822  0.095860  0.974603  0.038419
    C   C30  0.927697  0.907893  0.025409  0.072717
    C   C31  0.995207  0.997746  0.059827  -0.001596
    C   C32  0.003885  0.001580  0.940310  0.021643
    C   C33  0.136488  0.171115  0.071356  -0.211800
    C   C34  0.873923  0.808203  0.929314  -0.177040
    C   C35  0.133503  0.196137  0.947401  -0.180513
    C   C36  0.854124  0.823276  0.052189  -0.211651
    H   H9   0.198409  0.236862  0.056323  0.150049
    H   H10  0.822000  0.724397  0.944786  0.129214
    H   H11  0.181814  0.279783  0.969985  0.128096
    H   H12  0.795564  0.757333  0.029138  0.148058
    H   H13  0.064361  0.993969  0.537814  0.106201
    H   H14  0.936389  0.006268  0.462128  0.105850
    O   O5   0.109162  0.665033  0.550419  -0.689413
    O   O6   0.891374  0.335046  0.449514  -0.688323
    O   O7   0.891742  0.672175  0.452221  -0.684599
    O   O8   0.108721  0.327888  0.547674  -0.687279
    O   O9   0.941365  0.659298  0.570781  -0.600690
    O   O10  0.059164  0.340944  0.429113  -0.604525
    O   O11  0.059672  0.665901  0.431568  -0.674190
    O   O12  0.940806  0.334324  0.568367  -0.670691
    C   C37  0.033558  0.714012  0.579351  0.732512
    C   C38  0.967049  0.286132  0.420580  0.734802
    C   C39  0.967734  0.722355  0.423724  0.771954
    C   C40  0.032656  0.277723  0.576164  0.771818
    Zn  Zn1  0.890599  0.500026  0.511653  1.045606
    Zn  Zn2  0.109902  0.500124  0.488264  1.054333
    C   C41  0.293121  0.365201  0.471529  0.538046
    C   C42  0.707372  0.634935  0.528382  0.542589
    C   C43  0.708305  0.362474  0.519015  0.553691
    C   C44  0.292197  0.637663  0.480900  0.550503
    N   N3   0.239599  0.500818  0.475345  -0.444448
    N   N4   0.760901  0.499329  0.524572  -0.444948
    C   C45  0.395334  0.636969  0.494679  -0.173497
    C   C46  0.605165  0.363156  0.505233  -0.179661
    C   C47  0.602965  0.635690  0.518911  -0.217637
    C   C48  0.397529  0.364435  0.481001  -0.209580
    C   C49  0.448363  0.500119  0.494525  0.147967
    C   C50  0.552134  0.500003  0.505387  0.156466
    C   C51  0.445915  0.774144  0.508814  -0.114872
    C   C52  0.554579  0.225977  0.491100  -0.111322
    C   C53  0.548787  0.773166  0.521970  0.030863
    C   C54  0.451705  0.226954  0.477946  0.026008
    H   H15  0.405470  0.882685  0.512119  0.104551
    H   H16  0.595022  0.117433  0.487798  0.105010
    H   H17  0.585252  0.881886  0.534211  0.051872
    H   H18  0.415235  0.118232  0.465711  0.054030
    N   N5   0.245742  0.222516  0.452764  -0.823365
    H   H19  0.217158  0.233686  0.409860  0.348805
    H   H20  0.191954  0.185385  0.480305  0.355212
    N   N6   0.754746  0.777628  0.547136  -0.819916
    H   H21  0.783346  0.766461  0.590037  0.345548
    H   H22  0.808524  0.814742  0.519586  0.353464
    N   N7   0.753065  0.216336  0.536239  -0.776795
    H   H23  0.778106  0.221701  0.579898  0.314295
    H   H24  0.809446  0.180269  0.510370  0.351912
    N   N8   0.247435  0.783803  0.463680  -0.775378
    H   H25  0.222379  0.778438  0.420024  0.314510
    H   H26  0.191058  0.819852  0.489555  0.352048
