# Generated by REPEAT Assigner based on pymatgen
data_DB0-m9_o17_o25_f0_sra.sym.1_sqe
_audit_creation_date              2022-05-24
_audit_creation_method            REPEAT_Assigner
_cell_length_a                    23.025281
_cell_length_b                    6.829078
_cell_length_c                    19.947118
_cell_angle_alpha                 90.000000
_cell_angle_beta                  93.990874
_cell_angle_gamma                 90.000000
_cell_volume                      3128.907845
_symmetry_space_group_name_H-M    P1
_symmetry_Int_Tables_number       1
loop_
    _symmetry_equiv_pos_site_id
    _symmetry_equiv_pos_as_xyz
    1  x,y,z
loop_
    _atom_site_type_symbol
    _atom_site_label
    _atom_site_fract_x
    _atom_site_fract_y
    _atom_site_fract_z
    _atom_type_partial_charge
    O  O1   0.185015  0.369239  0.191290  -0.492325
    O  O2   0.814985  0.630761  0.808710  -0.492129
    O  O3   0.314985  0.869239  0.308710  -0.492035
    O  O4   0.685015  0.130761  0.691290  -0.492286
    O  O5   0.307422  0.711270  0.182486  -0.549401
    O  O6   0.692578  0.288730  0.817514  -0.549396
    O  O7   0.192578  0.211270  0.317514  -0.549371
    O  O8   0.807422  0.788730  0.682486  -0.549387
    C  C1   0.329183  0.536618  0.172056  0.673873
    C  C2   0.670817  0.463382  0.827944  0.673836
    C  C3   0.170817  0.036618  0.327944  0.673989
    C  C4   0.829183  0.963382  0.672056  0.673844
    O  O9   0.188113  0.711291  0.178283  -0.518782
    O  O10  0.811887  0.288709  0.821717  -0.518515
    O  O11  0.311886  0.211291  0.321717  -0.518595
    O  O12  0.688113  0.788709  0.678283  -0.518762
    O  O13  0.188980  0.869088  0.304579  -0.546590
    O  O14  0.811020  0.130912  0.695422  -0.546626
    O  O15  0.311020  0.369088  0.195421  -0.546643
    O  O16  0.688980  0.630912  0.804579  -0.546583
    C  C5   0.165674  0.536834  0.166671  0.558846
    C  C6   0.834326  0.463166  0.833329  0.558237
    C  C7   0.334326  0.036834  0.333329  0.558236
    C  C8   0.665674  0.963166  0.666671  0.558699
    O  O17  0.251623  0.543661  0.290444  -0.514260
    O  O18  0.748377  0.456340  0.709556  -0.514288
    O  O19  0.248377  0.043661  0.209556  -0.514149
    O  O20  0.751623  0.956340  0.790444  -0.514327
    V  V1   0.249736  0.817609  0.241935  1.430024
    V  V2   0.750264  0.182390  0.758065  1.430237
    V  V3   0.250264  0.317609  0.258065  1.430166
    V  V4   0.749736  0.682390  0.741935  1.430255
    C  C9   0.586265  0.146685  0.608049  -0.284096
    C  C10  0.413735  0.853315  0.391951  -0.283925
    C  C11  0.913735  0.646685  0.891951  -0.284075
    C  C12  0.086265  0.353315  0.108049  -0.284000
    C  C13  0.616525  0.973699  0.617119  0.076325
    C  C14  0.383475  0.026301  0.382881  0.076462
    C  C15  0.883475  0.473699  0.882881  0.076573
    C  C16  0.116525  0.526301  0.117119  0.076187
    C  C17  0.600335  0.811072  0.579476  -0.327030
    C  C18  0.399665  0.188928  0.420524  -0.327010
    C  C19  0.899665  0.311072  0.920524  -0.327032
    C  C20  0.100335  0.688928  0.079476  -0.326975
    C  C21  0.553948  0.821994  0.532210  0.257092
    C  C22  0.446052  0.178006  0.467790  0.257444
    C  C23  0.946052  0.321994  0.967790  0.257461
    C  C24  0.053948  0.678006  0.032210  0.257055
    C  C25  0.523327  0.994692  0.523440  -0.052429
    C  C26  0.476673  0.005308  0.476561  -0.052547
    C  C27  0.976673  0.494692  0.976561  -0.052586
    C  C28  0.023327  0.505308  0.023440  -0.052397
    C  C29  0.539337  0.156810  0.561541  0.205842
    C  C30  0.460662  0.843190  0.438459  0.205797
    C  C31  0.960662  0.656810  0.938459  0.205878
    C  C32  0.039337  0.343190  0.061541  0.205823
    C  C33  0.538291  0.660425  0.493665  -0.269173
    C  C34  0.461709  0.339575  0.506335  -0.269775
    C  C35  0.961709  0.160425  0.006335  -0.269775
    C  C36  0.038291  0.839575  0.993665  -0.269144
    C  C37  0.491575  0.671037  0.446741  -0.193407
    C  C38  0.508425  0.328963  0.553259  -0.193045
    C  C39  0.008425  0.171037  0.053259  -0.193053
    C  C40  0.991575  0.828963  0.946741  -0.193469
    H  H1   0.599002  0.273740  0.637866  0.129170
    H  H2   0.400998  0.726260  0.362134  0.129074
    H  H3   0.900998  0.773740  0.862134  0.129170
    H  H4   0.099002  0.226260  0.137866  0.129115
    H  H5   0.624308  0.675721  0.586577  0.167852
    H  H6   0.375692  0.324279  0.413423  0.167787
    H  H7   0.875692  0.175721  0.913423  0.167750
    H  H8   0.124308  0.824279  0.086577  0.167850
    H  H9   0.562703  0.525740  0.500136  0.167987
    H  H10  0.437297  0.474260  0.499864  0.168218
    H  H11  0.937297  0.025740  0.999864  0.168223
    H  H12  0.062703  0.974260  0.000136  0.167983
    H  H13  0.479264  0.544702  0.416324  0.144212
    H  H14  0.520736  0.455298  0.583677  0.144202
    H  H15  0.020736  0.044702  0.083677  0.144206
    H  H16  0.979264  0.955298  0.916324  0.144235
    C  C41  0.046559  0.082003  0.530604  -0.166342
    C  C42  0.953441  0.917997  0.469396  -0.166331
    C  C43  0.453441  0.582003  0.969396  -0.166337
    C  C44  0.546559  0.417997  0.030604  -0.166362
    C  C45  0.017886  0.894433  0.552942  -0.158185
    C  C46  0.982114  0.105567  0.447058  -0.158220
    C  C47  0.482114  0.394433  0.947058  -0.158238
    C  C48  0.517886  0.605567  0.052942  -0.158213
    H  H17  0.031768  0.806446  0.597966  0.059500
    H  H18  0.968232  0.193554  0.402034  0.059512
    H  H19  0.468232  0.306446  0.902034  0.059513
    H  H20  0.531768  0.693554  0.097966  0.059505
    H  H21  0.086267  0.150368  0.555064  0.069475
    H  H22  0.913733  0.849632  0.444936  0.069474
    H  H23  0.413733  0.650368  0.944936  0.069475
    H  H24  0.586267  0.349632  0.055064  0.069477
    H  H25  0.024476  0.672400  0.463734  0.065196
    H  H26  0.975524  0.327600  0.536266  0.065196
    H  H27  0.475524  0.172400  0.036266  0.065197
    H  H28  0.524476  0.827600  0.963734  0.065202
    C  C49  0.874599  0.973607  0.626025  -0.050096
    C  C50  0.125401  0.026393  0.373975  -0.050219
    C  C51  0.625401  0.473607  0.873975  -0.050039
    C  C52  0.374599  0.526393  0.126025  -0.050026
    C  C53  0.987176  0.178968  0.519266  -0.162031
    C  C54  0.012824  0.821032  0.480734  -0.162038
    C  C55  0.512824  0.678968  0.980734  -0.162062
    C  C56  0.487176  0.321032  0.019266  -0.162039
    C  C57  0.959283  0.991563  0.540820  0.730426
    C  C58  0.040717  0.008437  0.459180  0.730396
    C  C59  0.540717  0.491563  0.959180  0.730510
    C  C60  0.459283  0.508437  0.040820  0.730491
    C  C61  0.912785  0.981833  0.587527  -0.451886
    C  C62  0.087215  0.018167  0.412473  -0.451800
    C  C63  0.587215  0.481833  0.912473  -0.451949
    C  C64  0.412785  0.518167  0.087527  -0.451957
