# Generated by REPEAT Assigner based on pymatgen
data_DB0-m3_o13_o23_f0_pcu.sym.123
_audit_creation_date              2022-05-24
_audit_creation_method            REPEAT_Assigner
_cell_length_a                    11.897025
_cell_length_b                    13.151398
_cell_length_c                    15.965353
_cell_angle_alpha                 89.989803
_cell_angle_beta                  85.826219
_cell_angle_gamma                 91.186562
_cell_volume                      2490.816465
_symmetry_space_group_name_H-M    P1
_symmetry_Int_Tables_number       1
loop_
    _symmetry_equiv_pos_site_id
    _symmetry_equiv_pos_as_xyz
    1  x,y,z
loop_
    _atom_site_type_symbol
    _atom_site_label
    _atom_site_fract_x
    _atom_site_fract_y
    _atom_site_fract_z
    _atom_type_partial_charge
    O   O1   0.414763  0.662720  0.508117  -0.630682
    O   O2   0.608137  0.653886  0.497323  -0.702968
    C   C1   0.515012  0.706597  0.502814  0.779024
    O   O3   0.403137  0.509446  0.632063  -0.715647
    O   O4   0.597140  0.500456  0.621174  -0.717219
    C   C2   0.500204  0.504390  0.665578  0.942479
    Zn  Zn1  0.371173  0.513067  0.509126  1.029531
    Zn  Zn2  0.626881  0.500967  0.494588  1.069261
    O   O5   0.389641  0.360394  0.506137  -0.635941
    O   O6   0.583690  0.350991  0.495599  -0.659654
    O   O7   0.400855  0.513603  0.382536  -0.699399
    O   O8   0.594953  0.504293  0.371645  -0.709520
    C   C3   0.482591  0.308136  0.500322  0.693297
    C   C4   0.497843  0.509396  0.338175  0.916421
    C   C5   0.410441  0.577839  0.959786  0.352651
    C   C6   0.616690  0.534273  0.948819  -0.054718
    C   C7   0.618718  0.524213  0.043226  -0.191586
    H   H1   0.468816  0.666354  0.063763  0.038503
    H   H2   0.679186  0.482121  0.918240  0.024539
    H   H3   0.641441  0.612787  0.929233  0.008398
    H   H4   0.655846  0.594486  0.069127  0.037024
    H   H5   0.670791  0.458620  0.058370  0.034065
    C   C8   0.497851  0.509036  0.248296  -0.267187
    C   C9   0.499554  0.505585  0.922777  0.468397
    C   C10  0.426620  0.592163  0.052414  -0.258210
    C   C11  0.499323  0.507394  0.081110  0.635173
    C   C12  0.454317  0.405461  0.051850  -0.182357
    C   C13  0.469607  0.400051  0.956755  -0.057420
    C   C14  0.498436  0.508297  0.172792  -0.277575
    C   C15  0.499916  0.504835  0.831036  -0.303908
    C   C16  0.500257  0.504355  0.755505  -0.256903
    H   H6   0.390503  0.371387  0.931544  0.015698
    H   H7   0.538342  0.347215  0.937875  0.020775
    H   H8   0.363538  0.397133  0.072519  0.022980
    H   H9   0.327236  0.540560  0.953555  -0.013419
    H   H10  0.343322  0.589187  0.088468  0.027340
    H   H11  0.500773  0.342860  0.079344  0.041699
    C   C17  0.471229  0.196886  0.497716  -0.002635
    C   C18  0.524045  0.819160  0.502702  -0.174690
    C   C19  0.641291  0.969474  0.507586  -0.306578
    C   C20  0.629143  0.865087  0.507223  -0.097494
    C   C21  0.429955  0.880389  0.497908  0.335800
    C   C22  0.443509  0.986136  0.495791  -0.101667
    C   C23  0.549108  0.030168  0.501928  0.284961
    C   C24  0.563083  0.135040  0.502645  -0.221480
    C   C25  0.366352  0.152952  0.489739  -0.138309
    C   C26  0.352626  0.049042  0.488023  -0.117342
    H   H12  0.646071  0.168159  0.508283  0.114376
    H   H13  0.293086  0.198951  0.484109  0.110953
    H   H14  0.724134  0.003481  0.512063  0.151120
    H   H15  0.268742  0.019674  0.480623  0.077340
    H   H16  0.703426  0.820046  0.511521  0.128034
    N   N1   0.203018  0.521297  0.519298  0.026051
    N   N2   0.795046  0.492932  0.484479  0.012019
    C   C27  0.961039  0.431107  0.412985  -0.248329
    C   C28  0.845304  0.438481  0.421360  -0.042666
    C   C29  0.856767  0.540592  0.540686  -0.137417
    C   C30  0.972723  0.534173  0.534138  0.151111
    C   C31  0.025285  0.479469  0.469904  0.239573
    C   C32  0.141296  0.473503  0.463142  -0.176612
    C   C33  0.152627  0.574622  0.583028  -0.088492
    C   C34  0.036892  0.581905  0.591409  -0.165734
    H   H17  0.182894  0.430434  0.412702  0.168025
    H   H18  0.203028  0.612287  0.627853  0.182833
    H   H19  0.000569  0.387392  0.362053  0.155236
    H   H20  0.997270  0.625011  0.642669  0.130312
    H   H21  0.794800  0.400102  0.376959  0.147568
    H   H22  0.815201  0.583826  0.591039  0.165006
    N   N3   0.321584  0.835163  0.492995  -0.612846
    C   C35  0.248268  0.843673  0.566716  0.495421
    C   C36  0.133637  0.851802  0.559518  -0.234613
    C   C37  0.060916  0.861532  0.630187  -0.120395
    C   C38  0.102046  0.862515  0.708602  -0.132440
    C   C39  0.215914  0.853123  0.716352  -0.177582
    C   C40  0.289049  0.843228  0.645902  -0.234551
    H   H23  0.284053  0.852968  0.438953  0.297450
    H   H24  0.100039  0.851231  0.498397  0.096814
    H   H25  0.971500  0.868367  0.624031  0.104533
    H   H26  0.045010  0.870165  0.764011  0.091146
    H   H27  0.248150  0.853404  0.777885  0.163000
    H   H28  0.377521  0.834361  0.654536  0.113729
    N   N4   0.415778  0.674481  0.916202  -0.713753
    C   C41  0.327328  0.740564  0.941979  0.500768
    C   C42  0.352479  0.835660  0.973543  -0.288091
    C   C43  0.267226  0.901295  0.997630  -0.098802
    C   C44  0.156462  0.872982  0.989407  -0.180728
    C   C45  0.130945  0.779245  0.956402  -0.029938
    C   C46  0.215965  0.713341  0.932319  -0.306828
    H   H29  0.493157  0.710493  0.916696  0.300945
    H   H30  0.438912  0.859194  0.980476  0.125423
    H   H31  0.287368  0.975161  0.022909  0.118049
    H   H32  0.089725  0.924608  0.008124  0.109262
    H   H33  0.044141  0.757618  0.948754  0.091712
    H   H34  0.194313  0.641426  0.904358  0.138495
