# Generated by REPEAT Assigner based on pymatgen
data_DB0-m18_o15_o142_f0_fsc
_audit_creation_date              2022-05-24
_audit_creation_method            REPEAT_Assigner
_cell_length_a                    8.709304
_cell_length_b                    9.434109
_cell_length_c                    10.958628
_cell_angle_alpha                 90.000000
_cell_angle_beta                  89.993502
_cell_angle_gamma                 90.000000
_cell_volume                      900.410368
_symmetry_space_group_name_H-M    P1
_symmetry_Int_Tables_number       1
loop_
    _symmetry_equiv_pos_site_id
    _symmetry_equiv_pos_as_xyz
    1  x,y,z
loop_
    _atom_site_type_symbol
    _atom_site_label
    _atom_site_fract_x
    _atom_site_fract_y
    _atom_site_fract_z
    _atom_type_partial_charge
    O   O1   0.176436  0.876987  0.878970  -0.592463
    O   O2   0.175676  0.117910  0.872946  -0.598091
    C   C1   0.227102  0.995812  0.831769  0.719804
    Fe  Fe1  0.000148  0.153643  0.994837  1.083248
    Fe  Fe2  0.000749  0.846280  0.000490  1.087190
    O   O3   0.831782  0.118745  0.866081  -0.646222
    O   O4   0.829081  0.875897  0.874122  -0.650107
    C   C2   0.778679  0.995811  0.828758  0.725819
    O   O5   0.169842  0.882002  0.135674  -0.669712
    O   O6   0.169346  0.124375  0.129982  -0.663970
    C   C3   0.217759  0.004982  0.177729  0.738939
    O   O7   0.819498  0.122579  0.117992  -0.621518
    O   O8   0.823543  0.881477  0.126601  -0.624486
    C   C4   0.768095  0.003416  0.163970  0.708668
    H   H1   0.935130  0.366101  0.406220  0.104269
    H   H2   0.937010  0.625825  0.408292  0.091245
    C   C5   0.020988  0.358522  0.779505  -0.142430
    C   C6   0.019874  0.646130  0.781727  -0.099001
    C   C7   0.045040  0.431394  0.673443  -0.107409
    C   C8   0.044348  0.575392  0.674610  -0.125196
    C   C9   0.010205  0.575403  0.893288  0.112642
    C   C10  0.010233  0.427088  0.891741  0.150049
    N   N1   0.000080  0.648512  0.000478  -0.188201
    N   N2   0.999012  0.351382  0.997031  -0.188890
    C   C11  0.988726  0.572829  0.105806  0.182030
    C   C12  0.987871  0.424476  0.104233  0.155773
    C   C13  0.978259  0.641344  0.218065  -0.196649
    C   C14  0.976193  0.353890  0.215788  -0.175917
    C   C15  0.952704  0.568742  0.323991  -0.073264
    C   C16  0.951625  0.424807  0.322799  -0.099297
    H   H3   0.010640  0.247568  0.767888  0.129076
    H   H4   0.008404  0.757029  0.770497  0.105395
    H   H5   0.060592  0.374491  0.589008  0.120497
    H   H6   0.059398  0.634261  0.591131  0.125189
    H   H7   0.989789  0.752062  0.229878  0.143702
    H   H8   0.985423  0.242974  0.227240  0.132132
    C   C17  0.491547  0.020736  0.186561  -0.221125
    C   C18  0.630945  0.006174  0.241631  0.084928
    C   C19  0.638132  0.994038  0.366867  -0.411435
    C   C20  0.357932  0.008795  0.250980  0.068371
    C   C21  0.362490  0.002350  0.377594  -0.310479
    C   C22  0.503615  0.999690  0.437011  0.474799
    C   C23  0.505442  0.999571  0.564867  -0.304254
    C   C24  0.642176  0.004455  0.630939  -0.133503
    C   C25  0.639289  0.992964  0.755779  0.000493
    C   C26  0.228120  0.001673  0.444965  0.317714
    N   N3   0.232460  0.999490  0.567798  -0.640284
    C   C27  0.366576  0.998128  0.628744  0.623575
    C   C28  0.366372  0.992315  0.755697  -0.241695
    C   C29  0.502920  0.979947  0.815809  -0.129198
    H   H9   0.117949  0.003856  0.399704  0.046223
    H   H10  0.485819  0.037172  0.090319  0.163067
    H   H11  0.503448  0.964018  0.912211  0.164464
    H   H12  0.750747  0.981075  0.405179  0.194720
    H   H13  0.753370  0.016490  0.589895  0.100776
