# Generated by REPEAT Assigner based on pymatgen
data_DB0-m3_o96_o156_f0_fsc.sym.14_sqe
_audit_creation_date              2022-05-24
_audit_creation_method            REPEAT_Assigner
_cell_length_a                    13.401866
_cell_length_b                    16.175480
_cell_length_c                    17.378753
_cell_angle_alpha                 94.604600
_cell_angle_beta                  90.621073
_cell_angle_gamma                 90.046674
_cell_volume                      3755.008627
_symmetry_space_group_name_H-M    P1
_symmetry_Int_Tables_number       1
loop_
    _symmetry_equiv_pos_site_id
    _symmetry_equiv_pos_as_xyz
    1  x,y,z
loop_
    _atom_site_type_symbol
    _atom_site_label
    _atom_site_fract_x
    _atom_site_fract_y
    _atom_site_fract_z
    _atom_type_partial_charge
    C   C1   0.179391  0.781551  0.973784  0.241576
    C   C2   0.820610  0.218449  0.026216  0.241227
    C   C3   0.239604  0.836525  0.940828  -0.338593
    C   C4   0.760397  0.163475  0.059172  -0.337767
    C   C5   0.189385  0.911000  0.942827  0.526592
    C   C6   0.810616  0.089000  0.057173  0.525929
    N   N1   0.097126  0.901697  0.971741  -0.516346
    N   N2   0.902874  0.098304  0.028259  -0.516196
    C   C7   0.089896  0.821704  0.989384  0.102072
    C   C8   0.910105  0.178296  0.010616  0.102258
    C   C9   0.230791  0.982967  0.926555  -0.506166
    C   C10  0.769209  0.017033  0.073445  -0.505630
    C   C11  0.190133  0.065827  0.947868  0.203740
    C   C12  0.809867  0.934173  0.052133  0.203209
    C   C13  0.247235  0.136658  0.961554  -0.003098
    C   C14  0.752765  0.863342  0.038446  -0.002734
    C   C15  0.184378  0.201266  0.979498  0.239892
    C   C16  0.815622  0.798735  0.020503  0.239599
    C   C17  0.088177  0.167732  0.975973  -0.123553
    C   C18  0.911823  0.832268  0.024027  -0.123508
    N   N3   0.093111  0.085268  0.955645  -0.155491
    N   N4   0.906889  0.914732  0.044355  -0.155234
    C   C19  0.994009  0.213727  0.986902  0.175057
    C   C20  0.005991  0.786274  0.013098  0.175041
    H   H1   0.306173  0.982551  0.906309  0.216378
    H   H2   0.693827  0.017449  0.093692  0.216278
    H   H3   0.033929  0.044881  0.941952  0.263927
    H   H4   0.966071  0.955119  0.058048  0.263997
    C   C21  0.651390  0.852726  0.042257  -0.176744
    C   C22  0.348611  0.147274  0.957743  -0.176728
    C   C23  0.613744  0.773492  0.028961  -0.123016
    C   C24  0.386256  0.226509  0.971040  -0.122987
    C   C25  0.675351  0.706276  0.009296  -0.017931
    C   C26  0.324649  0.293725  0.990704  -0.017811
    C   C27  0.778470  0.718452  0.004463  -0.303812
    C   C28  0.221530  0.281548  0.995537  -0.304089
    C   C29  0.214204  0.704600  0.990766  -0.394442
    C   C30  0.785796  0.295400  0.009234  -0.394170
    C   C31  0.309917  0.683755  0.968207  0.099929
    C   C32  0.690083  0.316246  0.031794  0.099216
    C   C33  0.366486  0.736625  0.927409  -0.329839
    C   C34  0.633514  0.263375  0.072591  -0.328959
    C   C35  0.333299  0.814445  0.914891  0.409620
    C   C36  0.666702  0.185555  0.085110  0.408571
    H   H5   0.601475  0.903754  0.057021  0.132140
    H   H6   0.398525  0.096247  0.942979  0.132161
    H   H7   0.827255  0.666306  0.991105  0.149267
    H   H8   0.172745  0.333694  0.008895  0.149331
    H   H9   0.171317  0.662095  0.021937  0.164623
    H   H10  0.828683  0.337905  0.978063  0.164563
    H   H11  0.440515  0.718761  0.908505  0.173822
    H   H12  0.559485  0.281239  0.091495  0.173646
    H   H13  0.534584  0.763571  0.034820  0.128710
    H   H14  0.465416  0.236429  0.965180  0.128605
    O   O1   0.609116  0.584292  0.935827  -0.698704
    O   O2   0.390884  0.415708  0.064173  -0.698714
    O   O3   0.583763  0.602883  0.066762  -0.667042
    O   O4   0.416238  0.397117  0.933238  -0.667202
    C   C37  0.626863  0.623986  0.003873  0.806596
    C   C38  0.373137  0.376015  0.996128  0.806750
    O   O5   0.378610  0.592880  0.056173  -0.682093
    O   O6   0.621390  0.407121  0.943828  -0.682412
    O   O7   0.401987  0.569094  0.925033  -0.654358
    O   O8   0.598013  0.430906  0.074967  -0.654496
    C   C39  0.357320  0.606617  0.984227  0.738089
    C   C40  0.642680  0.393383  0.015773  0.738757
    Zn  Zn1  0.485089  0.512638  0.085098  1.048192
    Zn  Zn2  0.514912  0.487362  0.914902  1.048438
    C   C41  0.394411  0.512751  0.225289  -0.204541
    C   C42  0.605589  0.487249  0.774711  -0.204655
    N   N5   0.478651  0.526028  0.186214  -0.028466
    N   N6   0.521349  0.473972  0.813786  -0.028490
    C   C43  0.566815  0.536477  0.224734  0.214124
    C   C44  0.433185  0.463523  0.775266  0.214207
    C   C45  0.312862  0.491766  0.344797  -0.345128
    C   C46  0.687138  0.508235  0.655203  -0.345158
    C   C47  0.397992  0.508262  0.304639  0.205264
    C   C48  0.602009  0.491739  0.695361  0.205368
    C   C49  0.487834  0.517578  0.343663  -0.050921
    C   C50  0.512166  0.482422  0.656338  -0.050985
    C   C51  0.572428  0.532977  0.303570  0.086844
    C   C52  0.427572  0.467023  0.696431  0.086818
    C   C53  0.663393  0.541757  0.341793  -0.279935
    C   C54  0.336607  0.458243  0.658207  -0.279945
    C   C55  0.233770  0.466561  0.463579  -0.215196
    C   C56  0.766231  0.533439  0.536421  -0.215382
    C   C57  0.318516  0.483697  0.423353  0.229907
    C   C58  0.681484  0.516303  0.576647  0.229983
    C   C59  0.409152  0.492038  0.461747  -0.030954
    C   C60  0.590848  0.507963  0.538253  -0.030929
    C   C61  0.239786  0.457952  0.541780  -0.213409
    C   C62  0.760214  0.542048  0.458221  -0.213212
    C   C63  0.330605  0.466077  0.579915  0.193198
    C   C64  0.669395  0.533924  0.420085  0.193083
    C   C65  0.493800  0.509308  0.421919  0.026335
    C   C66  0.506200  0.490693  0.578081  0.026221
    C   C67  0.584644  0.517157  0.460122  0.006860
    C   C68  0.415356  0.482843  0.539878  0.006877
    H   H15  0.324674  0.502207  0.194232  0.186145
    H   H16  0.675326  0.497793  0.805768  0.186197
    H   H17  0.242053  0.484194  0.314672  0.162021
    H   H18  0.757947  0.515807  0.685329  0.162021
    H   H19  0.730629  0.554000  0.310883  0.153736
    H   H20  0.269372  0.446000  0.689117  0.153749
    H   H21  0.162415  0.459870  0.434131  0.144098
    H   H22  0.837585  0.540130  0.565869  0.144193
    H   H23  0.172968  0.444813  0.572912  0.143536
    H   H24  0.827032  0.555188  0.427088  0.143518
    F   F1   0.652767  0.545089  0.185970  -0.121816
    F   F2   0.347233  0.454911  0.814030  -0.121865
    F   F3   0.995856  0.296190  0.978187  -0.153463
    F   F4   0.004144  0.703810  0.021813  -0.153484
    F   F5   0.392722  0.864694  0.876658  -0.237285
    F   F6   0.607278  0.135306  0.123343  -0.237017
