# Generated by REPEAT Assigner based on pymatgen
data_DB0-m2_o1_o26_f0_pcu.sym.39_sqe
_audit_creation_date              2022-05-24
_audit_creation_method            REPEAT_Assigner
_cell_length_a                    9.574347
_cell_length_b                    10.783649
_cell_length_c                    17.151507
_cell_angle_alpha                 90.009743
_cell_angle_beta                  86.120655
_cell_angle_gamma                 90.019891
_cell_volume                      1766.773753
_symmetry_space_group_name_H-M    P1
_symmetry_Int_Tables_number       1
loop_
    _symmetry_equiv_pos_site_id
    _symmetry_equiv_pos_as_xyz
    1  x,y,z
loop_
    _atom_site_type_symbol
    _atom_site_label
    _atom_site_fract_x
    _atom_site_fract_y
    _atom_site_fract_z
    _atom_type_partial_charge
    O   O1   0.395255  0.681346  0.497206  -0.594284
    O   O2   0.636041  0.326152  0.467856  -0.452010
    O   O3   0.629340  0.676381  0.521871  -0.437266
    O   O4   0.396152  0.321365  0.493874  -0.596872
    C   C1   0.513188  0.736876  0.509980  0.669366
    C   C2   0.517342  0.265244  0.480319  0.667724
    O   O5   0.382584  0.496842  0.608696  -0.457929
    O   O6   0.645421  0.546378  0.384952  -0.629860
    O   O7   0.619850  0.456692  0.604689  -0.608849
    O   O8   0.409684  0.505699  0.381543  -0.444282
    C   C3   0.497140  0.465113  0.642839  0.611407
    C   C4   0.531308  0.537398  0.347028  0.627873
    Cu  Cu1  0.374509  0.501002  0.495152  0.842610
    Cu  Cu2  0.654054  0.501999  0.494633  0.800475
    C   C5   0.491069  0.448714  0.728328  -0.106709
    C   C6   0.543191  0.554293  0.261587  -0.123431
    C   C7   0.612380  0.438726  0.767127  -0.047466
    C   C8   0.424797  0.566211  0.221369  0.038194
    C   C9   0.607891  0.445826  0.847604  -0.236955
    C   C10  0.431950  0.561096  0.140876  -0.196638
    C   C11  0.480986  0.457845  0.890358  0.266497
    C   C12  0.559533  0.545932  0.099536  0.207047
    C   C13  0.359425  0.448582  0.851918  -0.259584
    C   C14  0.679698  0.550542  0.139318  -0.271916
    C   C15  0.364785  0.444278  0.771469  0.060685
    C   C16  0.671647  0.555890  0.219925  0.011940
    C   C17  0.470316  0.475585  0.975723  -0.266385
    C   C18  0.571804  0.528996  0.014126  -0.151020
    H   H1   0.711874  0.426294  0.735080  0.106936
    H   H2   0.326316  0.581502  0.253122  -0.011183
    H   H3   0.766748  0.558808  0.249487  0.078326
    H   H4   0.270221  0.435677  0.742528  -0.004673
    H   H5   0.668327  0.557596  0.982914  0.113795
    H   H6   0.373759  0.447082  0.006949  0.161784
    H   H7   0.259334  0.448193  0.884854  0.111317
    H   H8   0.780711  0.544942  0.107432  0.122675
    H   H9   0.336822  0.570509  0.111276  0.096931
    H   H10  0.704552  0.440418  0.876228  0.116192
    C   C19  0.641361  0.936796  0.498320  0.034083
    C   C20  0.394023  0.064674  0.491379  -0.105924
    H   H11  0.739503  0.888020  0.498281  0.000052
    H   H12  0.295678  0.112814  0.488898  0.120559
    C   C21  0.642683  0.064129  0.488832  0.008117
    C   C22  0.392722  0.937890  0.501657  -0.084497
    H   H13  0.741219  0.112539  0.486059  0.010426
    H   H14  0.293652  0.890225  0.506297  0.114708
    C   C23  0.518824  0.128918  0.484590  -0.117332
    C   C24  0.516246  0.872920  0.505694  -0.134809
    C   C25  0.934646  0.573230  0.545246  -0.002805
    C   C26  0.094227  0.438275  0.439838  0.239872
    C   C27  0.080371  0.563422  0.549921  0.230488
    C   C28  0.947121  0.427910  0.444648  0.001603
    N   N1   0.163764  0.500953  0.495098  -0.299929
    N   N2   0.864789  0.501288  0.494338  -0.026535
    C   C29  0.858704  0.653559  0.604470  0.030464
    O   O9   0.782568  0.603748  0.654200  -0.188757
    C   C30  0.888367  0.786175  0.617750  0.179583
    C   C31  0.819983  0.843588  0.682108  -0.165765
    C   C32  0.850392  0.964029  0.701298  -0.100326
    C   C33  0.950438  0.028840  0.657163  -0.091256
    C   C34  0.017116  0.973739  0.592574  -0.190557
    C   C35  0.984218  0.853965  0.571298  0.080365
    H   H15  0.742154  0.795387  0.719256  0.108748
    H   H16  0.797140  0.006681  0.752015  0.102713
    H   H17  0.976961  0.122540  0.673265  0.102852
    H   H18  0.096647  0.025395  0.559542  0.116003
    H   H19  0.036735  0.813640  0.519646  0.045745
    C   C36  0.168759  0.379884  0.370817  0.218863
    O   O10  0.249303  0.294477  0.379439  -0.325920
    C   C37  0.134482  0.411911  0.290702  0.033940
    C   C38  0.170816  0.331312  0.229730  0.022611
    C   C39  0.138300  0.359670  0.154699  -0.124440
    C   C40  0.072565  0.469792  0.139595  -0.131619
    C   C41  0.039362  0.551755  0.199614  -0.032469
    C   C42  0.067113  0.522099  0.275288  -0.009495
    H   H20  0.223000  0.244512  0.240105  0.059437
    H   H21  0.165114  0.295597  0.107595  0.090745
    H   H22  0.048582  0.492404  0.080543  0.112200
    H   H23  0.990399  0.639326  0.187409  0.075401
    H   H24  0.040298  0.588227  0.321319  0.072129
    C   C43  0.137086  0.621679  0.619001  0.253758
    O   O11  0.218947  0.707646  0.610840  -0.328963
    C   C44  0.083582  0.588559  0.698821  0.006558
    C   C45  0.104567  0.668900  0.759841  0.046626
    C   C46  0.058464  0.638232  0.835201  -0.154894
    C   C47  0.993371  0.526201  0.850363  -0.076293
    C   C48  0.973732  0.445036  0.790069  -0.077258
    C   C49  0.016140  0.476773  0.714242  -0.026050
    H   H25  0.156375  0.756947  0.749539  0.053426
    H   H26  0.075181  0.701473  0.882616  0.101882
    H   H27  0.959943  0.501060  0.909694  0.101632
    H   H28  0.925061  0.356060  0.802197  0.085219
    H   H29  0.001595  0.410820  0.668190  0.080667
    C   C50  0.885698  0.347057  0.385235  0.051158
    O   O12  0.815635  0.394899  0.337486  -0.198505
    C   C51  0.923398  0.215684  0.370310  0.153908
    C   C52  0.876287  0.158453  0.304400  -0.129148
    C   C53  0.914069  0.038347  0.285760  -0.129299
    C   C54  0.001667  0.974874  0.331719  -0.069498
    C   C55  0.048341  0.030368  0.397226  -0.195568
    C   C56  0.006164  0.149048  0.418188  0.093071
    H   H30  0.810373  0.206354  0.265502  0.092810
    H   H31  0.877208  0.994859  0.234175  0.110556
    H   H32  0.033888  0.881510  0.316506  0.094242
    H   H33  0.120049  0.980270  0.431156  0.121143
    H   H34  0.040941  0.189874  0.470935  0.045091
