# Generated by REPEAT Assigner based on pymatgen
data_DB0-m2_o23_o26_f0_pcu.sym.33_sqe
_audit_creation_date              2022-05-24
_audit_creation_method            REPEAT_Assigner
_cell_length_a                    14.477688
_cell_length_b                    15.897894
_cell_length_c                    17.394941
_cell_angle_alpha                 90.006888
_cell_angle_beta                  86.230345
_cell_angle_gamma                 89.926751
_cell_volume                      3995.036393
_symmetry_space_group_name_H-M    P1
_symmetry_Int_Tables_number       1
loop_
    _symmetry_equiv_pos_site_id
    _symmetry_equiv_pos_as_xyz
    1  x,y,z
loop_
    _atom_site_type_symbol
    _atom_site_label
    _atom_site_fract_x
    _atom_site_fract_y
    _atom_site_fract_z
    _atom_type_partial_charge
    O   O1   0.418655  0.625693  0.498891  -0.627364
    O   O2   0.577421  0.625599  0.503057  -0.571143
    C   C1   0.498071  0.664805  0.500579  0.859987
    O   O3   0.411871  0.507694  0.614946  -0.562543
    O   O4   0.570672  0.507110  0.613285  -0.487642
    C   C2   0.488958  0.505648  0.650307  0.510684
    Cu  Cu1  0.405474  0.503505  0.503214  0.951909
    Cu  Cu2  0.590446  0.503327  0.501198  0.890971
    O   O5   0.418592  0.381218  0.501702  -0.550571
    O   O6   0.577144  0.381161  0.505040  -0.562594
    O   O7   0.425212  0.504468  0.391085  -0.534325
    O   O8   0.584061  0.504871  0.389399  -0.597478
    C   C3   0.497914  0.341973  0.503553  0.701115
    C   C4   0.506940  0.500722  0.354150  0.661859
    C   C5   0.483580  0.506746  0.734794  0.067233
    C   C6   0.562885  0.498356  0.774187  -0.116955
    C   C7   0.557929  0.497721  0.853630  -0.170485
    C   C8   0.473288  0.506629  0.894927  0.240297
    C   C9   0.394183  0.514423  0.855259  -0.213237
    C   C10  0.399064  0.514596  0.775858  -0.147508
    C   C11  0.451523  0.466730  0.148285  -0.236568
    C   C12  0.446252  0.460441  0.227783  0.051685
    C   C13  0.585304  0.541180  0.230596  -0.040164
    C   C14  0.590552  0.546245  0.151410  -0.229143
    C   C15  0.523087  0.510463  0.109644  0.304232
    C   C16  0.463065  0.503812  0.979824  -0.175927
    C   C17  0.533556  0.515676  0.024864  -0.260053
    C   C18  0.512702  0.499713  0.269566  -0.097675
    H   H1   0.629662  0.490556  0.743519  0.123258
    H   H2   0.637746  0.571953  0.261918  0.143049
    H   H3   0.601001  0.533408  0.999786  0.155365
    H   H4   0.327421  0.520427  0.886432  0.143254
    H   H5   0.401902  0.432675  0.116788  0.179675
    H   H6   0.335816  0.520892  0.746661  0.165957
    H   H7   0.393728  0.494909  0.005504  0.122374
    H   H8   0.621228  0.487840  0.881766  0.118385
    H   H9   0.647666  0.579516  0.122160  0.144783
    C   C19  0.415139  0.956211  0.458677  -0.237775
    C   C20  0.590775  0.955315  0.447787  0.033346
    C   C21  0.599015  0.051695  0.455334  0.536165
    H   H10  0.580720  0.940373  0.387049  0.005974
    C   C22  0.498686  0.251774  0.501017  0.075906
    C   C23  0.502929  0.923050  0.493799  0.465499
    C   C24  0.421655  0.051747  0.449797  -0.201307
    C   C25  0.504388  0.084078  0.492199  0.789101
    C   C26  0.488237  0.051400  0.574443  -0.093615
    C   C27  0.499068  0.956593  0.575902  -0.166579
    C   C28  0.500843  0.176072  0.497333  -0.648085
    C   C29  0.499969  0.830788  0.496792  -0.291966
    C   C30  0.498480  0.755014  0.498841  -0.148015
    H   H11  0.438774  0.929112  0.609573  0.053232
    H   H12  0.561150  0.939085  0.605879  0.065939
    H   H13  0.416889  0.067407  0.596751  0.046033
    H   H14  0.357010  0.944062  0.501932  0.136416
    H   H15  0.358472  0.077894  0.480453  0.097307
    H   H16  0.534651  0.082096  0.613958  0.042978
    C   C31  0.944135  0.412945  0.487364  -0.098140
    C   C32  0.942022  0.536441  0.582647  0.165123
    C   C33  0.043821  0.512322  0.587499  0.082169
    H   H17  0.936242  0.605454  0.582785  0.028530
    H   H18  0.049500  0.452585  0.618545  0.012760
    N   N1   0.267418  0.502066  0.503186  -0.045755
    C   C34  0.909228  0.502396  0.505392  0.318595
    C   C35  0.050151  0.413214  0.477059  -0.103173
    C   C36  0.086136  0.498591  0.505566  0.303211
    C   C37  0.053466  0.569944  0.453814  0.162598
    C   C38  0.952111  0.555866  0.439254  -0.024154
    C   C39  0.187459  0.500638  0.504022  -0.121523
    C   C40  0.808338  0.504156  0.503003  -0.189732
    N   N2   0.728566  0.504789  0.501355  -0.011709
    H   H19  0.947417  0.520465  0.384894  0.040112
    H   H20  0.919005  0.395055  0.430791  0.118142
    H   H21  0.068388  0.408261  0.414674  0.099116
    H   H22  0.060382  0.630378  0.483755  -0.014947
    N   N3   0.420554  0.081351  0.370257  0.599553
    O   O9   0.361221  0.139321  0.354614  -0.316961
    O   O10  0.467111  0.043913  0.313553  -0.342476
    N   N4   0.390697  0.914252  0.387946  0.582293
    O   O11  0.307698  0.924650  0.365116  -0.322664
    O   O12  0.447010  0.863166  0.349754  -0.311927
    N   N5   0.676324  0.912793  0.466652  0.488981
    O   O13  0.749397  0.919393  0.419451  -0.316790
    O   O14  0.680484  0.865163  0.527130  -0.318383
    N   N6   0.620821  0.087131  0.378237  0.244717
    O   O15  0.606618  0.166398  0.364641  -0.270630
    O   O16  0.678288  0.047016  0.330627  -0.268187
    N   N7   0.675291  0.075509  0.502410  0.176981
    O   O17  0.688080  0.040791  0.568575  -0.270506
    O   O18  0.737337  0.127844  0.473789  -0.161516
    N   N8   0.375632  0.408862  0.264571  0.521606
    O   O19  0.297199  0.400371  0.233037  -0.363828
    O   O20  0.396604  0.355851  0.317675  -0.290961
    N   N9   0.089902  0.338544  0.511613  0.592142
    O   O21  0.073909  0.265378  0.481830  -0.314604
    O   O22  0.149213  0.343558  0.564454  -0.329354
    N   N10  0.905709  0.350070  0.541742  0.529194
    O   O23  0.846957  0.295844  0.517720  -0.324680
    O   O24  0.934286  0.341622  0.610588  -0.322081
    N   N11  0.885017  0.507787  0.650158  0.454385
    O   O25  0.800766  0.535918  0.660850  -0.300940
    O   O26  0.924641  0.478454  0.709576  -0.292525
    N   N12  0.094578  0.574437  0.629885  0.460586
    O   O27  0.090714  0.654380  0.614560  -0.316885
    O   O28  0.137806  0.549776  0.689091  -0.293049
    N   N13  0.902665  0.634837  0.429598  0.534485
    O   O29  0.861808  0.647137  0.366192  -0.307622
    O   O30  0.905469  0.695902  0.479134  -0.321933
    N   N14  0.110706  0.576938  0.381882  0.452581
    O   O31  0.108299  0.520638  0.327812  -0.307568
    O   O32  0.158631  0.645134  0.368755  -0.287906
