# Generated by REPEAT Assigner based on pymatgen
data_DB0-m3_o20_o22_f0_nbo.sym.21
_audit_creation_date              2022-05-24
_audit_creation_method            REPEAT_Assigner
_cell_length_a                    33.378952
_cell_length_b                    29.062035
_cell_length_c                    21.267164
_cell_angle_alpha                 90.000000
_cell_angle_beta                  119.875771
_cell_angle_gamma                 90.000000
_cell_volume                      17888.800422
_symmetry_space_group_name_H-M    P1
_symmetry_Int_Tables_number       1
loop_
    _symmetry_equiv_pos_site_id
    _symmetry_equiv_pos_as_xyz
    1  x,y,z
loop_
    _atom_site_type_symbol
    _atom_site_label
    _atom_site_fract_x
    _atom_site_fract_y
    _atom_site_fract_z
    _atom_type_partial_charge
    O   O1    0.932594  0.959402  0.940892  -0.685418
    O   O2    0.067406  0.040598  0.059108  -0.685320
    O   O3    0.069978  0.961328  0.065459  -0.697984
    O   O4    0.930021  0.038672  0.934541  -0.697959
    O   O5    0.429842  0.461044  0.937366  -0.695784
    O   O6    0.570158  0.538956  0.062634  -0.695800
    O   O7    0.567241  0.459635  0.061854  -0.685116
    O   O8    0.432759  0.540365  0.938147  -0.685108
    C   C1    0.909595  0.998301  0.917808  0.845923
    C   C2    0.090405  0.001699  0.082192  0.845977
    C   C3    0.409597  0.501420  0.917765  0.847711
    C   C4    0.590403  0.498580  0.082236  0.847733
    O   O9    0.008707  0.960501  0.914719  -0.561384
    O   O10   0.991293  0.039499  0.085281  -0.561422
    O   O11   0.996318  0.960266  0.091416  -0.571661
    O   O12   0.003682  0.039734  0.908584  -0.571658
    O   O13   0.503639  0.462576  0.908957  -0.597272
    O   O14   0.496361  0.537424  0.091043  -0.597315
    O   O15   0.491277  0.458196  0.085590  -0.541612
    O   O16   0.508723  0.541804  0.914410  -0.541371
    C   C5    0.007628  0.999784  0.883879  0.221187
    C   C6    0.992372  0.000216  0.116122  0.221361
    C   C7    0.507513  0.502408  0.883814  0.219918
    C   C8    0.492488  0.497592  0.116186  0.221145
    Zn  Zn1   0.001572  0.947945  0.002201  1.304208
    Zn  Zn2   0.998429  0.052055  0.997800  1.304130
    Zn  Zn3   0.498512  0.447972  0.997695  1.304863
    Zn  Zn4   0.501488  0.552028  0.002306  1.304806
    C   C9    0.967878  0.968615  0.760565  0.297071
    C   C10   0.032122  0.031385  0.239436  0.296880
    C   C11   0.000478  0.952448  0.216379  0.245989
    C   C12   0.999522  0.047552  0.783622  0.246053
    C   C13   0.499778  0.454080  0.784299  0.272280
    C   C14   0.500222  0.545920  0.215701  0.272349
    C   C15   0.532529  0.467248  0.240000  0.308860
    C   C16   0.467471  0.532752  0.760001  0.308374
    H   H1    0.934568  0.985416  0.746263  -0.036299
    H   H2    0.065432  0.014584  0.253737  -0.036213
    H   H3    0.032524  0.937711  0.221072  0.017201
    H   H4    0.967476  0.062289  0.778929  0.017182
    H   H5    0.467836  0.439186  0.779789  0.011639
    H   H6    0.532164  0.560814  0.220212  0.011673
    H   H7    0.565695  0.484272  0.254022  -0.039703
    H   H8    0.434306  0.515728  0.745978  -0.039763
    C   C17   0.971621  0.963468  0.693351  -0.321973
    C   C18   0.028379  0.036532  0.306649  -0.321458
    C   C19   0.006470  0.954248  0.291250  -0.287258
    C   C20   0.993530  0.045752  0.708750  -0.287590
    C   C21   0.493822  0.455474  0.709432  -0.311482
    C   C22   0.506178  0.544526  0.290569  -0.311247
    C   C23   0.528851  0.462416  0.307327  -0.327140
    C   C24   0.471149  0.537584  0.692673  -0.327052
    H   H9    0.936899  0.969205  0.645715  0.080870
    H   H10   0.063101  0.030795  0.354286  0.080727
    H   H11   0.042969  0.946708  0.331866  0.037963
    H   H12   0.957031  0.053292  0.668135  0.038071
    H   H13   0.457409  0.447523  0.668916  0.042690
    H   H14   0.542591  0.552477  0.331084  0.042597
    H   H15   0.563528  0.468549  0.354868  0.081215
    H   H16   0.436473  0.531451  0.645133  0.081202
    H   H17   0.983397  0.928184  0.690801  0.075039
    H   H18   0.016603  0.071816  0.309199  0.074803
    H   H19   0.983786  0.928251  0.295951  0.093319
    H   H20   0.016214  0.071749  0.704049  0.093467
    H   H21   0.516774  0.429579  0.705213  0.097137
    H   H22   0.483226  0.570421  0.294788  0.097001
    H   H23   0.517390  0.427092  0.310457  0.075004
    H   H24   0.482610  0.572908  0.689543  0.075088
    H   H25   0.066173  0.953087  0.744450  0.156335
    H   H26   0.933827  0.046913  0.255550  0.156283
    H   H27   0.920842  0.986192  0.236320  0.125021
    H   H28   0.079158  0.013808  0.763681  0.125077
    H   H29   0.579167  0.488247  0.763729  0.123788
    H   H30   0.420833  0.511753  0.236271  0.123691
    H   H31   0.434516  0.451214  0.256488  0.156504
    H   H32   0.565484  0.548786  0.743512  0.156735
    C   C25   0.053338  0.980315  0.826182  0.718595
    C   C26   0.946662  0.019685  0.173819  0.718511
    C   C27   0.553022  0.521778  0.825751  0.721497
    C   C28   0.446978  0.478222  0.174249  0.721685
    C   C29   0.007502  0.998851  0.814417  0.403055
    C   C30   0.992498  0.001149  0.185583  0.402782
    C   C31   0.507349  0.502973  0.814313  0.400057
    C   C32   0.492651  0.497027  0.185688  0.397890
    C   C33   0.006326  0.998209  0.696099  0.697790
    C   C34   0.993674  0.001791  0.303901  0.697831
    C   C35   0.506163  0.503025  0.695971  0.700310
    C   C36   0.493837  0.496975  0.304030  0.700918
    C   C37   0.054526  0.985948  0.756640  -0.639059
    C   C38   0.945474  0.014052  0.243360  -0.638876
    C   C39   0.554234  0.515876  0.756274  -0.638425
    C   C40   0.445766  0.484124  0.243726  -0.637781
    C   C41   0.859885  0.996733  0.869678  -0.153620
    C   C42   0.140115  0.003267  0.130322  -0.153865
    C   C43   0.359897  0.502866  0.869547  -0.158386
    C   C44   0.640103  0.497134  0.130453  -0.158315
    C   C45   0.818386  0.996069  0.828433  0.038506
    C   C46   0.181614  0.003931  0.171568  0.038686
    C   C47   0.318402  0.503471  0.828276  0.042696
    C   C48   0.681598  0.496529  0.171724  0.042623
    C   C49   0.769687  0.995825  0.779203  -0.024067
    C   C50   0.230313  0.004175  0.220798  -0.024180
    C   C51   0.269703  0.503653  0.779049  -0.026593
    C   C52   0.730297  0.496347  0.220951  -0.026544
    C   C53   0.728316  0.995932  0.736944  0.051332
    C   C54   0.271684  0.004068  0.263056  0.051411
    C   C55   0.228331  0.503496  0.736810  0.053091
    C   C56   0.771669  0.496504  0.263190  0.053060
    C   C57   0.679720  0.996342  0.686992  -0.044615
    C   C58   0.320280  0.003658  0.313009  -0.044665
    C   C59   0.179731  0.503054  0.686892  -0.045955
    C   C60   0.820269  0.496946  0.313109  -0.045968
    C   C61   0.638400  0.996883  0.644411  -0.062511
    C   C62   0.361600  0.003117  0.355589  -0.062475
    C   C63   0.138411  0.502514  0.644335  -0.060936
    C   C64   0.861589  0.497486  0.355665  -0.060900
    O   O17   0.958687  0.933061  0.466603  -0.689762
    O   O18   0.041313  0.066939  0.533398  -0.689721
    O   O19   0.038537  0.929811  0.528277  -0.675052
    O   O20   0.961463  0.070189  0.471723  -0.675115
    O   O21   0.461676  0.429688  0.472705  -0.674780
    O   O22   0.538324  0.570312  0.527296  -0.674817
    O   O23   0.541515  0.433216  0.534451  -0.689347
    O   O24   0.458485  0.566784  0.465549  -0.689357
    C   C65   0.997770  0.910110  0.496273  0.818475
    C   C66   0.002231  0.089890  0.503728  0.818490
    C   C67   0.502511  0.410131  0.505046  0.819294
    C   C68   0.497489  0.589869  0.494955  0.819362
    O   O25   0.964563  0.001545  0.567415  -0.659753
    O   O26   0.035437  0.998455  0.432586  -0.659672
    O   O27   0.464466  0.498959  0.567310  -0.658846
    O   O28   0.535534  0.501041  0.432690  -0.658840
    O   O29   0.044225  0.996109  0.626230  -0.574447
    O   O30   0.955775  0.003891  0.373771  -0.574390
    O   O31   0.544108  0.504668  0.626150  -0.574465
    O   O32   0.455892  0.495332  0.373850  -0.574593
    C   C69   0.005052  0.998307  0.626075  0.359610
    C   C70   0.994948  0.001693  0.373926  0.359283
    C   C71   0.504920  0.502538  0.625963  0.361416
    C   C72   0.495080  0.497462  0.374037  0.361079
    Zn  Zn5   0.947680  0.001871  0.461919  1.291040
    Zn  Zn6   0.052320  0.998129  0.538081  1.291001
    Zn  Zn7   0.447686  0.497968  0.461867  1.289894
    Zn  Zn8   0.552314  0.502032  0.538134  1.289854
    O   O33   0.507937  0.069042  0.452297  -0.641594
    O   O34   0.492063  0.930958  0.547704  -0.641363
    O   O35   0.495757  0.068098  0.550091  -0.657390
    O   O36   0.504243  0.931902  0.449909  -0.657392
    O   O37   0.004604  0.568267  0.450650  -0.656861
    O   O38   0.995396  0.431733  0.549350  -0.656841
    O   O39   0.992461  0.568885  0.548482  -0.641194
    O   O40   0.007539  0.431115  0.451519  -0.641407
    C   C73   0.502429  0.089938  0.502105  0.694427
    C   C74   0.497571  0.910062  0.497895  0.694101
    C   C75   0.998095  0.589944  0.498918  0.693756
    C   C76   0.001905  0.410056  0.501082  0.694041
    O   O41   0.574727  0.999618  0.523663  -0.663910
    O   O42   0.425273  0.000382  0.476338  -0.663768
    O   O43   0.074717  0.500105  0.523601  -0.662981
    O   O44   0.925283  0.499895  0.476399  -0.662968
    O   O45   0.560378  0.996869  0.619089  -0.639613
    O   O46   0.439622  0.003131  0.380912  -0.639766
    O   O47   0.060418  0.502547  0.619090  -0.638551
    O   O48   0.939582  0.497453  0.380910  -0.638588
    C   C77   0.589023  0.997740  0.593511  0.718651
    C   C78   0.410977  0.002260  0.406489  0.718617
    C   C79   0.089037  0.501718  0.593469  0.716132
    C   C80   0.910963  0.498282  0.406531  0.716117
    Zn  Zn9   0.509585  0.000356  0.437542  1.303284
    Zn  Zn10  0.490415  0.999644  0.562459  1.303263
    Zn  Zn11  0.009559  0.499846  0.437515  1.302324
    Zn  Zn12  0.990441  0.500154  0.562486  1.302299
    C   C81   0.996000  0.860784  0.494437  -0.150995
    C   C82   0.004000  0.139216  0.505564  -0.150987
    C   C83   0.504444  0.360806  0.507267  -0.152237
    C   C84   0.495556  0.639194  0.492734  -0.152280
    C   C85   0.995267  0.819334  0.493812  0.035126
    C   C86   0.004733  0.180666  0.506189  0.035122
    C   C87   0.505304  0.319353  0.508064  0.035562
    C   C88   0.494696  0.680647  0.491936  0.035613
    C   C89   0.995121  0.770760  0.493975  -0.026218
    C   C90   0.004879  0.229240  0.506026  -0.026217
    C   C91   0.505575  0.270770  0.507963  -0.025364
    C   C92   0.494425  0.729230  0.492037  -0.025456
    C   C93   0.505311  0.229310  0.507197  0.072208
    C   C94   0.494689  0.770690  0.492804  0.072345
    C   C95   0.995452  0.729306  0.494703  0.073994
    C   C96   0.004548  0.270694  0.505297  0.074013
    C   C97   0.504555  0.180734  0.505708  -0.075634
    C   C98   0.495445  0.819266  0.494292  -0.075813
    C   C99   0.996218  0.680737  0.496022  -0.078045
    C   C100  0.003782  0.319262  0.503979  -0.077927
    C   C101  0.503659  0.139286  0.504139  -0.016918
    C   C102  0.496341  0.860714  0.495862  -0.016703
    C   C103  0.997045  0.639291  0.497332  -0.015135
    C   C104  0.002955  0.360709  0.502668  -0.015376
    F   F1    0.968586  0.925275  0.787920  -0.267988
    F   F2    0.031414  0.074725  0.212080  -0.267947
    F   F3    0.963540  0.924075  0.173324  -0.287292
    F   F4    0.036460  0.075925  0.826676  -0.287290
    F   F5    0.536936  0.426076  0.827839  -0.289879
    F   F6    0.463064  0.573924  0.172161  -0.289823
    F   F7    0.532164  0.423797  0.213245  -0.271264
    F   F8    0.467837  0.576203  0.786756  -0.271317
    F   F9    0.057962  0.934212  0.844478  -0.315380
    F   F10   0.942038  0.065788  0.155522  -0.315335
    F   F11   0.910312  0.995796  0.118713  -0.274999
    F   F12   0.089688  0.004204  0.881287  -0.275052
    F   F13   0.589579  0.498296  0.881159  -0.275638
    F   F14   0.410421  0.501704  0.118842  -0.275665
    F   F15   0.442716  0.432024  0.156593  -0.317943
    F   F16   0.557284  0.567976  0.843407  -0.317902
