# Generated by REPEAT Assigner based on pymatgen
data_DB0-m3_o1500_o13_f0_fsc.sym.4_sqe
_audit_creation_date              2022-05-24
_audit_creation_method            REPEAT_Assigner
_cell_length_a                    8.469319
_cell_length_b                    11.314063
_cell_length_c                    14.963033
_cell_angle_alpha                 98.771060
_cell_angle_beta                  89.846975
_cell_angle_gamma                 83.452990
_cell_volume                      1407.491757
_symmetry_space_group_name_H-M    P1
_symmetry_Int_Tables_number       1
loop_
    _symmetry_equiv_pos_site_id
    _symmetry_equiv_pos_as_xyz
    1  x,y,z
loop_
    _atom_site_type_symbol
    _atom_site_label
    _atom_site_fract_x
    _atom_site_fract_y
    _atom_site_fract_z
    _atom_type_partial_charge
    H   H1   0.984084  0.068689  0.565976  0.117360
    H   H2   0.016272  0.931299  0.433976  0.116917
    C   C1   0.847802  0.052208  0.682004  -0.058881
    C   C2   0.152554  0.947783  0.317949  -0.060673
    C   C3   0.850372  0.042780  0.772848  -0.335375
    C   C4   0.149984  0.957215  0.227105  -0.333902
    H   H3   0.742007  0.034370  0.808488  0.127468
    H   H4   0.258348  0.965625  0.191465  0.127183
    C   C5   0.993829  0.037715  0.816850  0.385942
    C   C6   0.006527  0.962282  0.183104  0.384497
    C   C7   0.134297  0.034786  0.768890  -0.236253
    C   C8   0.866059  0.965210  0.231064  -0.234449
    H   H5   0.247000  0.021939  0.801874  0.104270
    H   H6   0.753356  0.978057  0.198080  0.103964
    C   C9   0.130226  0.050494  0.679392  -0.070238
    C   C10  0.870131  0.949498  0.320561  -0.072060
    C   C11  0.986504  0.062634  0.637247  -0.149191
    C   C12  0.013853  0.937356  0.362705  -0.147289
    C   C13  0.928848  0.108947  0.979571  0.012243
    C   C14  0.071509  0.891051  0.020383  0.011910
    C   C15  0.928916  0.085452  0.067408  -0.156978
    C   C16  0.071440  0.914545  0.932546  -0.156552
    H   H7   0.881013  0.153974  0.121992  0.086644
    H   H8   0.119343  0.846024  0.877962  0.086536
    C   C17  0.000626  0.977967  0.088240  -0.069344
    C   C18  0.999730  0.022030  0.911714  -0.069850
    O   O1   0.639534  0.127497  0.593040  -0.746565
    O   O2   0.360822  0.872494  0.406913  -0.746290
    O   O3   0.675676  0.924239  0.601178  -0.727309
    O   O4   0.324680  0.075753  0.398775  -0.726995
    C   C19  0.706848  0.035167  0.627758  0.917941
    C   C20  0.293508  0.964825  0.372195  0.917842
    O   O5   0.347526  0.926455  0.601602  -0.733537
    O   O6   0.652830  0.073537  0.398351  -0.733511
    O   O7   0.310276  0.128066  0.586965  -0.739956
    O   O8   0.690080  0.871926  0.412988  -0.740267
    C   C21  0.275039  0.035952  0.623837  0.880586
    C   C22  0.725317  0.964040  0.376117  0.881145
    Zn  Zn1  0.519780  0.868889  0.506695  1.049968
    Zn  Zn2  0.480576  0.131103  0.493258  1.049254
    N   N1   0.458479  0.285546  0.486960  0.157768
    N   N2   0.541877  0.714446  0.512994  0.157999
    C   C23  0.703682  0.531335  0.520017  -0.222098
    C   C24  0.296673  0.468657  0.479939  -0.223241
    C   C25  0.686119  0.654783  0.523144  -0.120352
    C   C26  0.314236  0.345209  0.476811  -0.119405
    C   C27  0.413141  0.654480  0.498902  -0.220335
    C   C28  0.587214  0.345512  0.501052  -0.220587
    C   C29  0.427237  0.531005  0.494747  0.214161
    C   C30  0.573119  0.468986  0.505208  0.213496
    H   H9   0.701887  0.296783  0.510236  0.179350
    H   H10  0.298469  0.703209  0.489718  0.179032
    H   H11  0.211342  0.296574  0.467424  0.169734
    H   H12  0.789013  0.703418  0.532531  0.169913
    H   H13  0.819773  0.483981  0.528091  0.156963
    H   H14  0.180582  0.516011  0.471864  0.157352
    C   C31  0.863389  0.228704  0.962325  0.133971
    C   C32  0.733033  0.288245  0.012479  -0.193675
    C   C33  0.679907  0.405687  0.004551  -0.052159
    C   C34  0.754467  0.463836  0.944941  -0.126752
    C   C35  0.884091  0.404807  0.894364  -0.086886
    C   C36  0.939834  0.288035  0.903724  -0.091065
    H   H15  0.671657  0.243602  0.058639  0.115570
    H   H16  0.581119  0.452193  0.046410  0.077649
    H   H17  0.713154  0.556217  0.938928  0.097230
    H   H18  0.944994  0.451285  0.849158  0.088058
    H   H19  0.048304  0.246947  0.868446  0.065073
    C   C37  0.136970  0.771294  0.037629  0.132750
    C   C38  0.060528  0.711962  0.096231  -0.089588
    C   C39  0.116276  0.595192  0.105593  -0.087941
    C   C40  0.245902  0.536165  0.055017  -0.126511
    C   C41  0.320459  0.594314  0.995405  -0.053186
    C   C42  0.267328  0.711755  0.987476  -0.191970
    H   H20  0.952056  0.753048  0.131508  0.064798
    H   H21  0.055374  0.548713  0.150798  0.088252
    H   H22  0.287219  0.443785  0.061030  0.097424
    H   H23  0.419249  0.547811  0.953547  0.077891
    H   H24  0.328701  0.756399  0.941316  0.115109
