# Generated by REPEAT Assigner based on pymatgen
data_DB0-m3_o7_o9_f0_nbo.sym.93_sqe
_audit_creation_date              2022-05-24
_audit_creation_method            REPEAT_Assigner
_cell_length_a                    41.250237
_cell_length_b                    35.583332
_cell_length_c                    21.820034
_cell_angle_alpha                 90.000000
_cell_angle_beta                  120.444142
_cell_angle_gamma                 90.000000
_cell_volume                      27612.008515
_symmetry_space_group_name_H-M    P1
_symmetry_Int_Tables_number       1
loop_
    _symmetry_equiv_pos_site_id
    _symmetry_equiv_pos_as_xyz
    1  x,y,z
loop_
    _atom_site_type_symbol
    _atom_site_label
    _atom_site_fract_x
    _atom_site_fract_y
    _atom_site_fract_z
    _atom_type_partial_charge
    O   O1    0.055997  0.965987  0.058218  -0.664141
    O   O2    0.944146  0.964439  0.939282  -0.654401
    O   O3    0.555997  0.465987  0.058218  -0.664079
    O   O4    0.444146  0.464439  0.939282  -0.654396
    O   O5    0.056201  0.030808  0.059451  -0.670457
    O   O6    0.944246  0.029229  0.943162  -0.691825
    O   O7    0.556201  0.530808  0.059451  -0.670395
    O   O8    0.444246  0.529229  0.943162  -0.691863
    C   C1    0.073685  0.998335  0.077537  0.632805
    C   C2    0.926609  0.996884  0.922550  0.647543
    C   C3    0.573685  0.498335  0.077537  0.632518
    C   C4    0.426609  0.496884  0.922550  0.647493
    O   O9    0.995648  0.966049  0.086741  -0.718775
    O   O10   0.002930  0.964303  0.911406  -0.706267
    O   O11   0.495648  0.466049  0.086741  -0.718739
    O   O12   0.502930  0.464303  0.911406  -0.706263
    O   O13   0.998279  0.030903  0.089626  -0.714809
    O   O14   0.003701  0.029215  0.912346  -0.731910
    O   O15   0.498279  0.530903  0.089626  -0.714835
    O   O16   0.503701  0.529215  0.912346  -0.731915
    C   C5    0.995835  0.998501  0.115497  0.661322
    C   C6    0.004417  0.996800  0.884548  0.665846
    C   C7    0.495835  0.498501  0.115497  0.661397
    C   C8    0.504417  0.496800  0.884548  0.665904
    Zn  Zn1   0.000148  0.955048  0.000233  1.321576
    Zn  Zn2   0.500148  0.455048  0.000233  1.321565
    Zn  Zn3   0.000129  0.040195  0.999855  1.337900
    Zn  Zn4   0.500129  0.540195  0.999855  1.337924
    H   H1    0.848509  0.915640  0.979520  0.100069
    H   H2    0.150150  0.911505  0.018594  0.100468
    H   H3    0.348509  0.415640  0.979520  0.100044
    H   H4    0.650150  0.411505  0.018594  0.100473
    C   C9    0.899696  0.907087  0.077805  -0.135955
    C   C10   0.098966  0.904000  0.919848  -0.130537
    C   C11   0.399696  0.407087  0.077805  -0.135992
    C   C12   0.598966  0.404000  0.919848  -0.130440
    H   H5    0.895292  0.877207  0.078847  0.118864
    H   H6    0.102941  0.874090  0.917959  0.116922
    H   H7    0.395292  0.377207  0.078847  0.118866
    H   H8    0.602941  0.374090  0.917959  0.116912
    C   C13   0.931260  0.923756  0.132668  -0.192264
    C   C14   0.067716  0.921278  0.865334  -0.197564
    C   C15   0.431260  0.423756  0.132668  -0.192403
    C   C16   0.567716  0.421278  0.865334  -0.197721
    H   H9    0.951494  0.906907  0.176776  0.115614
    H   H10   0.047295  0.904871  0.820665  0.117796
    H   H11   0.451494  0.406907  0.176776  0.115656
    H   H12   0.547295  0.404871  0.820665  0.117812
    C   C17   0.937163  0.961812  0.131005  0.277163
    C   C18   0.062364  0.959374  0.868067  0.277238
    C   C19   0.437163  0.461812  0.131005  0.277265
    C   C20   0.562364  0.459374  0.868067  0.277405
    C   C21   0.910857  0.983325  0.075265  -0.108576
    C   C22   0.088912  0.980315  0.924543  -0.111449
    C   C23   0.410857  0.483325  0.075265  -0.108591
    C   C24   0.588912  0.480315  0.924543  -0.111493
    H   H13   0.914775  0.013334  0.074699  0.090124
    H   H14   0.085446  0.010356  0.925957  0.092931
    H   H15   0.414775  0.513334  0.074699  0.090128
    H   H16   0.585446  0.510356  0.925957  0.092917
    C   C25   0.878875  0.966778  0.021358  -0.136871
    C   C26   0.120575  0.963161  0.978124  -0.136788
    C   C27   0.378875  0.466778  0.021358  -0.136903
    C   C28   0.620575  0.463161  0.978124  -0.136839
    H   H17   0.857908  0.983790  0.978613  0.123285
    H   H18   0.141741  0.979741  0.021410  0.122535
    H   H19   0.357908  0.483790  0.978613  0.123265
    H   H20   0.641741  0.479741  0.021410  0.122589
    C   C29   0.873479  0.928610  0.022154  -0.107219
    C   C30   0.125419  0.924952  0.976241  -0.108319
    C   C31   0.373479  0.428610  0.022154  -0.107103
    C   C32   0.625419  0.424952  0.976241  -0.108364
    C   C33   0.971770  0.979943  0.256151  -0.166912
    C   C34   0.028080  0.978426  0.743346  -0.157446
    C   C35   0.471770  0.479943  0.256151  -0.166955
    C   C36   0.528080  0.478426  0.743346  -0.157360
    H   H21   0.950490  0.965385  0.261964  0.110931
    H   H22   0.049108  0.963580  0.737181  0.111307
    H   H23   0.450490  0.465385  0.261964  0.110956
    H   H24   0.549108  0.463580  0.737181  0.111324
    C   C37   0.000587  0.998503  0.313455  0.156537
    C   C38   0.999601  0.997629  0.686542  0.143441
    C   C39   0.500587  0.498503  0.313455  0.156554
    C   C40   0.499601  0.497629  0.686542  0.143303
    C   C41   0.027519  0.017614  0.305029  -0.096549
    C   C42   0.972985  0.017058  0.695536  -0.091464
    C   C43   0.527519  0.517614  0.305029  -0.096534
    C   C44   0.472985  0.517058  0.695536  -0.091327
    C   C45   0.024895  0.017535  0.239459  -0.261236
    C   C46   0.975627  0.016660  0.761115  -0.264410
    C   C47   0.524895  0.517535  0.239459  -0.261156
    C   C48   0.475627  0.516660  0.761115  -0.264558
    H   H25   0.045442  0.032609  0.232160  0.149852
    H   H26   0.955360  0.031967  0.768898  0.146969
    H   H27   0.545442  0.532609  0.232160  0.149831
    H   H28   0.455360  0.531967  0.768898  0.147006
    C   C49   0.996291  0.998671  0.182731  0.183403
    C   C50   0.003911  0.997207  0.817292  0.194146
    C   C51   0.496291  0.498671  0.182731  0.183255
    C   C52   0.503911  0.497207  0.817292  0.194160
    C   C53   0.969528  0.979768  0.191020  -0.149683
    C   C54   0.030330  0.977981  0.808483  -0.161023
    C   C55   0.469528  0.479768  0.191020  -0.149652
    C   C56   0.530330  0.477981  0.808483  -0.161085
    C   C57   0.094551  0.034263  0.379457  -0.159988
    C   C58   0.906164  0.034647  0.621703  -0.159284
    C   C59   0.594551  0.534263  0.379457  -0.159935
    C   C60   0.406164  0.534647  0.621703  -0.159452
    H   H29   0.101445  0.012325  0.353687  0.102571
    H   H30   0.899014  0.012655  0.646984  0.102164
    H   H31   0.601445  0.512325  0.353687  0.102549
    H   H32   0.399014  0.512655  0.646984  0.102192
    C   C61   0.122843  0.056272  0.430636  -0.144804
    C   C62   0.878127  0.057082  0.571019  -0.147339
    C   C63   0.622843  0.556272  0.430636  -0.144832
    C   C64   0.378127  0.557082  0.571019  -0.147232
    H   H33   0.151679  0.051549  0.444630  0.119103
    H   H34   0.849241  0.052645  0.556947  0.119340
    H   H35   0.651679  0.551549  0.444630  0.119110
    H   H36   0.349241  0.552645  0.556947  0.119327
    C   C65   0.114377  0.084458  0.463593  -0.116782
    C   C66   0.886907  0.085291  0.538577  -0.113072
    C   C67   0.614377  0.584458  0.463593  -0.116767
    C   C68   0.386907  0.585291  0.538577  -0.113168
    H   H37   0.136534  0.101846  0.503407  0.100005
    H   H38   0.864945  0.102974  0.499074  0.098800
    H   H39   0.636534  0.601846  0.503407  0.100004
    H   H40   0.364945  0.602974  0.499074  0.098815
    C   C69   0.077585  0.090626  0.445312  -0.080850
    C   C70   0.923763  0.091086  0.556940  -0.087399
    C   C71   0.577585  0.590626  0.445312  -0.080863
    C   C72   0.423763  0.591086  0.556940  -0.087280
    H   H41   0.070740  0.113018  0.470293  0.062561
    H   H42   0.930840  0.113444  0.532249  0.064651
    H   H43   0.570740  0.613018  0.470293  0.062556
    H   H44   0.430840  0.613444  0.532249  0.064635
    C   C73   0.049392  0.068375  0.394766  -0.190158
    C   C74   0.951705  0.068461  0.607107  -0.187828
    C   C75   0.549392  0.568375  0.394766  -0.190114
    C   C76   0.451705  0.568461  0.607107  -0.188012
    H   H45   0.020719  0.073374  0.380782  0.154374
    H   H46   0.980427  0.073114  0.621127  0.153520
    H   H47   0.520719  0.573374  0.380782  0.154357
    H   H48   0.480427  0.573114  0.621127  0.153566
    C   C77   0.057701  0.039917  0.361903  0.239164
    C   C78   0.943073  0.039927  0.639332  0.239310
    C   C79   0.557701  0.539917  0.361903  0.239097
    C   C80   0.443073  0.539927  0.639332  0.239476
    C   C81   0.326831  0.998017  0.276969  -0.176419
    C   C82   0.673428  0.996085  0.722876  -0.178774
    C   C83   0.826831  0.498017  0.276969  -0.176428
    C   C84   0.173428  0.496085  0.722876  -0.178785
    H   H49   0.311712  0.998764  0.219533  0.134365
    H   H50   0.688529  0.995391  0.780314  0.134699
    H   H51   0.811712  0.498764  0.219533  0.134365
    H   H52   0.188529  0.495391  0.780314  0.134703
    C   C85   0.365614  0.998032  0.314205  -0.147428
    C   C86   0.634646  0.996140  0.685601  -0.146038
    C   C87   0.865614  0.498032  0.314205  -0.147421
    C   C88   0.134646  0.496140  0.685601  -0.146014
    H   H53   0.380278  0.998789  0.284907  0.127830
    H   H54   0.619967  0.995473  0.714875  0.127336
    H   H55   0.880278  0.498789  0.284907  0.127826
    H   H56   0.119967  0.495473  0.714875  0.127327
    C   C89   0.385160  0.997115  0.387755  0.077033
    C   C90   0.615120  0.997039  0.612049  0.076205
    C   C91   0.885160  0.497115  0.387755  0.077023
    C   C92   0.115120  0.497039  0.612049  0.076153
    C   C93   0.365393  0.996161  0.423445  -0.138273
    C   C94   0.634908  0.997877  0.576395  -0.136413
    C   C95   0.865393  0.496161  0.423445  -0.138342
    C   C96   0.134908  0.497877  0.576395  -0.136394
    H   H57   0.379902  0.995432  0.480827  0.141539
    H   H58   0.620414  0.998591  0.519014  0.141495
    H   H59   0.879902  0.495432  0.480827  0.141573
    H   H60   0.120414  0.498591  0.519014  0.141497
    C   C97   0.326595  0.996149  0.385952  -0.206107
    C   C98   0.673708  0.997818  0.613930  -0.208253
    C   C99   0.826595  0.496149  0.385952  -0.206080
    C   C100  0.173708  0.497818  0.613930  -0.208257
    H   H61   0.311295  0.995430  0.414082  0.142494
    H   H62   0.689026  0.998485  0.585832  0.142871
    H   H63   0.811295  0.495430  0.414082  0.142485
    H   H64   0.189026  0.498485  0.585832  0.142868
    C   C101  0.307296  0.997081  0.312742  0.270187
    C   C102  0.692986  0.996923  0.687144  0.272450
    C   C103  0.807296  0.497081  0.312742  0.270221
    C   C104  0.192986  0.496923  0.687144  0.272468
    C   C105  0.266911  0.997179  0.273695  -0.165563
    C   C106  0.733371  0.996906  0.726252  -0.165250
    C   C107  0.766911  0.497179  0.273695  -0.165621
    C   C108  0.233371  0.496906  0.726252  -0.165264
    C   C109  0.233011  0.997333  0.240551  -0.144821
    C   C110  0.767272  0.996917  0.759456  -0.146007
    C   C111  0.733011  0.497333  0.240551  -0.144736
    C   C112  0.267272  0.496917  0.759456  -0.146001
    C   C113  0.173572  0.031110  0.176253  -0.182421
    C   C114  0.826919  0.030310  0.824472  -0.188846
    C   C115  0.673572  0.531110  0.176253  -0.182419
    C   C116  0.326919  0.530310  0.824472  -0.188810
    H   H65   0.189046  0.057172  0.187711  0.139896
    H   H66   0.811606  0.056450  0.813507  0.140451
    H   H67   0.689046  0.557172  0.187711  0.139909
    H   H68   0.311606  0.556450  0.813507  0.140445
    C   C117  0.134819  0.031452  0.136771  -0.151634
    C   C118  0.865676  0.030400  0.863977  -0.145071
    C   C119  0.634819  0.531452  0.136771  -0.151687
    C   C120  0.365676  0.530400  0.863977  -0.145137
    H   H69   0.120512  0.058029  0.117650  0.125570
    H   H70   0.880142  0.056863  0.883580  0.126306
    H   H71   0.620512  0.558029  0.117650  0.125547
    H   H72   0.380142  0.556863  0.883580  0.126325
    C   C121  0.114859  0.998149  0.121231  0.118543
    C   C122  0.885432  0.996992  0.878830  0.107702
    C   C123  0.614859  0.498149  0.121231  0.118894
    C   C124  0.385432  0.496992  0.878830  0.107807
    C   C125  0.134134  0.964604  0.146413  -0.145260
    C   C126  0.865943  0.963603  0.853029  -0.145225
    C   C127  0.634134  0.464604  0.146413  -0.145376
    C   C128  0.365943  0.463603  0.853029  -0.145282
    H   H73   0.119275  0.938183  0.135083  0.124085
    H   H74   0.880623  0.937095  0.863888  0.124961
    H   H75   0.619275  0.438183  0.135083  0.124091
    H   H76   0.380623  0.437095  0.863888  0.124961
    C   C129  0.172896  0.964408  0.185864  -0.167981
    C   C130  0.827184  0.963660  0.813595  -0.165267
    C   C131  0.672896  0.464408  0.185864  -0.167942
    C   C132  0.327184  0.463660  0.813595  -0.165236
    H   H77   0.187825  0.938107  0.204835  0.131868
    H   H78   0.812091  0.937475  0.794134  0.130486
    H   H79   0.687825  0.438107  0.204835  0.131873
    H   H80   0.312091  0.437475  0.794134  0.130484
    C   C133  0.192637  0.997620  0.200612  0.234513
    C   C134  0.807648  0.996970  0.799456  0.237768
    C   C135  0.692637  0.497620  0.200612  0.234394
    C   C136  0.307648  0.496970  0.799456  0.237750
    O   O17   0.967006  0.052820  0.470243  -0.527963
    O   O18   0.031580  0.052654  0.528771  -0.553037
    O   O19   0.467006  0.552820  0.470243  -0.527980
    O   O20   0.531580  0.552654  0.528771  -0.553052
    C   C137  0.999338  0.070544  0.499611  0.328456
    C   C138  0.499338  0.570544  0.499611  0.328453
    O   O21   0.968880  0.997679  0.378961  -0.646533
    O   O22   0.031299  0.995681  0.620957  -0.646641
    O   O23   0.468880  0.497679  0.378961  -0.646555
    O   O24   0.531299  0.495681  0.620957  -0.646695
    O   O25   0.033672  0.995955  0.440600  -0.644388
    O   O26   0.966521  0.997088  0.559296  -0.643689
    O   O27   0.533672  0.495955  0.440600  -0.644397
    O   O28   0.466521  0.497088  0.559296  -0.643653
    C   C139  0.001230  0.997363  0.381122  0.560734
    C   C140  0.998962  0.996762  0.618827  0.563808
    C   C141  0.501230  0.497363  0.381122  0.560768
    C   C142  0.498962  0.496762  0.618827  0.563835
    Zn  Zn5   0.957554  0.996664  0.459071  1.274761
    Zn  Zn6   0.042586  0.996764  0.540790  1.277970
    Zn  Zn7   0.457554  0.496664  0.459071  1.274766
    Zn  Zn8   0.542586  0.496764  0.540790  1.277998
    O   O29   0.968440  0.940777  0.470699  -0.682475
    O   O30   0.033274  0.940615  0.530014  -0.670697
    O   O31   0.468440  0.440777  0.470699  -0.682502
    O   O32   0.533274  0.440615  0.530014  -0.670698
    C   C143  0.000823  0.923094  0.500268  0.647701
    C   C144  0.500823  0.423094  0.500268  0.647703
    O   O33   0.500928  0.053082  0.552001  -0.699765
    O   O34   0.499479  0.053263  0.444988  -0.682176
    O   O35   0.000928  0.553082  0.552001  -0.699810
    O   O36   0.999479  0.553263  0.444988  -0.682224
    C   C145  0.500246  0.070781  0.498595  0.651836
    C   C146  0.000246  0.570781  0.498595  0.651926
    O   O37   0.444062  0.996275  0.497169  -0.720687
    O   O38   0.556216  0.997881  0.502607  -0.721473
    O   O39   0.944062  0.496275  0.497169  -0.720690
    O   O40   0.056216  0.497881  0.502607  -0.721495
    O   O41   0.444125  0.998046  0.391629  -0.676161
    O   O42   0.556154  0.996252  0.608151  -0.674519
    O   O43   0.944125  0.498046  0.391629  -0.676146
    O   O44   0.056154  0.496252  0.608151  -0.674487
    C   C147  0.426445  0.997162  0.427444  0.668810
    C   C148  0.573834  0.997093  0.572340  0.667823
    C   C149  0.926445  0.497162  0.427444  0.668855
    C   C150  0.073834  0.497093  0.572340  0.667857
    Zn  Zn9   0.499920  0.997224  0.568989  1.323919
    Zn  Zn10  0.500358  0.997100  0.430760  1.324033
    Zn  Zn11  0.999920  0.497224  0.568989  1.323907
    Zn  Zn12  0.000358  0.497100  0.430760  1.324036
    O   O45   0.500897  0.941032  0.554858  -0.683042
    O   O46   0.499249  0.941215  0.447646  -0.699480
    O   O47   0.000897  0.441032  0.554858  -0.683075
    O   O48   0.999249  0.441215  0.447646  -0.699517
    C   C151  0.500022  0.923519  0.501141  0.670358
    C   C152  0.000022  0.423519  0.501141  0.670422
    C   C153  0.505942  0.823889  0.560327  -0.026789
    C   C154  0.493567  0.824114  0.440509  -0.032509
    C   C155  0.005942  0.323889  0.560327  -0.026770
    C   C156  0.993567  0.324114  0.440509  -0.032536
    C   C157  0.505229  0.862657  0.559844  -0.206627
    C   C158  0.494494  0.862878  0.441569  -0.200830
    C   C159  0.005229  0.362657  0.559844  -0.206623
    C   C160  0.994494  0.362878  0.441569  -0.200853
    H   H81   0.510088  0.877389  0.607059  0.136967
    H   H82   0.489718  0.877786  0.394573  0.136209
    H   H83   0.010088  0.377389  0.607059  0.136968
    H   H84   0.989718  0.377786  0.394573  0.136227
    C   C161  0.499915  0.882317  0.500851  0.091699
    C   C162  0.999915  0.382317  0.500851  0.091676
    C   C163  0.499696  0.804516  0.500270  0.170356
    C   C164  0.999696  0.304516  0.500270  0.170366
    C   C165  0.499598  0.764156  0.499991  -0.162574
    C   C166  0.999598  0.264156  0.499991  -0.162594
    C   C167  0.999539  0.230322  0.499828  -0.092746
    C   C168  0.499539  0.730322  0.499828  -0.092767
    C   C169  0.024892  0.170780  0.559475  -0.285315
    C   C170  0.974094  0.170812  0.440006  -0.280729
    C   C171  0.524892  0.670780  0.559475  -0.285295
    C   C172  0.474094  0.670812  0.440006  -0.280721
    H   H85   0.044607  0.186140  0.606553  0.156398
    H   H86   0.954371  0.186176  0.392941  0.155284
    H   H87   0.544607  0.686140  0.606553  0.156392
    H   H88   0.454371  0.686176  0.392941  0.155280
    C   C173  0.025508  0.132059  0.559863  -0.065555
    C   C174  0.973463  0.132095  0.439635  -0.071523
    C   C175  0.525508  0.632059  0.559863  -0.065615
    C   C176  0.473463  0.632095  0.439635  -0.071547
    C   C177  0.999462  0.112059  0.499725  0.270772
    C   C178  0.499462  0.612059  0.499725  0.270816
    C   C179  0.999509  0.190079  0.499749  0.254215
    C   C180  0.499509  0.690079  0.499749  0.254222
    C   C181  0.499575  0.170419  0.443705  -0.202337
    C   C182  0.501159  0.170266  0.554473  -0.204072
    C   C183  0.999575  0.670419  0.443705  -0.202356
    C   C184  0.001159  0.670266  0.554473  -0.204094
    H   H89   0.498970  0.185694  0.400321  0.140215
    H   H90   0.501799  0.185421  0.598002  0.140278
    H   H91   0.998970  0.685694  0.400321  0.140216
    H   H92   0.001799  0.685421  0.598002  0.140281
    C   C185  0.499532  0.131676  0.443398  -0.148387
    C   C186  0.501119  0.131522  0.554416  -0.144671
    C   C187  0.999532  0.631676  0.443398  -0.148361
    C   C188  0.001119  0.631522  0.554416  -0.144640
    H   H93   0.498884  0.117161  0.399303  0.134499
    H   H94   0.501734  0.116881  0.598368  0.133975
    H   H95   0.998884  0.617161  0.399303  0.134496
    H   H96   0.001734  0.616881  0.598368  0.133971
    C   C189  0.500304  0.111990  0.498813  0.098016
    C   C190  0.000304  0.611990  0.498813  0.097957
    C   C191  0.500386  0.189706  0.499178  0.283466
    C   C192  0.000386  0.689706  0.499178  0.283495
    C   C193  0.500437  0.230013  0.499364  -0.162609
    C   C194  0.000437  0.730013  0.499364  -0.162624
    C   C195  0.000489  0.763863  0.499510  -0.150268
    C   C196  0.500489  0.263863  0.499510  -0.150280
    C   C197  0.034122  0.823465  0.530572  -0.194638
    C   C198  0.967090  0.823602  0.468970  -0.195277
    C   C199  0.534122  0.323465  0.530572  -0.194641
    C   C200  0.467090  0.323602  0.468970  -0.195277
    H   H97   0.060389  0.808195  0.554672  0.136105
    H   H98   0.940760  0.808441  0.444733  0.135884
    H   H99   0.560389  0.308195  0.554672  0.136109
    H   H100  0.440760  0.308441  0.444733  0.135885
    C   C201  0.034280  0.862207  0.530817  -0.140878
    C   C202  0.967095  0.862347  0.469078  -0.139536
    C   C203  0.534280  0.362207  0.530817  -0.140881
    C   C204  0.467095  0.362347  0.469078  -0.139548
    H   H101  0.060953  0.876728  0.555377  0.131035
    H   H102  0.940485  0.876980  0.444662  0.131075
    H   H103  0.560953  0.376728  0.555377  0.131033
    H   H104  0.440485  0.376980  0.444662  0.131079
    C   C205  0.000729  0.881886  0.500039  0.087336
    C   C206  0.500729  0.381886  0.500039  0.087355
    C   C207  0.000566  0.804170  0.499687  0.267169
    C   C208  0.500566  0.304170  0.499687  0.267178
    C   C209  0.512967  0.803881  0.624632  0.110337
    C   C210  0.490233  0.810577  0.652972  -0.134366
    C   C211  0.496856  0.792239  0.713916  -0.280947
    C   C212  0.526444  0.767411  0.747176  0.391436
    F   F1    0.532917  0.749387  0.807045  -0.226974
    C   C213  0.549619  0.761150  0.719813  -0.279882
    C   C214  0.543084  0.779527  0.658982  -0.091191
    H   H105  0.466831  0.829836  0.626952  0.128586
    H   H106  0.478791  0.797305  0.735580  0.167006
    H   H107  0.573037  0.741942  0.746224  0.157323
    H   H108  0.561805  0.774929  0.638616  0.113166
    C   C215  0.486454  0.804355  0.375922  0.112372
    C   C216  0.509227  0.811128  0.347695  -0.132379
    C   C217  0.502517  0.793034  0.286479  -0.280212
    C   C218  0.472802  0.768379  0.252835  0.386772
    F   F2    0.466242  0.750599  0.192694  -0.225924
    C   C219  0.449592  0.762044  0.280095  -0.274463
    C   C220  0.456217  0.780172  0.341203  -0.095118
    H   H109  0.532725  0.830254  0.374008  0.127383
    H   H110  0.520612  0.798160  0.264900  0.166955
    H   H111  0.426074  0.742973  0.253384  0.155950
    H   H112  0.437468  0.775522  0.361491  0.114117
    C   C221  0.012967  0.303881  0.624632  0.110318
    C   C222  0.990233  0.310577  0.652972  -0.134355
    C   C223  0.996856  0.292239  0.713916  -0.280937
    C   C224  0.026444  0.267411  0.747176  0.391434
    F   F3    0.032917  0.249387  0.807045  -0.226974
    C   C225  0.049619  0.261150  0.719813  -0.279887
    C   C226  0.043084  0.279527  0.658982  -0.091189
    H   H113  0.966831  0.329836  0.626952  0.128579
    H   H114  0.978791  0.297305  0.735580  0.167003
    H   H115  0.073037  0.241942  0.746224  0.157325
    H   H116  0.061805  0.274929  0.638616  0.113165
    C   C227  0.986454  0.304355  0.375922  0.112556
    C   C228  0.009227  0.311128  0.347695  -0.132609
    C   C229  0.002517  0.293034  0.286479  -0.280073
    C   C230  0.972802  0.268379  0.252835  0.386694
    F   F4    0.966242  0.250599  0.192694  -0.225918
    C   C231  0.949592  0.262044  0.280095  -0.274377
    C   C232  0.956217  0.280172  0.341203  -0.095233
    H   H117  0.032725  0.330254  0.374008  0.127438
    H   H118  0.020612  0.298160  0.264900  0.166936
    H   H119  0.926074  0.242973  0.253384  0.155937
    H   H120  0.937468  0.275522  0.361491  0.114130
    C   C233  0.052146  0.113704  0.626876  0.264925
    C   C234  0.085818  0.099646  0.637483  -0.282808
    C   C235  0.110895  0.082958  0.701258  -0.225338
    C   C236  0.102831  0.081127  0.755245  0.399836
    F   F5    0.127393  0.064579  0.817824  -0.250969
    C   C237  0.070103  0.096801  0.746004  -0.289160
    C   C238  0.045138  0.113629  0.682332  -0.163996
    H   H121  0.092402  0.101256  0.595569  0.185027
    H   H122  0.136901  0.071326  0.708922  0.147222
    H   H123  0.064066  0.096024  0.788754  0.175149
    H   H124  0.019781  0.126432  0.675629  0.102451
    C   C239  0.946717  0.113670  0.372830  0.273106
    C   C240  0.912740  0.100474  0.362088  -0.300352
    C   C241  0.887626  0.083492  0.298671  -0.216108
    C   C242  0.896015  0.080454  0.245229  0.399526
    F   F6    0.871422  0.063602  0.183019  -0.253605
    C   C243  0.929125  0.095199  0.254631  -0.285078
    C   C244  0.954125  0.112333  0.317927  -0.165434
    H   H125  0.905983  0.102948  0.403693  0.188371
    H   H126  0.861357  0.072543  0.290880  0.146338
    H   H127  0.935431  0.093458  0.212293  0.173086
    H   H128  0.979748  0.124484  0.324704  0.099918
    C   C245  0.552146  0.613704  0.626876  0.265002
    C   C246  0.585818  0.599646  0.637483  -0.282843
    C   C247  0.610895  0.582958  0.701258  -0.225315
    C   C248  0.602831  0.581127  0.755245  0.399817
    F   F7    0.627393  0.564579  0.817824  -0.250972
    C   C249  0.570103  0.596801  0.746004  -0.289126
    C   C250  0.545138  0.613629  0.682332  -0.164054
    H   H129  0.592402  0.601256  0.595569  0.185031
    H   H130  0.636901  0.571326  0.708922  0.147218
    H   H131  0.564066  0.596024  0.788754  0.175144
    H   H132  0.519781  0.626432  0.675629  0.102464
    C   C251  0.446717  0.613670  0.372830  0.273131
    C   C252  0.412740  0.600474  0.362088  -0.300354
    C   C253  0.387626  0.583492  0.298671  -0.216094
    C   C254  0.396015  0.580454  0.245229  0.399491
    F   F8    0.371422  0.563602  0.183019  -0.253595
    C   C255  0.429125  0.595199  0.254631  -0.285056
    C   C256  0.454125  0.612333  0.317927  -0.165453
    H   H133  0.405983  0.602948  0.403693  0.188367
    H   H134  0.361357  0.572543  0.290880  0.146338
    H   H135  0.435431  0.593458  0.212293  0.173085
    H   H136  0.479748  0.624484  0.324704  0.099921
