data_DB0-m3_o25_o115_f0_fsc.sym.63_repeat
_audit_creation_date              2024-02-23
_audit_creation_method            'Materials Studio'
_symmetry_space_group_name_H-M    'P1'
_symmetry_Int_Tables_number       1
_symmetry_cell_setting            triclinic
loop_
_symmetry_equiv_pos_as_xyz
  x,y,z
_cell_length_a                    14.2217
_cell_length_b                    16.5343
_cell_length_c                    16.7150
_cell_angle_alpha                 90.0680
_cell_angle_beta                  98.7813
_cell_angle_gamma                 90.6954
loop_
_atom_site_label
_atom_site_type_symbol
_atom_site_fract_x
_atom_site_fract_y
_atom_site_fract_z
_atom_site_U_iso_or_equiv
_atom_site_adp_type
_atom_site_occupancy
H1     H     0.05854   0.91244   0.71918   0.00000  Uiso   1.00
H2     H     0.94147   0.08756   0.28082   0.00000  Uiso   1.00
C1     C     0.00831   0.25581   0.95433   0.00000  Uiso   1.00
C2     C     0.99169   0.74419   0.04567   0.00000  Uiso   1.00
C3     C     0.00771   0.25780   0.03642   0.00000  Uiso   1.00
C4     C     0.99230   0.74220   0.96358   0.00000  Uiso   1.00
C5     C     0.00443   0.17827   0.06118   0.00000  Uiso   1.00
C6     C     0.99557   0.82173   0.93882   0.00000  Uiso   1.00
N1     N     0.00351   0.12791   0.99763   0.00000  Uiso   1.00
N2     N     0.99649   0.87209   0.00237   0.00000  Uiso   1.00
C7     C     0.00578   0.17507   0.93228   0.00000  Uiso   1.00
C8     C     0.99422   0.82493   0.06772   0.00000  Uiso   1.00
C9     C     0.99988   0.15512   0.13728   0.00000  Uiso   1.00
C10    C     0.00012   0.84488   0.86272   0.00000  Uiso   1.00
C11    C     0.98950   0.06998   0.16214   0.00000  Uiso   1.00
C12    C     0.01050   0.93002   0.83786   0.00000  Uiso   1.00
C13    C     0.96008   0.04824   0.23414   0.00000  Uiso   1.00
C14    C     0.03992   0.95175   0.76586   0.00000  Uiso   1.00
C15    C     0.95792   0.96518   0.23602   0.00000  Uiso   1.00
C16    C     0.04208   0.03482   0.76398   0.00000  Uiso   1.00
C17    C     0.98568   0.93859   0.16483   0.00000  Uiso   1.00
C18    C     0.01432   0.06141   0.83517   0.00000  Uiso   1.00
N3     N     0.00703   0.00291   0.12085   0.00000  Uiso   1.00
N4     N     0.99297   0.99709   0.87915   0.00000  Uiso   1.00
C19    C     0.99139   0.85191   0.14302   0.00000  Uiso   1.00
C20    C     0.00861   0.14809   0.85699   0.00000  Uiso   1.00
H3     H     0.01164   0.30849   0.91659   0.00000  Uiso   1.00
H4     H     0.98836   0.69151   0.08341   0.00000  Uiso   1.00
H5     H     0.00900   0.31215   0.07261   0.00000  Uiso   1.00
H6     H     0.99100   0.68785   0.92740   0.00000  Uiso   1.00
H7     H     0.93767   0.92953   0.28485   0.00000  Uiso   1.00
H8     H     0.06233   0.07047   0.71515   0.00000  Uiso   1.00
H9     H     0.03799   0.00113   0.06856   0.00000  Uiso   1.00
H10    H     0.96201   0.99887   0.93144   0.00000  Uiso   1.00
C21    C     0.08759   0.75304   0.78431   0.00000  Uiso   1.00
C22    C     0.91241   0.24696   0.21569   0.00000  Uiso   1.00
H11    H     0.15368   0.77600   0.81760   0.00000  Uiso   1.00
H12    H     0.84632   0.22400   0.18241   0.00000  Uiso   1.00
C23    C     0.08906   0.69550   0.72461   0.00000  Uiso   1.00
C24    C     0.91094   0.30450   0.27539   0.00000  Uiso   1.00
C25    C     0.00471   0.66610   0.68160   0.00000  Uiso   1.00
C26    C     0.99530   0.33391   0.31840   0.00000  Uiso   1.00
C27    C     0.91912   0.69480   0.69922   0.00000  Uiso   1.00
C28    C     0.08088   0.30520   0.30078   0.00000  Uiso   1.00
H13    H     0.85211   0.67318   0.66650   0.00000  Uiso   1.00
H14    H     0.14790   0.32682   0.33350   0.00000  Uiso   1.00
C29    C     0.91798   0.75279   0.75836   0.00000  Uiso   1.00
C30    C     0.08202   0.24721   0.24164   0.00000  Uiso   1.00
H15    H     0.85090   0.77552   0.77120   0.00000  Uiso   1.00
H16    H     0.14910   0.22448   0.22880   0.00000  Uiso   1.00
C31    C     0.00206   0.78216   0.80091   0.00000  Uiso   1.00
C32    C     0.99794   0.21784   0.19909   0.00000  Uiso   1.00
C33    C     0.09501   0.22518   0.76383   0.00000  Uiso   1.00
C34    C     0.90499   0.77482   0.23617   0.00000  Uiso   1.00
H17    H     0.15845   0.19287   0.78847   0.00000  Uiso   1.00
H18    H     0.84155   0.80713   0.21153   0.00000  Uiso   1.00
C35    C     0.09686   0.27829   0.70021   0.00000  Uiso   1.00
C36    C     0.90315   0.72171   0.29979   0.00000  Uiso   1.00
C37    C     0.01420   0.31989   0.66921   0.00000  Uiso   1.00
C38    C     0.98580   0.68011   0.33079   0.00000  Uiso   1.00
C39    C     0.93101   0.30287   0.70004   0.00000  Uiso   1.00
C40    C     0.06899   0.69713   0.29996   0.00000  Uiso   1.00
H19    H     0.86572   0.33375   0.67797   0.00000  Uiso   1.00
H20    H     0.13429   0.66625   0.32203   0.00000  Uiso   1.00
C41    C     0.92935   0.24673   0.76043   0.00000  Uiso   1.00
C42    C     0.07065   0.75327   0.23957   0.00000  Uiso   1.00
H21    H     0.86361   0.23375   0.78316   0.00000  Uiso   1.00
H22    H     0.13639   0.76625   0.21684   0.00000  Uiso   1.00
C43    C     0.01134   0.20809   0.79282   0.00000  Uiso   1.00
C44    C     0.98866   0.79191   0.20718   0.00000  Uiso   1.00
H23    H     0.15682   0.67397   0.71221   0.00000  Uiso   1.00
H24    H     0.84318   0.32603   0.28779   0.00000  Uiso   1.00
O1     O     0.92345   0.57558   0.58249   0.00000  Uiso   1.00
O2     O     0.07656   0.42442   0.41751   0.00000  Uiso   1.00
O3     O     0.08660   0.58521   0.59551   0.00000  Uiso   1.00
O4     O     0.91340   0.41479   0.40449   0.00000  Uiso   1.00
C45    C     0.00523   0.60576   0.61713   0.00000  Uiso   1.00
C46    C     0.99477   0.39424   0.38287   0.00000  Uiso   1.00
O5     O     0.09026   0.41719   0.59137   0.00000  Uiso   1.00
O6     O     0.90974   0.58281   0.40863   0.00000  Uiso   1.00
O7     O     0.92694   0.40784   0.57261   0.00000  Uiso   1.00
O8     O     0.07306   0.59216   0.42740   0.00000  Uiso   1.00
C47    C     0.01096   0.38404   0.60752   0.00000  Uiso   1.00
C48    C     0.98904   0.61596   0.39248   0.00000  Uiso   1.00
Zn1    Zn    0.10565   0.50394   0.50963   0.00000  Uiso   1.00
Zn2    Zn    0.89435   0.49606   0.49037   0.00000  Uiso   1.00
C49    C     0.51500   0.54413   0.43715   0.00000  Uiso   1.00
C50    C     0.48501   0.45587   0.56285   0.00000  Uiso   1.00
C51    C     0.44781   0.47150   0.43373   0.00000  Uiso   1.00
C52    C     0.55219   0.52850   0.56627   0.00000  Uiso   1.00
H25    H     0.40175   0.44793   0.37895   0.00000  Uiso   1.00
H26    H     0.59826   0.55207   0.62105   0.00000  Uiso   1.00
H27    H     0.52994   0.58046   0.38469   0.00000  Uiso   1.00
H28    H     0.47006   0.41954   0.61531   0.00000  Uiso   1.00
H29    H     0.54385   0.36090   0.47860   0.00000  Uiso   1.00
H30    H     0.45615   0.63910   0.52140   0.00000  Uiso   1.00
N5     N     0.23032   0.50779   0.51860   0.00000  Uiso   1.00
N6     N     0.76968   0.49221   0.48140   0.00000  Uiso   1.00
C53    C     0.47736   0.57601   0.51145   0.00000  Uiso   1.00
C54    C     0.52264   0.42399   0.48855   0.00000  Uiso   1.00
C55    C     0.41198   0.50334   0.50793   0.00000  Uiso   1.00
C56    C     0.58802   0.49666   0.49207   0.00000  Uiso   1.00
C57    C     0.31090   0.50635   0.51515   0.00000  Uiso   1.00
C58    C     0.68910   0.49364   0.48485   0.00000  Uiso   1.00
C59    C     0.18555   0.28342   0.66518   0.00000  Uiso   1.00
O9     O     0.18336   0.28119   0.59198   0.00000  Uiso   1.00
N7     N     0.27509   0.28169   0.71691   0.00000  Uiso   1.00
H31    H     0.31111   0.23079   0.70126   0.00000  Uiso   1.00
H32    H     0.31374   0.33292   0.70415   0.00000  Uiso   1.00
C60    C     0.81445   0.71658   0.33482   0.00000  Uiso   1.00
O10    O     0.81665   0.71881   0.40802   0.00000  Uiso   1.00
N8     N     0.72491   0.71831   0.28309   0.00000  Uiso   1.00
H33    H     0.68889   0.76921   0.29874   0.00000  Uiso   1.00
H34    H     0.68626   0.66708   0.29585   0.00000  Uiso   1.00
