# Generated by REPEAT Assigner based on pymatgen
data_DB0-m2_o7_o12_f0_pcu.sym.45
_audit_creation_date              2022-05-24
_audit_creation_method            REPEAT_Assigner
_cell_length_a                    11.346683
_cell_length_b                    17.717034
_cell_length_c                    16.239755
_cell_angle_alpha                 89.975016
_cell_angle_beta                  102.548328
_cell_angle_gamma                 90.000928
_cell_volume                      3186.687808
_symmetry_space_group_name_H-M    P1
_symmetry_Int_Tables_number       1
loop_
    _symmetry_equiv_pos_site_id
    _symmetry_equiv_pos_as_xyz
    1  x,y,z
loop_
    _atom_site_type_symbol
    _atom_site_label
    _atom_site_fract_x
    _atom_site_fract_y
    _atom_site_fract_z
    _atom_type_partial_charge
    O   O1   0.493012  0.391892  0.568271  -0.588812
    O   O2   0.487040  0.613230  0.431025  -0.586327
    O   O3   0.494725  0.393947  0.427053  -0.515110
    O   O4   0.488915  0.611189  0.572814  -0.499295
    C   C1   0.494243  0.357436  0.497211  0.619007
    C   C2   0.487051  0.647650  0.502309  0.601112
    O   O5   0.319967  0.502747  0.549455  -0.496035
    O   O6   0.662052  0.503491  0.450110  -0.513915
    O   O7   0.311562  0.498581  0.407002  -0.601155
    O   O8   0.670532  0.505586  0.592705  -0.604953
    C   C3   0.258786  0.500918  0.471320  0.706881
    C   C4   0.723292  0.504432  0.528290  0.729691
    Cu  Cu1  0.495903  0.501316  0.582774  0.754420
    Cu  Cu2  0.486092  0.503787  0.416819  0.865281
    C   C5   0.125982  0.495206  0.453685  -0.359209
    C   C6   0.856177  0.510274  0.545987  -0.334735
    C   C7   0.057468  0.511138  0.509958  -0.086531
    C   C8   0.924596  0.496393  0.489115  -0.114878
    H   H1   0.896798  0.529602  0.608778  0.193453
    H   H2   0.085673  0.473919  0.391646  0.209094
    C   C9   0.523066  0.847864  0.577604  -0.408405
    C   C10  0.521309  0.156953  0.429835  -0.413352
    C   C11  0.519973  0.769726  0.577193  0.062783
    C   C12  0.520301  0.235135  0.429974  0.038230
    H   H3   0.550173  0.738784  0.635235  0.038869
    H   H4   0.545416  0.265891  0.379034  0.048783
    C   C13  0.485126  0.730413  0.502667  -0.079350
    C   C14  0.492842  0.274614  0.496487  -0.083365
    C   C15  0.449331  0.769272  0.427901  0.115141
    C   C16  0.462612  0.235829  0.562531  0.074353
    H   H5   0.419234  0.738381  0.369810  0.083551
    H   H6   0.437937  0.266687  0.613596  0.104826
    C   C17  0.445179  0.847176  0.427034  -0.473807
    C   C18  0.456646  0.157991  0.561871  -0.463195
    C   C19  0.484286  0.887120  0.501860  0.504512
    C   C20  0.488012  0.117872  0.496064  0.536401
    C   C21  0.486036  0.968415  0.499833  -0.161964
    C   C22  0.487156  0.036567  0.497912  -0.204195
    C   C23  0.575848  0.544075  0.845249  -0.266534
    C   C24  0.416700  0.455637  0.155617  -0.315566
    H   H7   0.630255  0.584047  0.887323  0.178590
    H   H8   0.360891  0.416609  0.113048  0.184910
    C   C25  0.574991  0.545951  0.760252  -0.042764
    C   C26  0.410432  0.457254  0.239462  0.081507
    H   H9   0.629659  0.586973  0.736367  0.146257
    H   H10  0.351095  0.418658  0.262381  0.086670
    N   N1   0.502690  0.498974  0.706846  -0.011113
    N   N2   0.478857  0.506149  0.292693  -0.167717
    C   C27  0.436443  0.446398  0.736268  0.164487
    C   C28  0.555039  0.553355  0.265089  0.308017
    H   H11  0.381789  0.408070  0.692184  0.105111
    H   H12  0.611299  0.590464  0.309800  0.062294
    C   C29  0.436533  0.441482  0.821381  -0.410374
    C   C30  0.565845  0.552688  0.181814  -0.487039
    C   C31  0.505781  0.492425  0.876493  0.417168
    C   C32  0.495110  0.502772  0.126144  0.463819
    C   C33  0.502382  0.495807  0.964510  -0.194120
    C   C34  0.499205  0.499158  0.038256  -0.215315
    C   C35  0.869377  0.463618  0.406438  0.855311
    O   O9   0.864382  0.500320  0.342170  -0.527198
    O   O10  0.824651  0.392854  0.401963  -0.382253
    C   C36  0.776755  0.360030  0.325549  -0.034566
    H   H13  0.747015  0.301867  0.335972  0.134021
    H   H14  0.846254  0.357413  0.286990  0.042638
    H   H15  0.697944  0.393157  0.291923  0.056077
    C   C37  0.112714  0.546709  0.591153  0.836262
    O   O11  0.117823  0.512488  0.657064  -0.530435
    O   O12  0.160744  0.616441  0.592228  -0.378536
    C   C38  0.212476  0.651018  0.666891  0.027353
    H   H16  0.245809  0.707594  0.653567  0.062311
    H   H17  0.289580  0.616845  0.701191  0.045533
    H   H18  0.144464  0.657605  0.706196  0.048376
    C   C39  0.361934  0.382641  0.849606  0.789299
    O   O13  0.282533  0.351723  0.797950  -0.501631
    O   O14  0.384122  0.359556  0.930640  -0.294364
    C   C40  0.317860  0.302580  0.955679  -0.025171
    H   H19  0.350897  0.292258  0.024165  0.067394
    H   H20  0.328405  0.250050  0.920811  0.065833
    H   H21  0.221244  0.318960  0.943588  0.057023
    C   C41  0.653679  0.604527  0.156554  0.815214
    O   O15  0.691742  0.658126  0.201640  -0.526727
    O   O16  0.697422  0.591705  0.086999  -0.281712
    C   C42  0.783285  0.638286  0.066464  -0.063118
    H   H22  0.807578  0.617599  0.007898  0.074171
    H   H23  0.865396  0.638094  0.118061  0.085213
    H   H24  0.747171  0.696510  0.055837  0.066017
    C   C43  0.568932  0.885947  0.659411  0.818970
    O   O17  0.602566  0.951446  0.662809  -0.497031
    O   O18  0.579266  0.846426  0.731630  -0.350556
    C   C44  0.626181  0.878833  0.808456  -0.016398
    H   H25  0.626403  0.836709  0.859020  0.084458
    H   H26  0.569996  0.927758  0.818552  0.049345
    H   H27  0.720254  0.897478  0.811022  0.060425
    C   C45  0.558655  0.118600  0.358638  0.827849
    O   O19  0.590349  0.052701  0.363466  -0.490646
    O   O20  0.563248  0.158223  0.288466  -0.363547
    C   C46  0.602085  0.125495  0.222551  -0.040629
    H   H28  0.598542  0.167781  0.171698  0.085853
    H   H29  0.542670  0.077320  0.197431  0.067355
    H   H30  0.696523  0.105691  0.244134  0.063525
    C   C47  0.398474  0.885046  0.345480  0.890003
    O   O21  0.404432  0.852813  0.280161  -0.554633
    O   O22  0.340947  0.951998  0.341626  -0.360259
    C   C48  0.290919  0.984815  0.265547  0.026174
    H   H31  0.249171  0.039394  0.276713  0.057029
    H   H32  0.220269  0.947322  0.228915  0.045980
    H   H33  0.361951  0.995248  0.229551  0.058698
    C   C49  0.416050  0.120414  0.631994  0.873856
    O   O23  0.429843  0.152205  0.700020  -0.546142
    O   O24  0.355503  0.054400  0.620312  -0.344443
    C   C50  0.310830  0.022121  0.684019  -0.015748
    H   H34  0.265322  0.968269  0.661371  0.070169
    H   H35  0.244318  0.060600  0.703020  0.059959
    H   H36  0.385715  0.010409  0.738896  0.071961
