# Generated by REPEAT Assigner based on pymatgen
data_DB0-m29_o90_o1490_f0_pts.sym.10
_audit_creation_date              2022-05-24
_audit_creation_method            REPEAT_Assigner
_cell_length_a                    12.054229
_cell_length_b                    16.736794
_cell_length_c                    13.399771
_cell_angle_alpha                 106.278064
_cell_angle_beta                  91.513133
_cell_angle_gamma                 107.323286
_cell_volume                      2459.440016
_symmetry_space_group_name_H-M    P1
_symmetry_Int_Tables_number       1
loop_
    _symmetry_equiv_pos_site_id
    _symmetry_equiv_pos_as_xyz
    1  x,y,z
loop_
    _atom_site_type_symbol
    _atom_site_label
    _atom_site_fract_x
    _atom_site_fract_y
    _atom_site_fract_z
    _atom_type_partial_charge
    C   C1   0.302981  0.980565  0.003697  -0.015701
    C   C2   0.244493  0.971083  0.909662  -0.167134
    C   C3   0.130432  0.972634  0.905581  0.080710
    C   C4   0.251658  0.996384  0.093732  -0.194962
    C   C5   0.140641  0.003564  0.091603  0.565889
    C   C6   0.077342  0.992644  0.997526  -0.293027
    C   C7   0.963044  0.999640  0.999861  0.230426
    C   C8   0.894545  0.999571  0.912704  0.102245
    C   C9   0.777753  0.990812  0.917497  0.041188
    N   N1   0.094130  0.018737  0.182099  -0.498654
    C   C10  0.984176  0.020849  0.185652  0.266744
    C   C11  0.914806  0.007868  0.095057  -0.191768
    C   C12  0.798411  0.005753  0.099416  0.082208
    C   C13  0.730895  0.993531  0.009363  -0.217499
    H   H1   0.952404  0.033436  0.261082  0.086682
    H   H2   0.392016  0.979479  0.009385  0.127263
    H   H3   0.638678  0.985822  0.009963  0.195260
    H   H4   0.086444  0.956064  0.828681  0.070205
    O   O1   0.657422  0.050546  0.202325  -0.608004
    C   C14  0.737073  0.010390  0.193369  0.542699
    O   O2   0.496281  0.835853  0.205091  -0.475837
    O   O3   0.739250  0.958234  0.249939  -0.459029
    O   O4   0.528850  0.932662  0.367890  -0.524836
    C   C15  0.508895  0.851888  0.307077  0.541320
    Fe  Fe1  0.533375  0.018859  0.291361  1.456807
    O   O5   0.382313  0.959794  0.195832  -0.546787
    O   O6   0.356355  0.093324  0.257423  -0.485884
    C   C16  0.323286  0.013692  0.191683  0.629796
    O   O7   0.558879  0.135322  0.399384  -0.635334
    O   O8   0.409594  0.053724  0.464827  -0.487675
    C   C17  0.488433  0.129315  0.472049  0.759498
    O   O9   0.454302  0.878208  0.613501  -0.582537
    O   O10  0.622220  0.935718  0.549983  -0.477652
    C   C18  0.523321  0.872193  0.539419  0.713263
    O   O11  0.688784  0.033504  0.787471  -0.557472
    O   O12  0.606242  0.898786  0.803769  -0.499888
    C   C19  0.696588  0.970452  0.824641  0.522474
    O   O13  0.261939  0.962082  0.726763  -0.470852
    O   O14  0.529307  0.085839  0.651634  -0.551619
    C   C20  0.482573  0.145291  0.700315  0.514214
    O   O15  0.422794  0.980615  0.835142  -0.568218
    C   C21  0.309927  0.966916  0.818233  0.686963
    O   O16  0.448114  0.145561  0.792376  -0.510376
    Fe  Fe2  0.522384  0.995538  0.722286  1.443433
    C   C22  0.485776  0.209528  0.550929  -0.182895
    C   C23  0.487299  0.280307  0.516495  0.093783
    H   H5   0.495510  0.274444  0.434921  0.110576
    C   C24  0.474356  0.355914  0.583159  -0.531356
    C   C25  0.460007  0.360014  0.686900  0.588658
    C   C26  0.462927  0.290737  0.722412  -0.405100
    H   H6   0.455941  0.297064  0.804297  0.203878
    C   C27  0.475916  0.215211  0.655898  0.197827
    N   N2   0.479667  0.507900  0.606740  -0.187941
    N   N3   0.480477  0.573091  0.569190  -0.221206
    C   C28  0.475981  0.561335  0.465501  0.720873
    N   N4   0.471005  0.482578  0.400228  -0.233241
    N   N5   0.470201  0.417337  0.437929  -0.238566
    C   C29  0.474357  0.428984  0.541773  0.766348
    C   C30  0.477679  0.625316  0.319061  0.122651
    H   H7   0.469077  0.562483  0.263135  0.045662
    C   C31  0.486973  0.696314  0.282895  -0.218459
    H   H8   0.484465  0.686040  0.199498  0.159585
    C   C32  0.501055  0.778902  0.351495  0.147731
    C   C33  0.502987  0.788232  0.458568  -0.140266
    C   C34  0.490497  0.716301  0.493478  0.080786
    H   H9   0.494250  0.726007  0.576793  0.069762
    C   C35  0.480093  0.635029  0.424894  -0.380954
    O   O17  0.938092  0.008640  0.821916  -0.208883
    C   C36  0.980065  0.099075  0.836642  0.097029
    H   H10  0.963980  0.135920  0.914583  0.000582
    H   H11  0.934909  0.114863  0.775125  0.053624
    H   H12  0.075539  0.119288  0.831342  0.033459
    O   O18  0.445945  0.432720  0.756497  -0.403900
    C   C37  0.325934  0.411502  0.764437  0.191072
    H   H13  0.306313  0.387004  0.832901  0.014408
    H   H14  0.275789  0.360625  0.692094  -0.020242
    H   H15  0.299306  0.471027  0.774838  0.036176
