data_DB0-m29_o96_o420_f0_pts.sym.5_repeat
_audit_creation_date              2024-02-24
_audit_creation_method            'Materials Studio'
_symmetry_space_group_name_H-M    'P1'
_symmetry_Int_Tables_number       1
_symmetry_cell_setting            triclinic
loop_
_symmetry_equiv_pos_as_xyz
  x,y,z
_cell_length_a                    17.0361
_cell_length_b                    11.8275
_cell_length_c                    19.6727
_cell_angle_alpha                 91.0794
_cell_angle_beta                  90.6938
_cell_angle_gamma                 68.4980
loop_
_atom_site_label
_atom_site_type_symbol
_atom_site_fract_x
_atom_site_fract_y
_atom_site_fract_z
_atom_site_U_iso_or_equiv
_atom_site_adp_type
_atom_site_occupancy
C1     C     0.77603   0.00204   0.89314   0.00000  Uiso   1.00
C2     C     0.83705   0.94168   0.84735   0.00000  Uiso   1.00
C3     C     0.91193   0.94821   0.87243   0.00000  Uiso   1.00
N1     N     0.89909   0.00067   0.93502   0.00000  Uiso   1.00
C4     C     0.81599   0.03208   0.94825   0.00000  Uiso   1.00
C5     C     0.98239   0.92621   0.83636   0.00000  Uiso   1.00
C6     C     0.05551   0.95474   0.86001   0.00000  Uiso   1.00
C7     C     0.10888   0.98532   0.81805   0.00000  Uiso   1.00
C8     C     0.17093   0.99854   0.85762   0.00000  Uiso   1.00
C9     C     0.15425   0.97655   0.92367   0.00000  Uiso   1.00
N2     N     0.08393   0.94869   0.92466   0.00000  Uiso   1.00
C10    C     0.20469   0.98347   0.98358   0.00000  Uiso   1.00
C11    C     0.16933   0.02471   0.04367   0.00000  Uiso   1.00
C12    C     0.21025   0.04866   0.09997   0.00000  Uiso   1.00
C13    C     0.14997   0.10255   0.14713   0.00000  Uiso   1.00
C14    C     0.07425   0.10478   0.12026   0.00000  Uiso   1.00
N3     N     0.08595   0.05792   0.05646   0.00000  Uiso   1.00
C15    C     0.00194   0.13803   0.15450   0.00000  Uiso   1.00
C16    C     0.92700   0.11433   0.13090   0.00000  Uiso   1.00
C17    C     0.87289   0.08777   0.17356   0.00000  Uiso   1.00
C18    C     0.81082   0.07285   0.13503   0.00000  Uiso   1.00
C19    C     0.82862   0.08950   0.06802   0.00000  Uiso   1.00
N4     N     0.89959   0.11587   0.06616   0.00000  Uiso   1.00
C20    C     0.77985   0.07666   0.00794   0.00000  Uiso   1.00
H1     H     0.98242   0.90170   0.78332   0.00000  Uiso   1.00
H2     H     0.27073   0.96802   0.97637   0.00000  Uiso   1.00
H3     H     0.00129   0.16947   0.20649   0.00000  Uiso   1.00
H4     H     0.71417   0.08994   0.01523   0.00000  Uiso   1.00
H5     H     0.05916   0.92054   0.96642   0.00000  Uiso   1.00
H6     H     0.92608   0.13885   0.02362   0.00000  Uiso   1.00
C21    C     0.87831   0.06939   0.24212   0.00000  Uiso   1.00
C22    C     0.81729   0.03737   0.27308   0.00000  Uiso   1.00
C23    C     0.74873   0.02946   0.23498   0.00000  Uiso   1.00
C24    C     0.74695   0.04453   0.16445   0.00000  Uiso   1.00
C25    C     0.69143   0.03020   0.87910   0.00000  Uiso   1.00
C26    C     0.67003   0.99010   0.81745   0.00000  Uiso   1.00
C27    C     0.73302   0.91475   0.77499   0.00000  Uiso   1.00
C28    C     0.81752   0.88860   0.78941   0.00000  Uiso   1.00
C29    C     0.10577   0.00387   0.74927   0.00000  Uiso   1.00
C30    C     0.16869   0.03523   0.72082   0.00000  Uiso   1.00
C31    C     0.23368   0.04730   0.76063   0.00000  Uiso   1.00
C32    C     0.23471   0.02954   0.83049   0.00000  Uiso   1.00
C33    C     0.29466   0.02247   0.11370   0.00000  Uiso   1.00
C34    C     0.31590   0.05727   0.17689   0.00000  Uiso   1.00
C35    C     0.25310   0.11910   0.22337   0.00000  Uiso   1.00
C36    C     0.16940   0.14037   0.20933   0.00000  Uiso   1.00
H7     H     0.93107   0.07425   0.27136   0.00000  Uiso   1.00
H8     H     0.69601   0.03708   0.13374   0.00000  Uiso   1.00
H9     H     0.64310   0.08637   0.91327   0.00000  Uiso   1.00
H10    H     0.71635   0.87646   0.72933   0.00000  Uiso   1.00
H11    H     0.05606   0.99473   0.71770   0.00000  Uiso   1.00
H12    H     0.28424   0.03846   0.86240   0.00000  Uiso   1.00
H13    H     0.34308   0.97400   0.07755   0.00000  Uiso   1.00
H14    H     0.26937   0.14533   0.27290   0.00000  Uiso   1.00
H15    H     0.12193   0.18432   0.24702   0.00000  Uiso   1.00
H16    H     0.16688   0.04851   0.66656   0.00000  Uiso   1.00
O1     O     0.46552   0.97485   0.60311   0.00000  Uiso   1.00
O2     O     0.46754   0.81936   0.67028   0.00000  Uiso   1.00
C37    C     0.46896   0.86294   0.60963   0.00000  Uiso   1.00
O3     O     0.37030   0.06991   0.75996   0.00000  Uiso   1.00
O4     O     0.30030   0.08156   0.66031   0.00000  Uiso   1.00
C38    C     0.30249   0.07131   0.72664   0.00000  Uiso   1.00
O5     O     0.57143   0.13520   0.63296   0.00000  Uiso   1.00
O6     O     0.56370   0.97103   0.74319   0.00000  Uiso   1.00
C39    C     0.58229   0.03131   0.79358   0.00000  Uiso   1.00
O7     O     0.43477   0.23039   0.66080   0.00000  Uiso   1.00
C40    C     0.50157   0.23083   0.62780   0.00000  Uiso   1.00
O8     O     0.52813   0.13797   0.81274   0.00000  Uiso   1.00
Fe1    Fe    0.45944   0.06274   0.69231   0.00000  Uiso   1.00
O9     O     0.54987   0.83566   0.33442   0.00000  Uiso   1.00
C41    C     0.48145   0.83348   0.36393   0.00000  Uiso   1.00
O10    O     0.45876   0.91368   0.18286   0.00000  Uiso   1.00
O11    O     0.41094   0.92667   0.35497   0.00000  Uiso   1.00
O12    O     0.42141   0.08801   0.24640   0.00000  Uiso   1.00
C42    C     0.40384   0.02168   0.19884   0.00000  Uiso   1.00
Fe2    Fe    0.52390   0.00222   0.30073   0.00000  Uiso   1.00
O13    O     0.61537   0.99493   0.23540   0.00000  Uiso   1.00
O14    O     0.66624   0.03571   0.33507   0.00000  Uiso   1.00
C43    C     0.67588   0.01545   0.26948   0.00000  Uiso   1.00
O15    O     0.51192   0.09508   0.38885   0.00000  Uiso   1.00
O16    O     0.48046   0.26038   0.32135   0.00000  Uiso   1.00
C44    C     0.48967   0.21301   0.38209   0.00000  Uiso   1.00
C45    C     0.48937   0.76808   0.42783   0.00000  Uiso   1.00
C46    C     0.49271   0.64955   0.43089   0.00000  Uiso   1.00
H17    H     0.50001   0.60113   0.38316   0.00000  Uiso   1.00
C47    C     0.48461   0.59895   0.49336   0.00000  Uiso   1.00
C48    C     0.47536   0.67164   0.55172   0.00000  Uiso   1.00
H18    H     0.46510   0.64180   0.60086   0.00000  Uiso   1.00
C49    C     0.47622   0.78762   0.54832   0.00000  Uiso   1.00
C50    C     0.48191   0.83549   0.48638   0.00000  Uiso   1.00
C51    C     0.49055   0.41458   0.56102   0.00000  Uiso   1.00
H19    H     0.49990   0.45454   0.60849   0.00000  Uiso   1.00
C52    C     0.48912   0.29862   0.56436   0.00000  Uiso   1.00
C53    C     0.48738   0.23557   0.50567   0.00000  Uiso   1.00
C54    C     0.48338   0.28802   0.44342   0.00000  Uiso   1.00
C55    C     0.47806   0.40711   0.43972   0.00000  Uiso   1.00
H20    H     0.47114   0.44545   0.38998   0.00000  Uiso   1.00
C56    C     0.48381   0.47245   0.49823   0.00000  Uiso   1.00
H21    H     0.47901   0.92786   0.48245   0.00000  Uiso   1.00
H22    H     0.49072   0.14297   0.50948   0.00000  Uiso   1.00
C57    C     0.88093   0.79464   0.74848   0.00000  Uiso   1.00
C58    C     0.93999   0.69560   0.77988   0.00000  Uiso   1.00
C59    C     0.99780   0.60491   0.74161   0.00000  Uiso   1.00
C60    C     0.99638   0.61196   0.67177   0.00000  Uiso   1.00
C61    C     0.93676   0.70932   0.64017   0.00000  Uiso   1.00
C62    C     0.87884   0.80019   0.67835   0.00000  Uiso   1.00
H23    H     0.94070   0.68805   0.83458   0.00000  Uiso   1.00
H24    H     0.04398   0.52789   0.76642   0.00000  Uiso   1.00
H25    H     0.04164   0.54078   0.64175   0.00000  Uiso   1.00
H26    H     0.93536   0.71423   0.58536   0.00000  Uiso   1.00
H27    H     0.83246   0.87631   0.65305   0.00000  Uiso   1.00
C63    C     0.83064   0.00792   0.34541   0.00000  Uiso   1.00
C64    C     0.83741   0.09356   0.39146   0.00000  Uiso   1.00
C65    C     0.85293   0.06517   0.45916   0.00000  Uiso   1.00
C66    C     0.86280   0.95070   0.48093   0.00000  Uiso   1.00
C67    C     0.85763   0.86424   0.43496   0.00000  Uiso   1.00
C68    C     0.84202   0.89250   0.36722   0.00000  Uiso   1.00
H28    H     0.82976   0.18357   0.37474   0.00000  Uiso   1.00
H29    H     0.85758   0.13263   0.49517   0.00000  Uiso   1.00
H30    H     0.87513   0.92865   0.53398   0.00000  Uiso   1.00
H31    H     0.86618   0.77409   0.45197   0.00000  Uiso   1.00
H32    H     0.83901   0.82396   0.33124   0.00000  Uiso   1.00
