data_DB0-m2_o18_o29_f0_pcu.sym.20_repeat
_audit_creation_date              2024-02-23
_audit_creation_method            'Materials Studio'
_symmetry_space_group_name_H-M    'P1'
_symmetry_Int_Tables_number       1
_symmetry_cell_setting            triclinic
loop_
_symmetry_equiv_pos_as_xyz
  x,y,z
_cell_length_a                    14.5161
_cell_length_b                    15.1273
_cell_length_c                    27.6002
_cell_angle_alpha                 76.5176
_cell_angle_beta                  103.8039
_cell_angle_gamma                 114.9954
loop_
_atom_site_label
_atom_site_type_symbol
_atom_site_fract_x
_atom_site_fract_y
_atom_site_fract_z
_atom_site_U_iso_or_equiv
_atom_site_adp_type
_atom_site_occupancy
O1     O     0.97897   0.34006   0.51719   0.00000  Uiso   1.00
O2     O     0.02131   0.66066   0.48229   0.00000  Uiso   1.00
O3     O     0.83898   0.38331   0.49300   0.00000  Uiso   1.00
O4     O     0.16125   0.61740   0.50645   0.00000  Uiso   1.00
C1     C     0.87948   0.31678   0.50681   0.00000  Uiso   1.00
C2     C     0.12078   0.68404   0.49258   0.00000  Uiso   1.00
O5     O     0.07001   0.47264   0.58127   0.00000  Uiso   1.00
O6     O     0.93026   0.52808   0.41818   0.00000  Uiso   1.00
O7     O     0.93471   0.52245   0.56021   0.00000  Uiso   1.00
O8     O     0.06561   0.47821   0.43928   0.00000  Uiso   1.00
C3     C     0.00290   0.49650   0.59387   0.00000  Uiso   1.00
C4     C     0.99724   0.50403   0.40558   0.00000  Uiso   1.00
Cu1    Cu    0.08182   0.47565   0.51165   0.00000  Uiso   1.00
Cu2    Cu    0.91861   0.52528   0.48770   0.00000  Uiso   1.00
C5     C     0.97033   0.41147   0.83118   0.00000  Uiso   1.00
C6     C     0.01785   0.58817   0.16670   0.00000  Uiso   1.00
O9     O     0.93978   0.32572   0.81396   0.00000  Uiso   1.00
O10    O     0.03517   0.67220   0.18253   0.00000  Uiso   1.00
N1     N     0.99909   0.49696   0.79917   0.00000  Uiso   1.00
N2     N     0.00220   0.50454   0.20010   0.00000  Uiso   1.00
C7     C     0.02738   0.58336   0.81553   0.00000  Uiso   1.00
C8     C     0.98716   0.42022   0.18505   0.00000  Uiso   1.00
C9     C     0.06375   0.46000   0.73592   0.00000  Uiso   1.00
C10    C     0.92704   0.52753   0.26385   0.00000  Uiso   1.00
C11    C     0.06580   0.45918   0.68627   0.00000  Uiso   1.00
C12    C     0.92440   0.52777   0.31351   0.00000  Uiso   1.00
C13    C     0.93993   0.53094   0.65984   0.00000  Uiso   1.00
C14    C     0.07050   0.48329   0.33914   0.00000  Uiso   1.00
C15    C     0.93845   0.53147   0.70948   0.00000  Uiso   1.00
C16    C     0.07237   0.48312   0.28946   0.00000  Uiso   1.00
C17    C     0.00033   0.49606   0.74773   0.00000  Uiso   1.00
C18    C     0.00065   0.50517   0.25159   0.00000  Uiso   1.00
C19    C     0.99935   0.49893   0.89888   0.00000  Uiso   1.00
C20    C     0.00223   0.50291   0.10028   0.00000  Uiso   1.00
C21    C     0.97045   0.41150   0.88133   0.00000  Uiso   1.00
C22    C     0.01826   0.58836   0.11655   0.00000  Uiso   1.00
C23    C     0.94035   0.32419   0.91379   0.00000  Uiso   1.00
C24    C     0.03378   0.67364   0.08255   0.00000  Uiso   1.00
C25    C     0.02757   0.58531   0.86544   0.00000  Uiso   1.00
C26    C     0.98673   0.41839   0.13505   0.00000  Uiso   1.00
C27    C     0.00356   0.49515   0.64754   0.00000  Uiso   1.00
C28    C     0.99672   0.50544   0.35186   0.00000  Uiso   1.00
H1     H     0.89070   0.55958   0.63084   0.00000  Uiso   1.00
H2     H     0.12798   0.46582   0.36777   0.00000  Uiso   1.00
H3     H     0.88802   0.55949   0.71826   0.00000  Uiso   1.00
H4     H     0.13100   0.46628   0.28035   0.00000  Uiso   1.00
H5     H     0.91483   0.25418   0.90088   0.00000  Uiso   1.00
H6     H     0.04478   0.74151   0.09395   0.00000  Uiso   1.00
C29    C     0.98118   0.41401   0.03396   0.00000  Uiso   1.00
C30    C     0.02617   0.58881   0.96577   0.00000  Uiso   1.00
C31    C     0.02146   0.58901   0.01588   0.00000  Uiso   1.00
C32    C     0.97455   0.41215   0.98270   0.00000  Uiso   1.00
C33    C     0.00168   0.50199   0.04989   0.00000  Uiso   1.00
C34    C     0.99997   0.49997   0.94927   0.00000  Uiso   1.00
C35    C     0.96874   0.32996   0.07006   0.00000  Uiso   1.00
C36    C     0.05742   0.67562   0.93157   0.00000  Uiso   1.00
C37    C     0.97134   0.33234   0.11979   0.00000  Uiso   1.00
C38    C     0.05764   0.67358   0.88216   0.00000  Uiso   1.00
O11    O     0.96981   0.33697   0.21860   0.00000  Uiso   1.00
O12    O     0.05793   0.66814   0.78337   0.00000  Uiso   1.00
C39    C     0.94208   0.32422   0.96371   0.00000  Uiso   1.00
C40    C     0.03517   0.67419   0.03294   0.00000  Uiso   1.00
H7     H     0.86986   0.54373   0.23433   0.00000  Uiso   1.00
H8     H     0.11291   0.43277   0.76584   0.00000  Uiso   1.00
H9     H     0.96115   0.26524   0.14634   0.00000  Uiso   1.00
H10    H     0.08216   0.74275   0.85705   0.00000  Uiso   1.00
H11    H     0.95954   0.26038   0.06185   0.00000  Uiso   1.00
H12    H     0.08566   0.74804   0.94166   0.00000  Uiso   1.00
H13    H     0.91425   0.25248   0.98593   0.00000  Uiso   1.00
H14    H     0.04424   0.74326   0.00876   0.00000  Uiso   1.00
C41    C     0.81131   0.21176   0.51140   0.00000  Uiso   1.00
C42    C     0.18901   0.78918   0.48867   0.00000  Uiso   1.00
C43    C     0.79011   0.04320   0.52962   0.00000  Uiso   1.00
C44    C     0.21049   0.95782   0.47317   0.00000  Uiso   1.00
C45    C     0.85321   0.14149   0.52516   0.00000  Uiso   1.00
C46    C     0.14724   0.85954   0.47643   0.00000  Uiso   1.00
C47    C     0.70556   0.18290   0.50220   0.00000  Uiso   1.00
C48    C     0.29473   0.81799   0.49717   0.00000  Uiso   1.00
C49    C     0.63961   0.08312   0.50720   0.00000  Uiso   1.00
C50    C     0.36083   0.91767   0.49429   0.00000  Uiso   1.00
C51    C     0.68401   0.01394   0.52072   0.00000  Uiso   1.00
C52    C     0.31656   0.98690   0.48210   0.00000  Uiso   1.00
C53    C     0.53121   0.05080   0.49904   0.00000  Uiso   1.00
C54    C     0.46925   0.94986   0.50324   0.00000  Uiso   1.00
C55    C     0.51751   0.88339   0.51690   0.00000  Uiso   1.00
C56    C     0.48310   0.11724   0.48740   0.00000  Uiso   1.00
C57    C     0.62247   0.91504   0.52557   0.00000  Uiso   1.00
C58    C     0.37819   0.08566   0.47910   0.00000  Uiso   1.00
H15    H     0.65471   0.85943   0.53628   0.00000  Uiso   1.00
H16    H     0.34603   0.14118   0.47035   0.00000  Uiso   1.00
H17    H     0.32200   0.75965   0.50561   0.00000  Uiso   1.00
H18    H     0.67804   0.24119   0.49084   0.00000  Uiso   1.00
H19    H     0.06483   0.83886   0.46941   0.00000  Uiso   1.00
H20    H     0.93563   0.16219   0.53242   0.00000  Uiso   1.00
H21    H     0.47758   0.80478   0.52212   0.00000  Uiso   1.00
H22    H     0.52324   0.19575   0.48485   0.00000  Uiso   1.00
N3     N     0.79674   0.56302   0.46954   0.00000  Uiso   1.00
N4     N     0.20335   0.43735   0.53016   0.00000  Uiso   1.00
C59    C     0.71163   0.66145   0.41739   0.00000  Uiso   1.00
C60    C     0.28706   0.33752   0.58199   0.00000  Uiso   1.00
C61    C     0.79503   0.63548   0.43099   0.00000  Uiso   1.00
C62    C     0.20425   0.36438   0.56825   0.00000  Uiso   1.00
C63    C     0.71567   0.51186   0.49418   0.00000  Uiso   1.00
C64    C     0.28512   0.48851   0.50574   0.00000  Uiso   1.00
C65    C     0.62842   0.53529   0.48182   0.00000  Uiso   1.00
C66    C     0.37164   0.46395   0.51805   0.00000  Uiso   1.00
C67    C     0.62846   0.61194   0.44291   0.00000  Uiso   1.00
C68    C     0.37081   0.38673   0.55673   0.00000  Uiso   1.00
C69    C     0.54197   0.48516   0.50700   0.00000  Uiso   1.00
C70    C     0.45800   0.51373   0.49288   0.00000  Uiso   1.00
C71    C     0.46216   0.59142   0.45366   0.00000  Uiso   1.00
C72    C     0.53716   0.40679   0.54594   0.00000  Uiso   1.00
C73    C     0.54579   0.63934   0.42934   0.00000  Uiso   1.00
C74    C     0.45318   0.35877   0.57017   0.00000  Uiso   1.00
H23    H     0.54433   0.69901   0.39921   0.00000  Uiso   1.00
H24    H     0.45397   0.29818   0.59983   0.00000  Uiso   1.00
H25    H     0.27841   0.54695   0.47637   0.00000  Uiso   1.00
H26    H     0.72295   0.45383   0.52371   0.00000  Uiso   1.00
H27    H     0.13881   0.32539   0.58788   0.00000  Uiso   1.00
H28    H     0.85975   0.67424   0.41084   0.00000  Uiso   1.00
H29    H     0.40192   0.61843   0.43969   0.00000  Uiso   1.00
H30    H     0.59695   0.37886   0.55917   0.00000  Uiso   1.00
N5     N     0.83561   0.97201   0.54370   0.00000  Uiso   1.00
H31    H     0.88206   0.98521   0.51704   0.00000  Uiso   1.00
H32    H     0.88283   0.98400   0.57856   0.00000  Uiso   1.00
N6     N     0.16529   0.02915   0.46068   0.00000  Uiso   1.00
H33    H     0.11980   0.01490   0.48794   0.00000  Uiso   1.00
H34    H     0.11733   0.01865   0.42591   0.00000  Uiso   1.00
N7     N     0.71262   0.74012   0.37719   0.00000  Uiso   1.00
H35    H     0.77670   0.80271   0.38696   0.00000  Uiso   1.00
H36    H     0.72272   0.72185   0.34516   0.00000  Uiso   1.00
N8     N     0.28473   0.25848   0.62218   0.00000  Uiso   1.00
H37    H     0.21966   0.19655   0.61243   0.00000  Uiso   1.00
H38    H     0.27511   0.27742   0.65416   0.00000  Uiso   1.00
N9     N     0.84588   0.55002   0.32415   0.00000  Uiso   1.00
H39    H     0.85420   0.62081   0.30546   0.00000  Uiso   1.00
H40    H     0.77501   0.49981   0.30912   0.00000  Uiso   1.00
N10    N     0.13177   0.42020   0.67602   0.00000  Uiso   1.00
H41    H     0.11175   0.34790   0.69487   0.00000  Uiso   1.00
H42    H     0.20706   0.46183   0.69120   0.00000  Uiso   1.00
