# Generated by REPEAT Assigner based on pymatgen
data_DB0-m29_o90_o43_f0_pts.sym.24
_audit_creation_date              2022-05-24
_audit_creation_method            REPEAT_Assigner
_cell_length_a                    9.492729
_cell_length_b                    16.481321
_cell_length_c                    19.864921
_cell_angle_alpha                 102.516922
_cell_angle_beta                  85.713595
_cell_angle_gamma                 76.173074
_cell_volume                      2919.765086
_symmetry_space_group_name_H-M    P1
_symmetry_Int_Tables_number       1
loop_
    _symmetry_equiv_pos_site_id
    _symmetry_equiv_pos_as_xyz
    1  x,y,z
loop_
    _atom_site_type_symbol
    _atom_site_label
    _atom_site_fract_x
    _atom_site_fract_y
    _atom_site_fract_z
    _atom_type_partial_charge
    C   C1   0.099437  0.989397  0.739393  0.224844
    C   C2   0.105417  0.996896  0.809932  -0.214104
    H   H1   0.204288  0.004410  0.831180  0.157382
    C   C3   0.984545  0.997497  0.853887  0.075925
    C   C4   0.856810  0.991028  0.826942  -0.236057
    H   H2   0.761788  0.989841  0.859856  0.158155
    C   C5   0.849481  0.984826  0.757256  0.194028
    C   C6   0.970468  0.981958  0.712864  -0.196513
    C   C7   0.872554  0.053199  0.977178  -0.153769
    H   H3   0.776030  0.090015  0.961299  0.122223
    C   C8   0.876838  0.057279  0.047062  -0.160301
    H   H4   0.783856  0.097140  0.084070  0.128030
    C   C9   0.999961  0.012739  0.069322  0.106113
    C   C10  0.118707  0.964314  0.020675  -0.125845
    H   H5   0.214794  0.926803  0.036353  0.117380
    C   C11  0.114442  0.960266  0.950877  -0.181480
    H   H6   0.207005  0.919783  0.913904  0.131813
    C   C12  0.991155  0.004414  0.928541  0.138333
    C   C13  0.134147  0.019617  0.171011  -0.211232
    H   H7   0.227500  0.024862  0.139256  0.141822
    C   C14  0.145575  0.015471  0.238892  0.139910
    C   C15  0.026549  0.010244  0.280571  -0.237355
    H   H8   0.036356  0.008621  0.334124  0.181713
    C   C16  0.894234  0.011735  0.255048  0.095398
    C   C17  0.884672  0.013636  0.186167  -0.177490
    H   H9   0.783762  0.010804  0.165163  0.149317
    C   C18  0.005595  0.015947  0.143576  0.084837
    O   O1   0.637338  0.015492  0.279524  -0.486058
    C   C19  0.766147  0.010735  0.301206  0.514955
    O   O2   0.670201  0.845461  0.306246  -0.505139
    O   O3   0.779997  0.005261  0.365419  -0.452959
    O   O4   0.547108  0.922324  0.411319  -0.443109
    C   C20  0.638073  0.851508  0.372844  0.488822
    Fe  Fe1  0.496594  0.008468  0.355388  1.413380
    O   O5   0.328229  0.974982  0.311881  -0.558263
    O   O6   0.354078  0.073550  0.250748  -0.501080
    C   C21  0.281896  0.020515  0.267391  0.541993
    O   O7   0.464200  0.124872  0.420326  -0.573601
    O   O8   0.301691  0.070243  0.473788  -0.474307
    C   C22  0.363903  0.133056  0.472446  0.586391
    C   C23  0.307967  0.215248  0.524092  0.008964
    C   C24  0.242660  0.286264  0.500359  0.062519
    H   H10  0.241915  0.278732  0.445004  0.047651
    C   C25  0.170391  0.363492  0.546502  -0.416816
    C   C26  0.171017  0.370501  0.616954  0.108910
    H   H11  0.116847  0.430037  0.654466  0.044003
    C   C27  0.238353  0.300619  0.640989  -0.156541
    H   H12  0.235386  0.308474  0.696535  0.143787
    C   C28  0.305028  0.221895  0.595417  0.043222
    N   N1   0.010810  0.509057  0.567015  -0.253949
    N   N2   0.932226  0.573293  0.544715  -0.248453
    C   C29  0.927322  0.565800  0.476187  0.789357
    N   N3   0.003719  0.492617  0.430568  -0.262188
    N   N4   0.082268  0.428376  0.452868  -0.232656
    C   C30  0.087147  0.435856  0.521394  0.780075
    C   C31  0.844077  0.631238  0.380587  0.091684
    H   H13  0.900567  0.572214  0.343013  0.047752
    C   C32  0.774835  0.700764  0.356622  -0.145876
    H   H14  0.778436  0.693185  0.301074  0.143956
    C   C33  0.704472  0.778739  0.402320  0.050636
    C   C34  0.700986  0.785239  0.473586  0.040844
    C   C35  0.768284  0.714568  0.497282  0.033263
    H   H15  0.767969  0.721861  0.552669  0.057289
    C   C36  0.843310  0.637945  0.451075  -0.405930
    O   O9   0.659890  0.029260  0.689972  -0.531356
    O   O10  0.652082  0.918233  0.739949  -0.520263
    C   C37  0.714171  0.978240  0.729303  0.516669
    O   O11  0.544490  0.872410  0.578090  -0.562041
    O   O12  0.694581  0.932857  0.522623  -0.379095
    C   C38  0.640918  0.867058  0.525232  0.494773
    O   O13  0.343783  0.157047  0.692460  -0.515341
    O   O14  0.357649  0.979357  0.716423  -0.432048
    C   C39  0.229234  0.990396  0.694453  0.336329
    O   O15  0.447778  0.074689  0.585862  -0.484888
    C   C40  0.368479  0.148687  0.625102  0.530375
    O   O16  0.217625  0.007526  0.633394  -0.312549
    Fe  Fe2  0.499924  0.989879  0.642836  1.379195
    Br  Br1  0.958636  0.954520  0.614836  0.104638
