# Generated by REPEAT Assigner based on pymatgen
data_DB0-m9_o3_o17_f0_sra.sym.42_sqe
_audit_creation_date              2022-05-24
_audit_creation_method            REPEAT_Assigner
_cell_length_a                    6.324706
_cell_length_b                    21.780614
_cell_length_c                    25.330397
_cell_angle_alpha                 105.359868
_cell_angle_beta                  90.552948
_cell_angle_gamma                 90.629575
_cell_volume                      3364.287218
_symmetry_space_group_name_H-M    P1
_symmetry_Int_Tables_number       1
loop_
    _symmetry_equiv_pos_site_id
    _symmetry_equiv_pos_as_xyz
    1  x,y,z
loop_
    _atom_site_type_symbol
    _atom_site_label
    _atom_site_fract_x
    _atom_site_fract_y
    _atom_site_fract_z
    _atom_type_partial_charge
    O  O1   0.455129  0.434641  0.521827  -0.387746
    O  O2   0.250899  0.421272  0.457496  -0.426351
    O  O3   0.037915  0.518147  0.430198  -0.550466
    C  C1   0.368777  0.427145  0.415833  0.636464
    O  O4   0.166547  0.478104  0.569085  -0.523351
    O  O5   0.960685  0.574377  0.541389  -0.352344
    C  C2   0.338175  0.445115  0.565651  0.549137
    O  O6   0.534828  0.465594  0.422823  -0.542275
    O  O7   0.354295  0.549397  0.505922  -0.562911
    V  V1   0.077684  0.492951  0.498637  1.251298
    O  O8   0.670477  0.541034  0.578069  -0.538247
    C  C3   0.845136  0.574104  0.583817  0.517475
    O  O9   0.756927  0.572332  0.478839  -0.482935
    C  C4   0.873066  0.555644  0.433802  0.625065
    V  V2   0.578312  0.508358  0.500941  1.293908
    O  O10  0.850224  0.451702  0.491725  -0.557336
    C  C5   0.781198  0.917169  0.145756  0.003667
    H  H1   0.671040  0.955759  0.150260  0.071395
    C  C6   0.775434  0.879394  0.181588  -0.201646
    H  H2   0.662644  0.889850  0.214330  0.102270
    C  C7   0.914960  0.829803  0.176088  0.079304
    C  C8   0.061696  0.818955  0.134508  -0.105099
    H  H3   0.170405  0.779972  0.128939  0.096688
    C  C9   0.066773  0.856851  0.098522  -0.141162
    H  H4   0.179851  0.847618  0.065716  0.116042
    C  C10  0.925842  0.905925  0.104089  -0.032636
    C  C11  0.076927  0.752341  0.219728  -0.190402
    H  H5   0.220066  0.753885  0.197236  0.122825
    C  C12  0.068780  0.714352  0.255484  -0.107484
    H  H6   0.206346  0.687307  0.260107  0.114158
    C  C13  0.889664  0.712515  0.285931  0.086153
    C  C14  0.719062  0.749342  0.280217  -0.185705
    H  H7   0.575925  0.747795  0.302709  0.105494
    C  C15  0.727215  0.787336  0.244462  -0.120967
    H  H8   0.589664  0.814388  0.239839  0.120279
    C  C16  0.906307  0.789155  0.214001  0.083604
    C  C17  0.734178  0.682600  0.365366  -0.046888
    H  H9   0.625433  0.721577  0.370957  0.100938
    C  C18  0.729101  0.644648  0.401307  -0.165786
    H  H10  0.615998  0.653834  0.434107  0.108272
    C  C19  0.870100  0.595586  0.395707  -0.040974
    C  C20  0.014751  0.584397  0.354046  0.004351
    H  H11  0.124939  0.545810  0.349515  0.072465
    C  C21  0.020501  0.622220  0.318257  -0.209206
    H  H12  0.133297  0.611797  0.285516  0.103865
    C  C22  0.880967  0.671813  0.323799  0.059739
    C  C23  0.742837  0.625463  0.677634  0.048057
    C  C24  0.868749  0.625611  0.633612  -0.021993
    C  C25  0.007698  0.675384  0.635921  -0.184701
    C  C26  0.025220  0.724493  0.683165  0.107497
    C  C27  0.893217  0.725397  0.726610  0.018071
    C  C28  0.749782  0.676276  0.723604  -0.084771
    C  C29  0.167433  0.774111  0.686394  -0.008990
    C  C30  0.172523  0.825095  0.732237  -0.243964
    C  C31  0.043102  0.825440  0.775718  0.152156
    C  C32  0.903716  0.775668  0.773024  -0.068296
    C  C33  0.775122  0.776186  0.816820  0.284253
    C  C34  0.634868  0.726664  0.814149  -0.311819
    C  C35  0.617990  0.677463  0.767142  0.104295
    C  C36  0.055743  0.875209  0.822325  -0.159238
    C  C37  0.927575  0.875640  0.866081  -0.036683
    C  C38  0.786047  0.826363  0.863296  -0.293757
    H  H13  0.640362  0.584975  0.675851  0.028836
    H  H14  0.096157  0.676620  0.599972  0.074899
    H  H15  0.282999  0.864023  0.734769  0.119882
    H  H16  0.167681  0.913759  0.824782  0.109945
    H  H17  0.686501  0.826483  0.897773  0.134437
    H  H18  0.532735  0.727483  0.848295  0.147352
    C  C39  0.566403  0.177196  0.140906  -0.291705
    C  C40  0.427815  0.126286  0.133529  -0.025831
    C  C41  0.279460  0.124945  0.172716  -0.149249
    C  C42  0.267846  0.174605  0.219219  0.142082
    C  C43  0.405043  0.225778  0.226588  -0.043929
    C  C44  0.554765  0.227037  0.187552  0.268336
    C  C45  0.118008  0.173224  0.258089  -0.191555
    C  C46  0.105316  0.223169  0.304531  -0.209658
    C  C47  0.242290  0.274495  0.311979  0.258564
    C  C48  0.392024  0.275759  0.272948  -0.037458
    C  C49  0.529217  0.326935  0.280322  0.137923
    C  C50  0.679075  0.328309  0.241452  -0.190096
    C  C51  0.691759  0.278362  0.195006  -0.214228
    C  C52  0.230602  0.324334  0.358617  -0.282077
    C  C53  0.369143  0.375251  0.366003  -0.037562
    C  C54  0.517555  0.376600  0.326827  -0.139187
    H  H19  0.681898  0.178447  0.110013  0.130995
    H  H20  0.170265  0.085074  0.166584  0.102054
    H  H21  0.010456  0.132982  0.252126  0.114590
    H  H22  0.988152  0.222084  0.335073  0.131047
    H  H23  0.115088  0.323075  0.389504  0.131246
    H  H24  0.626739  0.416475  0.332966  0.095811
    H  H25  0.786638  0.368549  0.247416  0.116111
    H  H26  0.808930  0.279448  0.164466  0.131946
    C  C55  0.278359  0.139464  0.900511  -0.144783
    H  H27  0.164317  0.144949  0.932890  0.114494
    C  C56  0.266733  0.177105  0.864365  -0.092407
    H  H28  0.143971  0.212141  0.869358  0.090120
    C  C57  0.414408  0.171131  0.823337  0.033045
    C  C58  0.571743  0.126578  0.818503  -0.152747
    H  H29  0.685963  0.119872  0.786189  0.091503
    C  C59  0.582500  0.089012  0.854434  -0.037089
    H  H30  0.706528  0.054384  0.850431  0.086448
    C  C60  0.436962  0.095451  0.895587  -0.008400
    C  C61  0.581294  0.219331  0.755534  -0.206372
    H  H31  0.728812  0.197175  0.760870  0.142257
    C  C62  0.572973  0.257162  0.719637  -0.116334
    H  H32  0.713681  0.263462  0.697769  0.101001
    C  C63  0.388752  0.287885  0.713002  0.069626
    C  C64  0.212762  0.280044  0.742684  -0.114496
    H  H33  0.065066  0.302101  0.737353  0.097871
    C  C65  0.221209  0.242293  0.778637  -0.205944
    H  H34  0.080642  0.236017  0.800571  0.124929
    C  C66  0.405417  0.211603  0.785274  0.141724
    C  C67  0.221578  0.372825  0.679768  -0.253806
    H  H35  0.106166  0.379102  0.711764  0.169069
    C  C68  0.211127  0.410673  0.644070  0.050148
    H  H36  0.085878  0.444858  0.647861  0.044154
    C  C69  0.358391  0.405059  0.603422  -0.046162
    C  C70  0.517878  0.361342  0.598616  -0.105725
    H  H37  0.633202  0.356438  0.566594  0.109592
    C  C71  0.528905  0.323284  0.634442  -0.175291
    H  H38  0.652498  0.288517  0.629507  0.104625
    C  C72  0.379940  0.328603  0.675104  0.125938
    O  O11  0.261672  0.036025  0.076767  -0.552696
    O  O12  0.629993  0.023108  0.930473  -0.564505
    O  O13  0.835550  0.926913  0.958309  -0.355300
    C  C73  0.458101  0.055940  0.933762  0.569606
    O  O14  0.545682  0.080180  0.042018  -0.425715
    O  O15  0.758363  0.983358  0.069496  -0.549903
    C  C74  0.427976  0.074368  0.083716  0.634377
    O  O16  0.341658  0.066738  0.977681  -0.396016
    O  O17  0.442003  0.952032  0.993785  -0.572755
    V  V3   0.718746  0.008407  0.000983  1.278996
    O  O18  0.039077  0.929019  0.020904  -0.446388
    C  C75  0.923027  0.945809  0.065942  0.587002
    O  O19  0.125938  0.960127  0.921604  -0.558192
    C  C76  0.951243  0.927099  0.915880  0.615609
    V  V4   0.217967  0.992882  0.998732  1.307912
    O  O20  0.946269  0.049615  0.007838  -0.562626
    C  C77  0.314192  0.773634  0.642088  0.023895
    C  C78  0.412146  0.718165  0.614524  0.075382
    C  C79  0.552834  0.718891  0.573421  -0.428671
    C  C80  0.597726  0.775046  0.560192  0.452903
    O  O21  0.734436  0.775650  0.520087  -0.275087
    C  C81  0.779848  0.831537  0.507154  0.034153
    C  C82  0.504117  0.830707  0.588583  -0.286794
    C  C83  0.364114  0.830075  0.629829  -0.129561
    H  H39  0.387497  0.674616  0.626515  0.073362
    H  H40  0.630003  0.675518  0.552014  0.229655
    H  H41  0.895006  0.822541  0.473312  0.055885
    H  H42  0.848631  0.866400  0.543551  0.022798
    H  H43  0.632663  0.850911  0.494131  0.023092
    H  H44  0.540919  0.874882  0.578616  0.128818
    H  H45  0.291199  0.873796  0.652147  0.117948
    C  C84  0.457343  0.627911  0.764053  -0.096882
    C  C85  0.338731  0.604455  0.716800  0.162623
    C  C86  0.183184  0.559066  0.715009  -0.473585
    C  C87  0.144890  0.537337  0.760473  0.524658
    O  O22  0.993681  0.493017  0.758632  -0.309057
    C  C88  0.954645  0.471781  0.803952  -0.000852
    C  C89  0.260073  0.561722  0.808036  -0.351401
    C  C90  0.414505  0.607477  0.809983  -0.058131
    H  H46  0.359378  0.623625  0.681965  0.047777
    H  H47  0.089161  0.541227  0.678157  0.190976
    H  H48  0.825404  0.435556  0.794556  0.066047
    H  H49  0.907182  0.512359  0.838246  0.042016
    H  H50  0.099739  0.450238  0.815743  0.022312
    H  H51  0.228550  0.545224  0.843892  0.145068
    H  H52  0.503843  0.626853  0.847410  0.107679
