data_DB0-m3_o11_o13_f0_pcu.sym.2_repeat
_audit_creation_date              2024-02-23
_audit_creation_method            'Materials Studio'
_symmetry_space_group_name_H-M    'P1'
_symmetry_Int_Tables_number       1
_symmetry_cell_setting            triclinic
loop_
_symmetry_equiv_pos_as_xyz
  x,y,z
_cell_length_a                    13.0837
_cell_length_b                    11.1345
_cell_length_c                    9.9169
_cell_angle_alpha                 89.9974
_cell_angle_beta                  95.3606
_cell_angle_gamma                 90.0059
loop_
_atom_site_label
_atom_site_type_symbol
_atom_site_fract_x
_atom_site_fract_y
_atom_site_fract_z
_atom_site_U_iso_or_equiv
_atom_site_adp_type
_atom_site_occupancy
O1     O     0.49657   0.33510   0.61401   0.00000  Uiso   1.00
O2     O     0.49720   0.33397   0.38170   0.00000  Uiso   1.00
C1     C     0.49607   0.27846   0.49811   0.00000  Uiso   1.00
O3     O     0.34585   0.51757   0.58925   0.00000  Uiso   1.00
O4     O     0.34539   0.51507   0.35691   0.00000  Uiso   1.00
C2     C     0.29757   0.51640   0.46739   0.00000  Uiso   1.00
Zn1    Zn    0.49832   0.51448   0.64808   0.00000  Uiso   1.00
Zn2    Zn    0.49866   0.51233   0.34137   0.00000  Uiso   1.00
O5     O     0.50155   0.69267   0.60830   0.00000  Uiso   1.00
O6     O     0.50009   0.69201   0.37501   0.00000  Uiso   1.00
O7     O     0.65180   0.51173   0.63283   0.00000  Uiso   1.00
O8     O     0.65109   0.51193   0.39992   0.00000  Uiso   1.00
C3     C     0.50123   0.74826   0.49185   0.00000  Uiso   1.00
C4     C     0.69967   0.50874   0.52177   0.00000  Uiso   1.00
C5     C     0.81280   0.50587   0.53357   0.00000  Uiso   1.00
C6     C     0.18524   0.51013   0.45447   0.00000  Uiso   1.00
C7     C     0.02879   0.45344   0.32671   0.00000  Uiso   1.00
C8     C     0.13355   0.46931   0.33590   0.00000  Uiso   1.00
C9     C     0.13037   0.54073   0.56183   0.00000  Uiso   1.00
C10    C     0.02475   0.52849   0.55134   0.00000  Uiso   1.00
C11    C     0.97338   0.48035   0.43573   0.00000  Uiso   1.00
C12    C     0.86779   0.46049   0.43043   0.00000  Uiso   1.00
C13    C     0.86556   0.55527   0.64742   0.00000  Uiso   1.00
C14    C     0.97095   0.56337   0.65776   0.00000  Uiso   1.00
H1     H     0.82472   0.58971   0.72899   0.00000  Uiso   1.00
H2     H     0.99230   0.42210   0.23109   0.00000  Uiso   1.00
H3     H     0.01083   0.60165   0.74806   0.00000  Uiso   1.00
H4     H     0.17463   0.44575   0.25006   0.00000  Uiso   1.00
H5     H     0.16970   0.57539   0.65439   0.00000  Uiso   1.00
C15    C     0.49758   0.94800   0.38554   0.00000  Uiso   1.00
C16    C     0.50299   0.87972   0.49696   0.00000  Uiso   1.00
H6     H     0.49316   0.90508   0.28711   0.00000  Uiso   1.00
H7     H     0.50902   0.91838   0.59710   0.00000  Uiso   1.00
C17    C     0.49832   0.08110   0.38836   0.00000  Uiso   1.00
C18    C     0.49481   0.14686   0.50117   0.00000  Uiso   1.00
H8     H     0.50097   0.12635   0.29203   0.00000  Uiso   1.00
H9     H     0.49036   0.10640   0.59929   0.00000  Uiso   1.00
C19    C     0.56481   0.57273   0.92923   0.00000  Uiso   1.00
N1     N     0.49657   0.51870   0.84950   0.00000  Uiso   1.00
H10    H     0.62917   0.61559   0.88735   0.00000  Uiso   1.00
H11    H     0.42996   0.49416   0.88924   0.00000  Uiso   1.00
C20    C     0.55525   0.58393   0.07650   0.00000  Uiso   1.00
N2     N     0.50169   0.50976   0.14010   0.00000  Uiso   1.00
H12    H     0.59809   0.65399   0.13268   0.00000  Uiso   1.00
H13    H     0.47423   0.43498   0.08813   0.00000  Uiso   1.00
C21    C     0.81705   0.38026   0.32203   0.00000  Uiso   1.00
H14    H     0.86848   0.30464   0.30152   0.00000  Uiso   1.00
H15    H     0.74821   0.33555   0.35554   0.00000  Uiso   1.00
H16    H     0.79691   0.43224   0.22783   0.00000  Uiso   1.00
