# Generated by REPEAT Assigner based on pymatgen
data_DB0-m2_o13_o18_f0_pcu.sym.40
_audit_creation_date              2022-05-24
_audit_creation_method            REPEAT_Assigner
_cell_length_a                    11.491302
_cell_length_b                    13.035590
_cell_length_c                    15.840211
_cell_angle_alpha                 91.559000
_cell_angle_beta                  76.567622
_cell_angle_gamma                 99.388785
_cell_volume                      2276.832667
_symmetry_space_group_name_H-M    P1
_symmetry_Int_Tables_number       1
loop_
    _symmetry_equiv_pos_site_id
    _symmetry_equiv_pos_as_xyz
    1  x,y,z
loop_
    _atom_site_type_symbol
    _atom_site_label
    _atom_site_fract_x
    _atom_site_fract_y
    _atom_site_fract_z
    _atom_type_partial_charge
    O   O1   0.420225  0.655802  0.493195  -0.652655
    O   O2   0.583628  0.367077  0.506910  -0.644194
    O   O3   0.612695  0.668287  0.515145  -0.613513
    O   O4   0.390652  0.354544  0.485904  -0.656267
    C   C1   0.521903  0.710874  0.503006  0.772283
    C   C2   0.481593  0.312002  0.497757  0.788829
    O   O5   0.346372  0.494369  0.617867  -0.593090
    O   O6   0.657227  0.528978  0.382707  -0.502777
    O   O7   0.541781  0.513158  0.633651  -0.556606
    O   O8   0.461820  0.509028  0.366943  -0.550229
    C   C3   0.424270  0.498871  0.666940  0.700406
    C   C4   0.579308  0.522945  0.333542  0.646962
    Cu  Cu1  0.388074  0.504133  0.491336  0.897509
    Cu  Cu2  0.615542  0.518733  0.509242  0.792680
    C   C5   0.379905  0.484484  0.762533  -0.176827
    C   C6   0.623483  0.533175  0.237586  -0.209424
    C   C7   0.229924  0.432558  0.892642  -0.295363
    C   C8   0.774717  0.572537  0.105801  -0.323441
    C   C9   0.260317  0.441762  0.802884  0.095025
    C   C10  0.744980  0.565658  0.195133  0.158862
    C   C11  0.464132  0.510856  0.813028  -0.118552
    C   C12  0.537665  0.510500  0.187736  -0.041647
    C   C13  0.434708  0.493841  0.902632  0.025353
    C   C14  0.568077  0.519875  0.097224  -0.042233
    C   C15  0.315384  0.457405  0.941165  0.236583
    C   C16  0.688438  0.550828  0.057775  0.256402
    C   C17  0.520258  0.512661  0.954698  0.019981
    C   C18  0.482534  0.499568  0.045103  0.114710
    C   C19  0.360027  0.465911  0.080932  -0.227298
    C   C20  0.643372  0.541491  0.918236  -0.154726
    C   C21  0.278882  0.444265  0.029432  -0.219511
    C   C22  0.725292  0.560550  0.969304  -0.253247
    H   H1   0.184933  0.416482  0.059765  0.133736
    H   H2   0.820169  0.583191  0.938642  0.140816
    H   H3   0.446256  0.485421  0.222450  0.068443
    H   H4   0.552853  0.547024  0.779754  0.090613
    H   H5   0.138860  0.404212  0.927983  0.099691
    H   H6   0.867718  0.597985  0.071969  0.134650
    H   H7   0.321610  0.453079  0.149007  0.149983
    H   H8   0.681944  0.548339  0.849690  0.134267
    C   C23  0.472535  0.198266  0.495019  -0.062804
    C   C24  0.530441  0.824593  0.506301  -0.046771
    C   C25  0.568936  0.977834  0.587964  -0.162014
    C   C26  0.431473  0.044434  0.414752  -0.166813
    C   C27  0.571799  0.873977  0.573780  -0.206275
    C   C28  0.429214  0.148408  0.428504  -0.181192
    C   C29  0.492556  0.882438  0.447550  -0.031869
    C   C30  0.510502  0.140640  0.553866  -0.058389
    C   C31  0.481984  0.987281  0.465604  0.069532
    C   C32  0.519904  0.035440  0.536423  0.112311
    H   H9   0.396381  0.191876  0.384278  0.123882
    H   H10  0.603698  0.830198  0.618330  0.124595
    H   H11  0.603592  0.010284  0.642154  0.141735
    H   H12  0.394961  0.011383  0.361508  0.137135
    N   N1   0.217355  0.493947  0.478710  -0.058230
    N   N2   0.786260  0.528921  0.521876  -0.015618
    C   C33  0.950125  0.605137  0.581577  -0.231759
    C   C34  0.053341  0.417354  0.419321  -0.292136
    C   C35  0.830498  0.596740  0.576849  -0.072208
    C   C36  0.173114  0.426106  0.423755  -0.024034
    C   C37  0.858741  0.470447  0.469280  -0.069594
    C   C38  0.144673  0.551891  0.531739  -0.120559
    C   C39  0.978721  0.477439  0.472266  0.183847
    C   C40  0.024701  0.544927  0.528737  0.231355
    H   H13  0.180755  0.604537  0.576687  0.143500
    H   H14  0.822591  0.417592  0.424499  0.125033
    H   H15  0.231371  0.378452  0.382726  0.159171
    H   H16  0.772322  0.644580  0.617724  0.159616
    H   H17  0.984843  0.659225  0.626223  0.125477
    H   H18  0.018616  0.363251  0.374688  0.148955
    C   C41  0.847607  0.597441  0.239254  -0.262368
    C   C42  0.845044  0.706458  0.275627  0.372499
    C   C43  0.952842  0.739644  0.315614  -0.410890
    H   H19  0.949602  0.685194  0.368959  0.082713
    H   H20  0.038290  0.739980  0.265559  0.080812
    H   H21  0.949769  0.819076  0.342021  0.074527
    H   H22  0.849816  0.761271  0.222143  -0.029645
    H   H23  0.760559  0.709602  0.325568  -0.019872
    H   H24  0.849418  0.539954  0.288732  0.078834
    H   H25  0.934750  0.599540  0.190848  0.057935
    C   C44  0.166739  0.404616  0.750730  -0.040267
    C   C45  0.046205  0.346802  0.802251  0.173084
    C   C46  0.966487  0.306059  0.740711  -0.264139
    H   H26  0.010146  0.249813  0.695321  0.052146
    H   H27  0.877785  0.266287  0.778733  0.055454
    H   H28  0.951621  0.371575  0.703401  0.041245
    H   H29  0.061207  0.279496  0.837460  -0.014411
    H   H30  0.998204  0.400370  0.848078  -0.026281
    H   H31  0.146967  0.472628  0.719236  0.040820
    H   H32  0.204272  0.349947  0.700847  0.081637
    C   C47  0.531842  0.188859  0.638192  -0.134781
    C   C48  0.429490  0.145319  0.714448  0.313610
    C   C49  0.458867  0.185762  0.798968  -0.358588
    H   H33  0.542152  0.158590  0.807238  0.073792
    H   H34  0.472853  0.271923  0.798629  0.090806
    H   H35  0.382406  0.155956  0.853802  0.069823
    H   H36  0.344596  0.171003  0.707903  -0.058446
    H   H37  0.414676  0.059326  0.716630  -0.058724
    H   H38  0.621421  0.178193  0.648104  0.035903
    H   H39  0.532980  0.273443  0.639847  0.070615
    C   C50  0.473039  0.834993  0.362533  -0.138751
    C   C51  0.574141  0.882022  0.286739  0.366092
    C   C52  0.552351  0.834350  0.202293  -0.405785
    H   H40  0.550794  0.749206  0.204064  0.090809
    H   H41  0.464641  0.850435  0.192292  0.081408
    H   H42  0.626469  0.868984  0.147738  0.080801
    H   H43  0.579880  0.967250  0.281911  -0.057311
    H   H44  0.661906  0.865403  0.296048  -0.105094
    H   H45  0.475481  0.750899  0.359865  0.069720
    H   H46  0.382632  0.843354  0.352817  0.038209
