# Generated by REPEAT Assigner based on pymatgen
data_DB0-m3_o51_o159_f0_fsc.sym.38
_audit_creation_date              2022-05-24
_audit_creation_method            REPEAT_Assigner
_cell_length_a                    13.115907
_cell_length_b                    13.487808
_cell_length_c                    8.563576
_cell_angle_alpha                 90.000000
_cell_angle_beta                  93.382057
_cell_angle_gamma                 90.000000
_cell_volume                      1512.299494
_symmetry_space_group_name_H-M    P1
_symmetry_Int_Tables_number       1
loop_
    _symmetry_equiv_pos_site_id
    _symmetry_equiv_pos_as_xyz
    1  x,y,z
loop_
    _atom_site_type_symbol
    _atom_site_label
    _atom_site_fract_x
    _atom_site_fract_y
    _atom_site_fract_z
    _atom_type_partial_charge
    C   C1   0.695966  0.004359  0.149096  0.107510
    C   C2   0.800576  0.994429  0.162050  -0.147962
    C   C3   0.855678  0.995737  0.028945  0.078345
    C   C4   0.804080  0.997375  0.882124  -0.125040
    H   H1   0.844036  0.990847  0.776077  0.140264
    C   C5   0.698983  0.006392  0.871243  0.075824
    C   C6   0.647276  0.016284  0.004580  -0.350227
    C   C7   0.967741  0.991511  0.048867  -0.033095
    C   C8   0.028191  0.024206  0.939581  -0.416183
    H   H2   0.000638  0.961717  0.157713  0.070387
    H   H3   0.995581  0.053123  0.830103  0.164031
    C   C9   0.194939  0.014690  0.825334  -0.500201
    C   C10  0.298077  0.994813  0.837534  0.089618
    C   C11  0.345259  0.976693  0.981980  -0.207621
    C   C12  0.295159  0.992862  0.115862  0.006541
    C   C13  0.191587  0.012004  0.105102  -0.360087
    H   H4   0.152606  0.023881  0.211035  0.158230
    C   C14  0.140017  0.016315  0.958574  0.452135
    H   H5   0.839572  0.989362  0.276489  0.130296
    H   H6   0.566616  0.029513  0.995205  0.165865
    H   H7   0.156574  0.024823  0.711246  0.289421
    H   H8   0.424351  0.956202  0.990982  0.122749
    O   O1   0.604941  0.914371  0.335395  -0.657836
    O   O2   0.596370  0.085818  0.332034  -0.654582
    C   C15  0.633478  0.001494  0.284275  0.735060
    O   O3   0.386123  0.082753  0.319030  -0.723249
    O   O4   0.394529  0.912217  0.319508  -0.738396
    C   C16  0.356629  0.995832  0.264135  0.875991
    O   O5   0.388985  0.084920  0.650680  -0.715627
    O   O6   0.397329  0.912034  0.653885  -0.716531
    C   C17  0.360957  0.997183  0.702284  0.811519
    O   O7   0.607619  0.916561  0.668791  -0.659132
    O   O8   0.599303  0.085675  0.668037  -0.650212
    C   C18  0.637960  0.002889  0.722939  0.741756
    Zn  Zn1  0.493473  0.111546  0.492302  1.031129
    Zn  Zn2  0.501571  0.887073  0.494590  1.028917
    C   C19  0.414174  0.706996  0.488662  -0.209400
    C   C20  0.405282  0.294878  0.485369  -0.184996
    N   N1   0.503604  0.756934  0.495748  0.068367
    N   N2   0.492795  0.241795  0.491360  0.051165
    C   C21  0.592398  0.706197  0.502355  0.005536
    C   C22  0.583473  0.290195  0.497205  0.009773
    C   C23  0.592871  0.604584  0.501547  -0.188611
    C   C24  0.587769  0.391418  0.497781  -0.209476
    C   C25  0.502418  0.551319  0.493956  0.055255
    C   C26  0.499930  0.447713  0.492576  0.103880
    C   C27  0.412231  0.604062  0.487810  0.179433
    C   C28  0.407639  0.398114  0.485904  0.148004
    C   C29  0.317782  0.451693  0.479961  -0.191131
    C   C30  0.320095  0.554100  0.480714  -0.183128
    H   H9   0.332770  0.256569  0.480489  0.190498
    H   H10  0.343184  0.747895  0.483336  0.191484
    H   H11  0.245087  0.413704  0.474627  0.137352
    H   H12  0.249120  0.595033  0.475904  0.130324
    H   H13  0.667271  0.571443  0.507339  0.105077
    H   H14  0.663375  0.421805  0.502730  0.118129
    C   C31  0.691690  0.755342  0.510206  0.360505
    C   C32  0.742701  0.767683  0.375109  -0.258819
    C   C33  0.842607  0.799977  0.383009  -0.096632
    C   C34  0.892707  0.817700  0.526295  0.063686
    Cl  Cl1  0.020023  0.857430  0.536454  -0.122481
    C   C35  0.843448  0.801169  0.661676  -0.096664
    C   C36  0.743562  0.768794  0.653609  -0.265357
    H   H15  0.704762  0.750524  0.262854  0.125309
    H   H16  0.882224  0.809665  0.276894  0.099191
    H   H17  0.883759  0.811687  0.774224  0.101013
    H   H18  0.706312  0.752472  0.759942  0.127884
    C   C37  0.682214  0.239755  0.505277  0.295644
    C   C38  0.734999  0.228999  0.648603  -0.183761
    C   C39  0.834491  0.195637  0.657131  -0.213938
    C   C40  0.883137  0.176523  0.522029  0.145603
    Cl  Cl2  0.009968  0.135379  0.532541  -0.167298
    C   C41  0.833028  0.193516  0.378568  -0.141422
    C   C42  0.733674  0.227406  0.370432  -0.215020
    H   H19  0.698378  0.247360  0.754699  0.118727
    H   H20  0.874801  0.186367  0.769867  0.141217
    H   H21  0.872261  0.182135  0.272501  0.108041
    H   H22  0.696020  0.244514  0.257937  0.127432
