data_DB0-m3_o11_o29_f0_pcu.sym.97_repeat
_audit_creation_date              2024-02-23
_audit_creation_method            'Materials Studio'
_symmetry_space_group_name_H-M    'P1'
_symmetry_Int_Tables_number       1
_symmetry_cell_setting            triclinic
loop_
_symmetry_equiv_pos_as_xyz
  x,y,z
_cell_length_a                    27.6304
_cell_length_b                    11.1235
_cell_length_c                    9.9065
_cell_angle_alpha                 89.9974
_cell_angle_beta                  89.9930
_cell_angle_gamma                 89.9936
loop_
_atom_site_label
_atom_site_type_symbol
_atom_site_fract_x
_atom_site_fract_y
_atom_site_fract_z
_atom_site_U_iso_or_equiv
_atom_site_adp_type
_atom_site_occupancy
O1     O     0.50335   0.31182   0.60049   0.00000  Uiso   1.00
O2     O     0.50487   0.31075   0.36790   0.00000  Uiso   1.00
C1     C     0.50459   0.25516   0.48453   0.00000  Uiso   1.00
O3     O     0.42871   0.48505   0.59012   0.00000  Uiso   1.00
O4     O     0.43057   0.48459   0.35760   0.00000  Uiso   1.00
C2     C     0.40700   0.48141   0.47251   0.00000  Uiso   1.00
Zn1    Zn    0.50025   0.49128   0.63408   0.00000  Uiso   1.00
Zn2    Zn    0.50306   0.48917   0.32702   0.00000  Uiso   1.00
O5     O     0.49860   0.66961   0.59361   0.00000  Uiso   1.00
O6     O     0.50080   0.66897   0.36026   0.00000  Uiso   1.00
O7     O     0.57276   0.49710   0.60383   0.00000  Uiso   1.00
O8     O     0.57464   0.49499   0.37065   0.00000  Uiso   1.00
C3     C     0.49895   0.72523   0.47702   0.00000  Uiso   1.00
C4     C     0.59634   0.49761   0.48853   0.00000  Uiso   1.00
C5     C     0.17717   0.38760   0.43913   0.00000  Uiso   1.00
O9     O     0.20127   0.28541   0.41228   0.00000  Uiso   1.00
N1     N     0.20206   0.48958   0.46236   0.00000  Uiso   1.00
C6     C     0.17855   0.59338   0.48673   0.00000  Uiso   1.00
C7     C     0.28016   0.54964   0.37079   0.00000  Uiso   1.00
C8     C     0.32999   0.54419   0.37240   0.00000  Uiso   1.00
C9     C     0.32722   0.41160   0.56307   0.00000  Uiso   1.00
C10    C     0.27724   0.41787   0.56042   0.00000  Uiso   1.00
C11    C     0.25366   0.48656   0.46499   0.00000  Uiso   1.00
C12    C     0.10231   0.49269   0.46732   0.00000  Uiso   1.00
C13    C     0.12711   0.38805   0.44073   0.00000  Uiso   1.00
C14    C     0.10182   0.28372   0.41785   0.00000  Uiso   1.00
C15    C     0.12845   0.59602   0.49024   0.00000  Uiso   1.00
C16    C     0.35392   0.47698   0.46900   0.00000  Uiso   1.00
H1     H     0.25595   0.36640   0.63131   0.00000  Uiso   1.00
H2     H     0.12026   0.19965   0.39948   0.00000  Uiso   1.00
C17    C     0.64943   0.50019   0.49062   0.00000  Uiso   1.00
C18    C     0.97565   0.39285   0.43897   0.00000  Uiso   1.00
C19    C     0.97721   0.59781   0.51790   0.00000  Uiso   1.00
C20    C     0.95149   0.49577   0.48087   0.00000  Uiso   1.00
C21    C     0.94833   0.29566   0.39345   0.00000  Uiso   1.00
C22    C     0.89870   0.29874   0.39581   0.00000  Uiso   1.00
C23    C     0.87489   0.39854   0.44332   0.00000  Uiso   1.00
C24    C     0.90114   0.49668   0.48558   0.00000  Uiso   1.00
C25    C     0.87645   0.59579   0.53229   0.00000  Uiso   1.00
C26    C     0.82635   0.59557   0.53609   0.00000  Uiso   1.00
N2     N     0.80138   0.49894   0.49294   0.00000  Uiso   1.00
C27    C     0.82485   0.40102   0.44699   0.00000  Uiso   1.00
C28    C     0.72431   0.51171   0.61194   0.00000  Uiso   1.00
C29    C     0.67435   0.51077   0.61119   0.00000  Uiso   1.00
C30    C     0.67507   0.49093   0.37111   0.00000  Uiso   1.00
C31    C     0.72492   0.49086   0.37232   0.00000  Uiso   1.00
C32    C     0.74975   0.50098   0.49255   0.00000  Uiso   1.00
O10    O     0.79935   0.30455   0.40685   0.00000  Uiso   1.00
C33    C     0.02630   0.38967   0.44232   0.00000  Uiso   1.00
C34    C     0.05196   0.49385   0.47144   0.00000  Uiso   1.00
C35    C     0.02771   0.59905   0.50503   0.00000  Uiso   1.00
C36    C     0.05217   0.28419   0.41860   0.00000  Uiso   1.00
H3     H     0.65521   0.51824   0.70596   0.00000  Uiso   1.00
H4     H     0.74344   0.51881   0.70680   0.00000  Uiso   1.00
H5     H     0.87909   0.22130   0.35919   0.00000  Uiso   1.00
H6     H     0.96383   0.21579   0.35042   0.00000  Uiso   1.00
H7     H     0.03546   0.19789   0.40450   0.00000  Uiso   1.00
O11    O     0.20405   0.69384   0.51160   0.00000  Uiso   1.00
C37    C     0.10443   0.70161   0.51648   0.00000  Uiso   1.00
H8     H     0.35028   0.59574   0.29923   0.00000  Uiso   1.00
H9     H     0.26198   0.60281   0.29480   0.00000  Uiso   1.00
H10    H     0.12387   0.78473   0.53205   0.00000  Uiso   1.00
C38    C     0.95158   0.69596   0.56834   0.00000  Uiso   1.00
C39    C     0.90195   0.69466   0.57530   0.00000  Uiso   1.00
O12    O     0.80230   0.69327   0.57934   0.00000  Uiso   1.00
C40    C     0.05481   0.70342   0.52385   0.00000  Uiso   1.00
H11    H     0.96858   0.77532   0.60801   0.00000  Uiso   1.00
H12    H     0.65666   0.48256   0.27536   0.00000  Uiso   1.00
H13    H     0.88368   0.77289   0.61510   0.00000  Uiso   1.00
H14    H     0.74449   0.48350   0.27818   0.00000  Uiso   1.00
H15    H     0.03900   0.79039   0.54073   0.00000  Uiso   1.00
C41    C     0.50317   0.92483   0.37126   0.00000  Uiso   1.00
C42    C     0.49783   0.85682   0.48159   0.00000  Uiso   1.00
H16    H     0.50716   0.88175   0.27380   0.00000  Uiso   1.00
H17    H     0.49260   0.89604   0.58015   0.00000  Uiso   1.00
C43    C     0.50307   0.05797   0.37401   0.00000  Uiso   1.00
C44    C     0.50567   0.12343   0.48747   0.00000  Uiso   1.00
H18    H     0.50137   0.10341   0.27740   0.00000  Uiso   1.00
H19    H     0.50872   0.08237   0.58583   0.00000  Uiso   1.00
C45    C     0.52641   0.56353   0.90477   0.00000  Uiso   1.00
N3     N     0.49808   0.49544   0.83585   0.00000  Uiso   1.00
H20    H     0.55265   0.61910   0.85264   0.00000  Uiso   1.00
H21    H     0.46959   0.45675   0.88627   0.00000  Uiso   1.00
C46    C     0.52247   0.57325   0.05339   0.00000  Uiso   1.00
N4     N     0.50592   0.48637   0.12529   0.00000  Uiso   1.00
H22    H     0.53579   0.65371   0.10258   0.00000  Uiso   1.00
H23    H     0.49952   0.40650   0.07647   0.00000  Uiso   1.00
C47    C     0.35029   0.32865   0.65909   0.00000  Uiso   1.00
C48    C     0.33290   0.30418   0.78628   0.00000  Uiso   1.00
C49    C     0.36339   0.22050   0.83825   0.00000  Uiso   1.00
C50    C     0.39703   0.19889   0.73918   0.00000  Uiso   1.00
O13    O     0.38916   0.26400   0.62941   0.00000  Uiso   1.00
H24    H     0.30189   0.34346   0.83609   0.00000  Uiso   1.00
H25    H     0.36153   0.17929   0.93695   0.00000  Uiso   1.00
H26    H     0.42658   0.13574   0.74842   0.00000  Uiso   1.00
