# Generated by REPEAT Assigner based on pymatgen
data_DB0-m3_o470_o159_f0_fsc.sym.29_sqe
_audit_creation_date              2022-05-24
_audit_creation_method            REPEAT_Assigner
_cell_length_a                    11.050887
_cell_length_b                    13.369135
_cell_length_c                    8.678000
_cell_angle_alpha                 90.000000
_cell_angle_beta                  102.269554
_cell_angle_gamma                 90.000000
_cell_volume                      1252.809822
_symmetry_space_group_name_H-M    P1
_symmetry_Int_Tables_number       1
loop_
    _symmetry_equiv_pos_site_id
    _symmetry_equiv_pos_as_xyz
    1  x,y,z
loop_
    _atom_site_type_symbol
    _atom_site_label
    _atom_site_fract_x
    _atom_site_fract_y
    _atom_site_fract_z
    _atom_type_partial_charge
    C   C1   0.254515  0.013972  0.082599  -0.173314
    C   C2   0.319688  0.028114  0.965090  -0.073296
    C   C3   0.265086  0.013520  0.808547  -0.096444
    C   C4   0.138916  0.000673  0.769625  -0.302058
    C   C5   0.069460  0.997866  0.885987  0.315703
    C   C6   0.127790  0.000543  0.043268  0.077851
    C   C7   0.941775  0.991969  0.846096  -0.380098
    C   C8   0.872290  0.992944  0.960218  0.059383
    C   C9   0.930515  0.991967  0.117252  0.288992
    C   C10  0.058730  0.994371  0.158754  -0.379680
    C   C11  0.744287  0.991836  0.919057  -0.150792
    C   C12  0.676700  0.987186  0.034909  -0.149856
    C   C13  0.732823  0.993647  0.191648  -0.088276
    C   C14  0.859845  0.992358  0.231549  -0.221321
    H   H1   0.415073  0.048477  0.998258  0.093791
    H   H2   0.096563  0.997777  0.647053  0.151946
    H   H3   0.578988  0.977268  0.000475  0.136989
    H   H4   0.105032  0.996626  0.281460  0.161027
    H   H5   0.894712  0.986462  0.725918  0.174706
    O   O1   0.640591  0.085377  0.695765  -0.727011
    O   O2   0.624837  0.913560  0.692486  -0.789231
    C   C15  0.674072  0.996849  0.756037  0.984054
    O   O3   0.370200  0.921309  0.636439  -0.743912
    O   O4   0.386242  0.093129  0.643276  -0.737331
    C   C16  0.341278  0.009368  0.686981  0.901721
    O   O5   0.358064  0.921376  0.306198  -0.729405
    O   O6   0.374068  0.093654  0.309068  -0.739285
    C   C17  0.325528  0.009952  0.245264  0.919176
    O   O7   0.628460  0.085596  0.364263  -0.738185
    O   O8   0.612265  0.914074  0.357167  -0.787671
    C   C18  0.657535  0.997730  0.313926  0.975548
    Zn  Zn1  0.491590  0.893391  0.498149  1.054987
    Zn  Zn2  0.508059  0.113636  0.503305  1.024535
    C   C19  0.405020  0.293956  0.482018  -0.215118
    C   C20  0.382659  0.706720  0.475437  -0.285307
    N   N1   0.513470  0.244694  0.504749  0.204239
    N   N2   0.486256  0.762308  0.496667  0.227803
    C   C21  0.620781  0.295203  0.526930  -0.197312
    C   C22  0.597874  0.718000  0.519971  -0.143838
    C   C23  0.621317  0.398425  0.526625  -0.153933
    C   C24  0.609156  0.615630  0.522746  -0.188411
    C   C25  0.510431  0.451382  0.503238  0.049737
    C   C26  0.504483  0.555983  0.501393  0.052180
    C   C27  0.401704  0.397091  0.480904  0.217421
    C   C28  0.390297  0.603275  0.477462  0.247776
    C   C29  0.283081  0.547699  0.455506  -0.231741
    C   C30  0.288807  0.445020  0.457192  -0.213845
    H   H6   0.707379  0.254788  0.545012  0.201643
    H   H7   0.680691  0.763213  0.537080  0.170924
    H   H8   0.293414  0.743168  0.456931  0.193006
    H   H9   0.319536  0.252053  0.464265  0.170404
    H   H10  0.194024  0.584457  0.436844  0.157026
    H   H11  0.204071  0.402117  0.439790  0.153305
    H   H12  0.710542  0.433632  0.545065  0.139811
    H   H13  0.701662  0.586510  0.542044  0.148122
    C   C31  0.915802  0.981179  0.395771  0.642582
    O   O9   0.904589  0.048574  0.485870  -0.478951
    O   O10  0.960162  0.887090  0.450148  -0.538575
    H   H14  0.967437  0.879285  0.567430  0.357806
