# Generated by REPEAT Assigner based on pymatgen
data_DB0-m3_o88_o17_f0_fsc.sym.18_sqe
_audit_creation_date              2022-05-24
_audit_creation_method            REPEAT_Assigner
_cell_length_a                    6.552529
_cell_length_b                    13.311509
_cell_length_c                    13.778477
_cell_angle_alpha                 100.276321
_cell_angle_beta                  100.168469
_cell_angle_gamma                 89.926838
_cell_volume                      1163.395044
_symmetry_space_group_name_H-M    P1
_symmetry_Int_Tables_number       1
loop_
    _symmetry_equiv_pos_site_id
    _symmetry_equiv_pos_as_xyz
    1  x,y,z
loop_
    _atom_site_type_symbol
    _atom_site_label
    _atom_site_fract_x
    _atom_site_fract_y
    _atom_site_fract_z
    _atom_type_partial_charge
    C   C1   0.421022  0.060232  0.825691  -0.033699
    C   C2   0.578977  0.939768  0.174310  -0.033651
    H   H1   0.260600  0.076246  0.829590  0.061962
    H   H2   0.739398  0.923755  0.170410  0.061953
    C   C3   0.560116  0.054903  0.912335  -0.190127
    C   C4   0.439883  0.945097  0.087665  -0.190146
    H   H3   0.509082  0.069446  0.983841  0.114377
    H   H4   0.490917  0.930554  0.016159  0.114376
    C   C5   0.761822  0.027547  0.907663  0.190860
    C   C6   0.238177  0.972453  0.092337  0.190835
    C   C7   0.825179  0.010650  0.815969  -0.275127
    C   C8   0.174820  0.989350  0.184031  -0.275103
    H   H5   0.983949  0.993710  0.810208  0.215115
    H   H6   0.016050  0.006290  0.189793  0.215115
    C   C9   0.687468  0.018152  0.729648  -0.065461
    C   C10  0.312531  0.981848  0.270352  -0.065481
    C   C11  0.483484  0.040825  0.733756  -0.048669
    C   C12  0.516515  0.959175  0.266244  -0.048703
    C   C13  0.904577  0.017785  0.000434  -0.177181
    C   C14  0.095423  0.982215  0.999566  -0.177155
    H   H7   0.849628  0.039742  0.070443  0.094693
    H   H8   0.150371  0.960258  0.929557  0.094699
    O   O1   0.840501  0.921584  0.601462  -0.760163
    O   O2   0.159498  0.078416  0.398539  -0.760341
    O   O3   0.807171  0.095141  0.607316  -0.700711
    O   O4   0.192828  0.904859  0.392684  -0.700762
    C   C15  0.769385  0.009927  0.637265  0.863509
    C   C16  0.230614  0.990073  0.362735  0.863733
    O   O5   0.234012  0.108496  0.615436  -0.551708
    O   O6   0.765987  0.891504  0.384565  -0.551725
    O   O7   0.262354  0.933841  0.601254  -0.667537
    O   O8   0.737645  0.066160  0.398746  -0.667528
    C   C17  0.325704  0.027644  0.642736  0.689129
    C   C18  0.674295  0.972356  0.357264  0.689114
    Zn  Zn1  0.986250  0.112733  0.506375  1.041499
    Zn  Zn2  0.013748  0.887267  0.493625  1.041432
    C   C19  0.972490  0.686241  0.402383  0.101654
    C   C20  0.027509  0.313759  0.597617  0.101713
    N   N1   0.028233  0.754659  0.488161  -0.029746
    N   N2   0.971766  0.245341  0.511840  -0.029802
    C   C21  0.069987  0.724205  0.577452  -0.123171
    C   C22  0.930012  0.275796  0.422548  -0.123151
    C   C23  0.058545  0.622390  0.583204  0.156173
    C   C24  0.941454  0.377610  0.416796  0.156158
    C   C25  0.005915  0.551090  0.497141  0.025629
    C   C26  0.994084  0.448911  0.502859  0.025644
    C   C27  0.964324  0.582537  0.405624  0.053221
    C   C28  0.035675  0.417463  0.594376  0.053199
    C   C29  0.095649  0.592249  0.675119  -0.188707
    C   C30  0.904350  0.407752  0.324881  -0.188697
    C   C31  0.083211  0.490181  0.680981  -0.134606
    C   C32  0.916788  0.509819  0.319019  -0.134605
    H   H9   0.106832  0.780480  0.645503  0.171557
    H   H10  0.893167  0.219520  0.354498  0.171578
    H   H11  0.133233  0.648833  0.742904  0.138637
    H   H12  0.866766  0.351167  0.257096  0.138628
    H   H13  0.107300  0.469321  0.754038  0.185931
    H   H14  0.892699  0.530679  0.245962  0.185928
    N   N3   0.914856  0.721759  0.309885  0.367179
    O   O9   0.963040  0.815022  0.304626  -0.126987
    O   O10  0.788004  0.667574  0.236003  -0.397480
    N   N4   0.085143  0.278242  0.690115  0.367134
    O   O11  0.036959  0.184979  0.695374  -0.126956
    O   O12  0.211995  0.332426  0.763997  -0.397475
