# Generated by REPEAT Assigner based on pymatgen
data_DB0-m3_o15_o19_f0_nbo.sym.69
_audit_creation_date              2022-05-24
_audit_creation_method            REPEAT_Assigner
_cell_length_a                    21.923154
_cell_length_b                    21.923265
_cell_length_c                    23.832709
_cell_angle_alpha                 90.000000
_cell_angle_beta                  90.000000
_cell_angle_gamma                 90.000000
_cell_volume                      11454.646565
_symmetry_space_group_name_H-M    P1
_symmetry_Int_Tables_number       1
loop_
    _symmetry_equiv_pos_site_id
    _symmetry_equiv_pos_as_xyz
    1  x,y,z
loop_
    _atom_site_type_symbol
    _atom_site_label
    _atom_site_fract_x
    _atom_site_fract_y
    _atom_site_fract_z
    _atom_type_partial_charge
    C   C1    0.379831  0.998108  0.500053  0.569613
    C   C2    0.999176  0.500382  0.390323  0.713272
    C   C3    0.955742  0.782794  0.470083  -0.002190
    C   C4    0.781706  0.956281  0.529881  -0.043748
    C   C5    0.955900  0.218353  0.528419  -0.021627
    C   C6    0.217581  0.043291  0.529306  -0.017474
    C   C7    0.043034  0.782466  0.530872  -0.010118
    C   C8    0.718273  0.456073  0.971309  -0.020295
    C   C9    0.542551  0.717490  0.970293  0.000491
    C   C10   0.282375  0.542935  0.969154  -0.009227
    C   C11   0.455775  0.281593  0.970433  -0.040380
    C   C12   0.282620  0.455691  0.030003  -0.002104
    C   C13   0.499672  0.997970  0.609719  0.716846
    C   C14   0.455324  0.717071  0.031165  -0.011011
    C   C15   0.717882  0.545608  0.029376  -0.027737
    C   C16   0.545340  0.281811  0.028460  -0.017504
    C   C17   0.280090  0.957682  0.465961  0.017197
    C   C18   0.042446  0.280949  0.466256  0.004228
    C   C19   0.719119  0.041113  0.465847  0.024512
    C   C20   0.959422  0.719970  0.465407  0.024500
    C   C21   0.718854  0.960062  0.534336  0.031603
    C   C22   0.959765  0.281182  0.533085  0.005654
    C   C23   0.280394  0.039353  0.533881  0.012375
    C   C24   0.001358  0.500365  0.609663  0.714395
    C   C25   0.039240  0.719614  0.535149  0.026026
    C   C26   0.781091  0.460032  0.966634  0.006021
    C   C27   0.538375  0.780282  0.965667  0.021871
    C   C28   0.219509  0.539212  0.964913  0.025964
    C   C29   0.459315  0.218713  0.966110  0.020330
    C   C30   0.219807  0.459447  0.034707  0.025003
    C   C31   0.458611  0.779958  0.035463  0.033167
    C   C32   0.780791  0.542533  0.033649  0.005821
    C   C33   0.541834  0.218963  0.033107  -0.000127
    C   C34   0.185740  0.999277  0.499522  0.281057
    C   C35   0.000352  0.501422  0.890316  0.714905
    C   C36   0.000535  0.186491  0.499350  0.316613
    C   C37   0.813554  0.000629  0.500440  0.300214
    C   C38   0.999367  0.814293  0.500651  0.219972
    C   C39   0.686364  0.500564  0.000526  0.310372
    C   C40   0.499188  0.685618  0.000842  0.215924
    C   C41   0.314162  0.499284  0.999439  0.215431
    C   C42   0.500595  0.313418  0.999294  0.316895
    C   C43   0.312479  0.998345  0.499982  -0.018773
    C   C44   0.001243  0.313314  0.499719  -0.015047
    C   C45   0.686694  0.000645  0.500039  -0.032546
    C   C46   0.500588  0.999018  0.890389  0.711794
    C   C47   0.999249  0.687516  0.500213  -0.025440
    C   C48   0.813184  0.501438  0.000099  -0.013238
    C   C49   0.498343  0.812394  0.000541  -0.029535
    C   C50   0.187382  0.499289  0.999896  -0.025183
    C   C51   0.500641  0.186592  0.999643  -0.019366
    C   C52   0.000137  0.119643  0.499079  0.393937
    C   C53   0.880416  0.000698  0.500797  0.395225
    C   C54   0.999417  0.881081  0.500913  0.416930
    C   C55   0.118977  0.999826  0.499193  0.397810
    C   C56   0.499672  0.618830  0.001049  0.418088
    C   C57   0.000123  0.499360  0.109656  0.711318
    C   C58   0.380951  0.499249  0.999154  0.417406
    C   C59   0.500617  0.380267  0.999017  0.392469
    C   C60   0.619519  0.500037  0.000879  0.394983
    C   C61   0.156344  0.843363  0.338366  0.311430
    C   C62   0.088569  0.830340  0.342638  0.270481
    C   C63   0.053941  0.868346  0.300188  -0.348070
    C   C64   0.160377  0.156112  0.342040  0.314356
    C   C65   0.174733  0.088790  0.348205  0.295457
    C   C66   0.134889  0.051658  0.309110  -0.408122
    C   C67   0.845570  0.156852  0.341055  0.294678
    C   C68   0.498307  0.000051  0.109728  0.712889
    C   C69   0.912428  0.172543  0.348678  0.331892
    C   C70   0.951590  0.131477  0.312428  -0.448972
    C   C71   0.848341  0.845881  0.337247  0.261670
    C   C72   0.834106  0.913226  0.343569  0.333454
    C   C73   0.876365  0.950577  0.306866  -0.437394
    C   C74   0.842227  0.843909  0.660898  0.312577
    C   C75   0.909628  0.829424  0.655849  0.284040
    C   C76   0.945891  0.868468  0.696296  -0.379581
    C   C77   0.841164  0.156855  0.657147  0.307852
    C   C78   0.826137  0.089709  0.650713  0.310951
    C   C79   0.499117  0.000984  0.330218  -0.110031
    C   C80   0.865528  0.051995  0.689724  -0.416582
    C   C81   0.154830  0.154948  0.659361  0.280916
    C   C82   0.087806  0.170127  0.652042  0.332156
    C   C83   0.049173  0.128626  0.688350  -0.446975
    C   C84   0.152029  0.844262  0.663369  0.289415
    C   C85   0.166705  0.911554  0.657411  0.306386
    C   C86   0.125725  0.948838  0.695378  -0.403298
    C   C87   0.656049  0.341492  0.842860  0.305370
    C   C88   0.589177  0.325644  0.850058  0.322360
    C   C89   0.550315  0.365314  0.812255  -0.435344
    C   C90   0.999396  0.500230  0.330151  -0.109183
    C   C91   0.650651  0.654446  0.838061  0.263753
    C   C92   0.666069  0.587463  0.845283  0.337830
    C   C93   0.623347  0.548646  0.810364  -0.454917
    C   C94   0.343006  0.651304  0.835522  0.295832
    C   C95   0.410583  0.665228  0.840082  0.277410
    C   C96   0.446130  0.626148  0.799124  -0.356222
    C   C97   0.341272  0.341592  0.840680  0.309379
    C   C98   0.327162  0.409100  0.845383  0.275465
    C   C99   0.365081  0.444725  0.803576  -0.372614
    C   C100  0.346568  0.347912  0.162079  0.257084
    C   C101  0.499840  0.997968  0.669893  -0.114034
    C   C102  0.413654  0.333014  0.154737  0.341532
    C   C103  0.452207  0.376007  0.189621  -0.457567
    C   C104  0.347246  0.655585  0.164689  0.299508
    C   C105  0.333835  0.587910  0.160060  0.279632
    C   C106  0.373091  0.552624  0.201066  -0.360522
    C   C107  0.657109  0.659654  0.159160  0.316970
    C   C108  0.589508  0.673306  0.154460  0.275003
    C   C109  0.554112  0.634937  0.196084  -0.378949
    C   C110  0.659560  0.344809  0.156860  0.299040
    C   C111  0.674953  0.411787  0.149666  0.323298
    C   C112  0.001515  0.380688  0.499835  0.570326
    C   C113  0.001128  0.500516  0.669832  -0.111543
    C   C114  0.634993  0.450380  0.187444  -0.441938
    C   C115  0.000523  0.501164  0.830147  -0.111812
    C   C116  0.500387  0.998661  0.830216  -0.108193
    C   C117  0.999955  0.499612  0.169829  -0.107775
    C   C118  0.498511  0.000387  0.169898  -0.107685
    C   C119  0.498929  0.000874  0.279671  0.016189
    C   C120  0.999583  0.500060  0.279604  0.015714
    C   C121  0.500004  0.998103  0.720441  0.018946
    C   C122  0.000929  0.500696  0.720377  0.016199
    C   C123  0.000700  0.500942  0.779602  0.016363
    C   C124  0.619281  0.000824  0.499957  0.570437
    C   C125  0.500210  0.998375  0.779669  0.013192
    C   C126  0.999792  0.499825  0.220376  0.014577
    C   C127  0.498700  0.000641  0.220445  0.013950
    C   C128  0.309228  0.919860  0.427406  -0.114690
    C   C129  0.080677  0.310111  0.428064  -0.108219
    C   C130  0.690136  0.078019  0.426452  -0.123764
    C   C131  0.923151  0.691022  0.425494  -0.126512
    C   C132  0.689584  0.923045  0.573467  -0.114444
    C   C133  0.921962  0.310526  0.571521  -0.107217
    C   C134  0.309749  0.076559  0.572799  -0.112440
    C   C135  0.999028  0.620134  0.500076  0.564025
    C   C136  0.075606  0.690301  0.574763  -0.119331
    C   C137  0.810475  0.422390  0.928091  -0.111859
    C   C138  0.574362  0.809537  0.925724  -0.116824
    C   C139  0.190208  0.575567  0.925280  -0.119075
    C   C140  0.421321  0.189313  0.927870  -0.113130
    C   C141  0.190843  0.423220  0.074643  -0.129042
    C   C142  0.422003  0.808977  0.075072  -0.129593
    C   C143  0.809945  0.580745  0.071865  -0.109568
    C   C144  0.579704  0.189836  0.071626  -0.109524
    C   C145  0.277359  0.875214  0.399348  -0.328819
    C   C146  0.880555  0.501693  0.000029  0.568925
    C   C147  0.126036  0.278413  0.400847  -0.333410
    C   C148  0.721803  0.122881  0.398507  -0.317743
    C   C149  0.879149  0.722870  0.396564  -0.313880
    C   C150  0.721009  0.877991  0.601373  -0.327212
    C   C151  0.876383  0.279148  0.598740  -0.329868
    C   C152  0.278280  0.121494  0.600856  -0.322357
    C   C153  0.119908  0.721815  0.603621  -0.324236
    C   C154  0.779135  0.376888  0.900721  -0.324818
    C   C155  0.618589  0.778054  0.896741  -0.322304
    C   C156  0.221757  0.619770  0.896330  -0.323160
    C   C157  0.498096  0.879777  0.000474  0.566499
    C   C158  0.375851  0.220745  0.900551  -0.327220
    C   C159  0.222661  0.379181  0.103560  -0.312372
    C   C160  0.377995  0.777096  0.103967  -0.316808
    C   C161  0.778204  0.625977  0.099214  -0.332550
    C   C162  0.624996  0.221487  0.098987  -0.328719
    C   C163  0.216257  0.867310  0.409349  0.625651
    C   C164  0.134283  0.217478  0.411388  0.628252
    C   C165  0.782498  0.132025  0.409579  0.609407
    C   C166  0.870193  0.783700  0.407187  0.604182
    C   C167  0.781775  0.868867  0.590615  0.619188
    C   C168  0.119999  0.499098  0.000018  0.565374
    C   C169  0.867492  0.218354  0.587967  0.621329
    C   C170  0.217416  0.130421  0.590378  0.609814
    C   C171  0.129015  0.782682  0.593272  0.617571
    C   C172  0.718358  0.367870  0.911491  0.615996
    C   C173  0.628085  0.717306  0.907366  0.606939
    C   C174  0.282663  0.628758  0.906578  0.613842
    C   C175  0.367288  0.281654  0.911013  0.618298
    C   C176  0.283460  0.370106  0.092864  0.601624
    C   C177  0.369460  0.716131  0.093689  0.613260
    C   C178  0.717221  0.634083  0.088811  0.627375
    C   C179  0.500809  0.119219  0.999736  0.573386
    C   C180  0.633579  0.282328  0.088231  0.620828
    C   C181  0.186203  0.906863  0.444562  -0.431254
    C   C182  0.094246  0.187334  0.446101  -0.433853
    C   C183  0.812508  0.093227  0.445561  -0.426154
    C   C184  0.908213  0.813584  0.443931  -0.435886
    C   C185  0.812097  0.907841  0.555040  -0.421201
    C   C186  0.907066  0.188000  0.552963  -0.433771
    C   C187  0.187135  0.091548  0.554661  -0.431309
    C   C188  0.090785  0.812955  0.556981  -0.434833
    C   C189  0.687982  0.407266  0.946658  -0.432518
    C   C190  0.499319  0.000971  0.390390  0.714416
    C   C191  0.590338  0.687108  0.944142  -0.437943
    C   C192  0.312916  0.590570  0.942902  -0.427646
    C   C193  0.407058  0.312043  0.945786  -0.420683
    C   C194  0.313355  0.408085  0.056081  -0.434243
    C   C195  0.407897  0.686172  0.057382  -0.429597
    C   C196  0.687093  0.594088  0.054063  -0.427671
    C   C197  0.593948  0.312438  0.053095  -0.436052
    C   C198  0.217172  0.954708  0.470066  -0.026380
    C   C199  0.045616  0.218056  0.470597  -0.026406
    C   C200  0.781935  0.044884  0.470672  -0.032063
    H   H1    0.301983  0.150979  0.629932  0.141578
    H   H2    0.348948  0.800525  0.133600  0.139909
    H   H3    0.215086  0.919402  0.668894  -0.045078
    H   H4    0.159610  0.925970  0.613365  -0.101089
    H   H5    0.077753  0.945119  0.680976  0.078583
    H   H6    0.139971  0.997309  0.693752  0.116093
    H   H7    0.129513  0.931952  0.739094  0.059965
    H   H8    0.673502  0.320469  0.803711  -0.013123
    H   H9    0.661603  0.391595  0.839637  -0.084209
    H   H10   0.582026  0.276943  0.839365  -0.048819
    H   H11   0.575574  0.333146  0.894244  -0.116161
    H   H12   0.553624  0.413606  0.825799  0.085231
    H   H13   0.199273  0.350468  0.133494  0.139938
    H   H14   0.502123  0.350375  0.815204  0.135374
    H   H15   0.566137  0.360928  0.768251  0.063471
    H   H16   0.669955  0.671183  0.797911  -0.004472
    H   H17   0.600507  0.660549  0.836781  -0.060471
    H   H18   0.713828  0.579468  0.831851  -0.047278
    H   H19   0.661464  0.574555  0.890000  -0.118516
    H   H20   0.576215  0.552481  0.826926  0.099751
    H   H21   0.638093  0.500358  0.812682  0.134547
    H   H22   0.624538  0.564094  0.766075  0.068659
    H   H23   0.324625  0.671623  0.796417  -0.008135
    H   H24   0.655056  0.197930  0.127663  0.143407
    H   H25   0.335916  0.601307  0.833916  -0.076441
    H   H26   0.418398  0.714122  0.830589  -0.040473
    H   H27   0.426524  0.655615  0.883271  -0.084521
    H   H28   0.442355  0.577454  0.811274  0.062776
    H   H29   0.494787  0.639829  0.800009  0.097985
    H   H30   0.427830  0.632599  0.756160  0.052091
    H   H31   0.319300  0.322814  0.802502  -0.010049
    H   H32   0.391197  0.334767  0.837204  -0.087822
    H   H33   0.278009  0.416695  0.836927  -0.041701
    H   H34   0.337771  0.425114  0.888338  -0.082985
    H   H35   0.198107  0.648610  0.866675  0.142087
    H   H36   0.414099  0.441020  0.814605  0.069508
    H   H37   0.351353  0.493352  0.804821  0.110589
    H   H38   0.357490  0.426447  0.760761  0.053275
    H   H39   0.330051  0.328429  0.202233  -0.003620
    H   H40   0.340084  0.398005  0.163424  -0.058144
    H   H41   0.422041  0.285308  0.168126  -0.047472
    H   H42   0.426443  0.337750  0.110002  -0.118762
    H   H43   0.447964  0.423123  0.173105  0.100521
    H   H44   0.500606  0.361646  0.187203  0.134682
    H   H45   0.436864  0.374651  0.233936  0.069514
    H   H46   0.647112  0.801671  0.866806  0.142240
    H   H47   0.326727  0.673779  0.203780  -0.009685
    H   H48   0.397185  0.663049  0.166367  -0.078544
    H   H49   0.284981  0.579723  0.169458  -0.041077
    H   H50   0.343660  0.572073  0.116878  -0.084804
    H   H51   0.421784  0.556789  0.189019  0.063257
    H   H52   0.359791  0.503863  0.200110  0.098874
    H   H53   0.366394  0.570827  0.244033  0.053190
    H   H54   0.675736  0.681736  0.197347  -0.011493
    H   H55   0.664278  0.609776  0.162619  -0.090853
    H   H56   0.581556  0.722364  0.163105  -0.042318
    H   H57   0.802893  0.347012  0.872023  0.141926
    H   H58   0.573613  0.662790  0.111450  -0.082319
    H   H59   0.558166  0.586000  0.184855  0.071267
    H   H60   0.505391  0.648332  0.194856  0.113509
    H   H61   0.572300  0.642447  0.238943  0.054579
    H   H62   0.680719  0.327492  0.195999  -0.011854
    H   H63   0.609498  0.338915  0.160101  -0.081357
    H   H64   0.723598  0.419274  0.160384  -0.047644
    H   H65   0.667387  0.425332  0.105475  -0.115323
    H   H66   0.586732  0.446733  0.173879  0.086932
    H   H67   0.649597  0.498674  0.184493  0.137237
    H   H68   0.345721  0.196999  0.872069  0.142786
    H   H69   0.639465  0.434598  0.231453  0.065390
    H   H70   0.356901  0.924287  0.417249  0.161235
    H   H71   0.076057  0.357682  0.417573  0.159924
    H   H72   0.642768  0.072616  0.415504  0.163448
    H   H73   0.846396  0.302871  0.627365  0.143116
    H   H74   0.928484  0.643569  0.414830  0.165083
    H   H75   0.642173  0.928470  0.584231  0.159100
    H   H76   0.927129  0.357984  0.582238  0.157054
    H   H77   0.357271  0.071355  0.583275  0.158173
    H   H78   0.070203  0.642793  0.585179  0.161641
    H   H79   0.857939  0.427629  0.917418  0.158467
    H   H80   0.568634  0.856951  0.915084  0.161048
    H   H81   0.142687  0.570214  0.914897  0.161348
    H   H82   0.426227  0.141764  0.917403  0.158018
    H   H83   0.143398  0.428608  0.085319  0.165789
    H   H84   0.697343  0.848583  0.630542  0.142586
    H   H85   0.426991  0.856535  0.085460  0.165886
    H   H86   0.857542  0.576204  0.082283  0.160533
    H   H87   0.574811  0.142334  0.082288  0.159678
    H   H88   0.138306  0.898679  0.451462  0.212438
    H   H89   0.102672  0.139573  0.453430  0.214494
    H   H90   0.860076  0.102281  0.453271  0.223023
    H   H91   0.899273  0.861252  0.451328  0.223851
    H   H92   0.859713  0.898723  0.547552  0.210203
    H   H93   0.898161  0.140353  0.545523  0.217659
    H   H94   0.139443  0.100431  0.547395  0.225954
    H   H95   0.148789  0.698142  0.633228  0.141947
    H   H96   0.099832  0.860640  0.549774  0.221238
    H   H97   0.640360  0.398269  0.954112  0.222930
    H   H98   0.599668  0.639522  0.951556  0.228744
    H   H99   0.360626  0.599594  0.950027  0.213019
    H   H100  0.398313  0.359764  0.953061  0.208346
    H   H101  0.360989  0.399072  0.048593  0.226967
    H   H102  0.399221  0.638403  0.050226  0.214714
    H   H103  0.639298  0.602469  0.046840  0.208235
    H   H104  0.602601  0.360125  0.045650  0.222313
    H   H105  0.174917  0.821662  0.299971  -0.010482
    H   H106  0.698348  0.152209  0.369127  0.141127
    H   H107  0.164032  0.893211  0.335566  -0.087308
    H   H108  0.080308  0.781225  0.334530  -0.040652
    H   H109  0.072254  0.841644  0.385354  -0.081806
    H   H110  0.058302  0.917413  0.310809  0.058819
    H   H111  0.005090  0.855388  0.301128  0.096547
    H   H112  0.072521  0.860023  0.257600  0.050301
    H   H113  0.182246  0.173946  0.303432  -0.013020
    H   H114  0.110440  0.162747  0.338422  -0.088292
    H   H115  0.223447  0.080858  0.338037  -0.045419
    H   H116  0.166214  0.074359  0.392015  -0.097211
    H   H117  0.156385  0.301986  0.372440  0.143964
    H   H118  0.086440  0.055767  0.321995  0.080311
    H   H119  0.148714  0.003096  0.311352  0.126776
    H   H120  0.140409  0.068339  0.265483  0.058546
    H   H121  0.828695  0.177182  0.301385  -0.011985
    H   H122  0.839819  0.106723  0.338586  -0.077275
    H   H123  0.920023  0.220844  0.336776  -0.048798
    H   H124  0.925358  0.166374  0.393215  -0.119335
    H   H125  0.947890  0.083670  0.327283  0.090508
    H   H126  0.999807  0.146305  0.315481  0.136701
    H   H127  0.936348  0.134467  0.268152  0.066730
    H   H128  0.300880  0.845227  0.370581  0.142826
    H   H129  0.828606  0.828791  0.297400  -0.004317
    H   H130  0.898374  0.838945  0.335939  -0.059427
    H   H131  0.786098  0.921645  0.331145  -0.047331
    H   H132  0.840217  0.927058  0.387897  -0.111726
    H   H133  0.923907  0.946359  0.322323  0.092125
    H   H134  0.862429  0.999132  0.308592  0.125963
    H   H135  0.873631  0.934159  0.262933  0.066223
    H   H136  0.823752  0.822761  0.699592  -0.012417
    H   H137  0.835638  0.893916  0.663621  -0.085901
    H   H138  0.917163  0.780520  0.665487  -0.043210
    H   H139  0.850423  0.699503  0.366626  0.139862
    H   H140  0.925149  0.838664  0.612471  -0.087212
    H   H141  0.942338  0.917130  0.683964  0.069831
    H   H142  0.994430  0.854434  0.695007  0.110445
    H   H143  0.928016  0.862363  0.739454  0.054815
    H   H144  0.819656  0.174673  0.695933  -0.012981
    H   H145  0.891182  0.162992  0.660584  -0.085338
    H   H146  0.777326  0.082227  0.660778  -0.048192
    H   H147  0.834595  0.075389  0.606865  -0.106171
    H   H148  0.914025  0.055594  0.676872  0.080093
    H   H149  0.851159  0.003601  0.687331  0.127667
    H   H150  0.801755  0.656286  0.127672  0.143527
    H   H151  0.860171  0.068586  0.733397  0.060573
    H   H152  0.171764  0.175447  0.698936  -0.007768
    H   H153  0.160977  0.104866  0.661867  -0.072512
    H   H154  0.079884  0.218324  0.664117  -0.048087
    H   H155  0.074660  0.163999  0.607547  -0.117871
    H   H156  0.053062  0.080923  0.673249  0.092821
    H   H157  0.000845  0.143172  0.685679  0.134127
    H   H158  0.064732  0.131471  0.732541  0.067258
    H   H159  0.172067  0.826672  0.702902  -0.008312
    H   H160  0.101968  0.837690  0.665073  -0.073936
    O   O1    0.408771  0.050532  0.497945  -0.627042
    O   O2    0.445482  0.908410  0.000227  -0.613512
    O   O3    0.091379  0.446478  0.999911  -0.611231
    O   O4    0.553354  0.090584  0.997364  -0.612685
    O   O5    0.091017  0.551556  0.000147  -0.628154
    O   O6    0.550561  0.908744  0.000532  -0.625019
    O   O7    0.909525  0.449297  0.002397  -0.626503
    O   O8    0.448402  0.090273  0.002163  -0.630076
    O   O9    0.502012  0.053555  0.416462  -0.633633
    O   O10   0.946480  0.503058  0.416194  -0.633817
    O   O11   0.496823  0.948319  0.416399  -0.645209
    O   O12   0.949133  0.409686  0.497501  -0.627838
    O   O13   0.051706  0.497816  0.416538  -0.644609
    O   O14   0.499726  0.050668  0.583704  -0.644467
    O   O15   0.054111  0.500204  0.583787  -0.633470
    O   O16   0.499533  0.945332  0.583635  -0.633965
    O   O17   0.948778  0.500516  0.583441  -0.643637
    O   O18   0.000180  0.554186  0.916173  -0.633481
    O   O19   0.447996  0.999026  0.916592  -0.643639
    O   O20   0.000459  0.448853  0.916557  -0.644160
    O   O21   0.553328  0.999278  0.916287  -0.633425
    O   O22   0.997610  0.551880  0.083420  -0.644123
    O   O23   0.590295  0.948372  0.499539  -0.629550
    O   O24   0.550852  0.002448  0.083524  -0.644896
    O   O25   0.002799  0.446651  0.083807  -0.633318
    O   O26   0.445620  0.997290  0.083848  -0.633979
    O   O27   0.999205  0.091004  0.547422  -0.556049
    O   O28   0.908577  0.999903  0.549364  -0.537596
    O   O29   0.997470  0.909282  0.549433  -0.534517
    O   O30   0.090302  0.998143  0.547496  -0.555149
    O   O31   0.000901  0.091405  0.450547  -0.541632
    O   O32   0.090887  0.001861  0.450631  -0.536341
    O   O33   0.001449  0.909675  0.452578  -0.551450
    O   O34   0.051474  0.591132  0.499902  -0.626007
    O   O35   0.909156  0.001336  0.452501  -0.553471
    O   O36   0.501837  0.590632  0.049553  -0.533128
    O   O37   0.409604  0.501198  0.047467  -0.552943
    O   O38   0.501332  0.408907  0.047358  -0.557252
    O   O39   0.591340  0.500666  0.049444  -0.540175
    O   O40   0.497867  0.590231  0.952704  -0.554126
    O   O41   0.590818  0.499175  0.952570  -0.558126
    O   O42   0.499719  0.408508  0.950487  -0.540305
    O   O43   0.409098  0.497348  0.950614  -0.532776
    O   O44   0.185798  0.819414  0.385439  -0.524269
    O   O45   0.590623  0.053419  0.500397  -0.611582
    O   O46   0.183081  0.187383  0.388643  -0.523623
    O   O47   0.812419  0.180546  0.386129  -0.515110
    O   O48   0.822815  0.814024  0.382261  -0.507769
    O   O49   0.811626  0.820432  0.614251  -0.523403
    O   O50   0.818523  0.188612  0.610795  -0.520640
    O   O51   0.187583  0.178829  0.614121  -0.510867
    O   O52   0.176831  0.812615  0.617893  -0.516313
    O   O53   0.688738  0.318821  0.888658  -0.517946
    O   O54   0.675833  0.687456  0.882540  -0.506760
    O   O55   0.312742  0.676305  0.881691  -0.518173
    O   O56   0.054081  0.409272  0.502354  -0.614392
    O   O57   0.318563  0.311574  0.887966  -0.521554
    O   O58   0.313664  0.322540  0.117623  -0.504475
    O   O59   0.322092  0.685703  0.118509  -0.519117
    O   O60   0.686968  0.682589  0.111881  -0.525530
    O   O61   0.682433  0.312285  0.111049  -0.517447
    O   O62   0.408445  0.945546  0.502282  -0.615825
    O   O63   0.946395  0.591536  0.500177  -0.611658
    O   O64   0.909160  0.554248  0.997527  -0.615733
    Zn  Zn1   0.499430  0.068524  0.500298  1.259315
    Zn  Zn2   0.999852  0.000342  0.436393  1.155054
    Zn  Zn3   0.500282  0.499569  0.063620  1.154291
    Zn  Zn4   0.500125  0.499593  0.936429  1.155571
    Zn  Zn5   0.931219  0.500357  0.499980  1.259402
    Zn  Zn6   0.499595  0.930413  0.499757  1.261088
    Zn  Zn7   0.069319  0.500408  0.499957  1.259463
    Zn  Zn8   0.000302  0.569444  0.999996  1.260645
    Zn  Zn9   0.430400  0.999607  0.000046  1.260184
    Zn  Zn10  0.000191  0.431342  0.000026  1.259470
    Zn  Zn11  0.568499  0.999446  0.000124  1.258999
    Zn  Zn12  0.999627  0.000319  0.563600  1.156475
