# Generated by REPEAT Assigner based on pymatgen
data_DB0-m9_o19_o23_f0_sra.sym.105_sqe
_audit_creation_date              2022-05-24
_audit_creation_method            REPEAT_Assigner
_cell_length_a                    21.454800
_cell_length_b                    6.818000
_cell_length_c                    18.281794
_cell_angle_alpha                 90.000000
_cell_angle_beta                  107.252093
_cell_angle_gamma                 90.000000
_cell_volume                      2553.922993
_symmetry_space_group_name_H-M    P1
_symmetry_Int_Tables_number       1
loop_
    _symmetry_equiv_pos_site_id
    _symmetry_equiv_pos_as_xyz
    1  x,y,z
loop_
    _atom_site_type_symbol
    _atom_site_label
    _atom_site_fract_x
    _atom_site_fract_y
    _atom_site_fract_z
    _atom_type_partial_charge
    O  O1   0.421039  0.487086  0.428351  -0.532403
    O  O2   0.578961  0.987086  0.571649  -0.532409
    O  O3   0.552767  0.834194  0.425725  -0.549946
    O  O4   0.447233  0.334195  0.574275  -0.549932
    C  C1   0.577134  0.655524  0.420621  0.731992
    C  C2   0.422865  0.155524  0.579380  0.731887
    O  O5   0.421820  0.834365  0.406879  -0.503707
    O  O6   0.578179  0.334365  0.593121  -0.503717
    O  O7   0.439179  0.987076  0.551462  -0.567978
    O  O8   0.560821  0.487076  0.448538  -0.567999
    C  C3   0.395084  0.655124  0.394039  0.702984
    C  C4   0.604916  0.155124  0.605962  0.703007
    O  O9   0.507726  0.669754  0.544665  -0.429733
    O  O10  0.492273  0.169755  0.455336  -0.429706
    V  V1   0.497947  0.937510  0.487846  1.358011
    V  V2   0.502053  0.437511  0.512154  1.358192
    C  C5   0.667113  0.140289  0.668192  -0.206088
    C  C6   0.332887  0.640289  0.331808  -0.206055
    C  C7   0.719092  0.131485  0.719841  0.064336
    C  C8   0.280908  0.631485  0.280160  0.064304
    C  C9   0.780548  0.122411  0.780757  0.058329
    C  C10  0.219452  0.622412  0.219243  0.058362
    C  C11  0.832548  0.113578  0.832375  -0.197153
    C  C12  0.167452  0.613578  0.167626  -0.197191
    C  C13  0.254502  0.302884  0.812023  0.242488
    C  C14  0.745498  0.802884  0.187977  0.242477
    C  C15  0.250335  0.942338  0.804498  0.121591
    C  C16  0.749665  0.442338  0.195502  0.121811
    C  C17  0.299762  0.948486  0.758952  -0.446331
    C  C18  0.700238  0.448486  0.241048  -0.446526
    H  H1   0.217989  0.813582  0.785657  -0.011624
    H  H2   0.782011  0.313582  0.214343  -0.011681
    H  H3   0.276190  0.926291  0.866368  0.005555
    H  H4   0.723810  0.426291  0.133633  0.005505
    H  H5   0.291907  0.818490  0.720834  0.087703
    H  H6   0.708093  0.318490  0.279166  0.087743
    C  C19  0.376953  0.142246  0.625399  -0.109941
    C  C20  0.623047  0.642246  0.374601  -0.110154
    C  C21  0.208787  0.127011  0.790450  0.074794
    C  C22  0.791214  0.627011  0.209550  0.074841
    C  C23  0.298783  0.314165  0.760210  -0.448051
    C  C24  0.701217  0.814165  0.239790  -0.447987
    C  C25  0.290870  0.132645  0.709739  0.867325
    C  C26  0.709130  0.632645  0.290262  0.867102
    C  C27  0.221003  0.133114  0.657637  -0.370896
    C  C28  0.778997  0.633114  0.342363  -0.370959
    C  C29  0.172861  0.132409  0.704949  0.191583
    C  C30  0.827139  0.632409  0.295051  0.191768
    C  C31  0.338371  0.136378  0.663409  -0.384067
    C  C32  0.661629  0.636378  0.336591  -0.383740
    C  C33  0.161357  0.123253  0.836884  -0.203834
    C  C34  0.838642  0.623253  0.163117  -0.203969
    C  C35  0.122875  0.116979  0.875018  -0.105344
    C  C36  0.877125  0.616979  0.124982  -0.105268
    H  H7   0.141840  0.999576  0.690041  0.053721
    H  H8   0.858159  0.499576  0.309959  0.053679
    H  H9   0.212799  0.266200  0.621135  0.053877
    H  H10  0.787200  0.766200  0.378865  0.053882
    H  H11  0.284253  0.443852  0.722371  0.071050
    H  H12  0.715747  0.943852  0.277630  0.071034
    H  H13  0.212753  0.001063  0.620574  0.084310
    H  H14  0.787247  0.501063  0.379426  0.084311
    O  O11  0.939555  0.770868  0.050962  -0.519821
    O  O12  0.060445  0.270869  0.949039  -0.519830
    O  O13  0.078185  0.419760  0.093113  -0.514624
    O  O14  0.921815  0.919761  0.906887  -0.514641
    C  C37  0.105193  0.598742  0.105494  0.734252
    C  C38  0.894807  0.098741  0.894506  0.734237
    O  O15  0.947141  0.423710  0.073953  -0.513472
    O  O16  0.052858  0.923709  0.926048  -0.513463
    O  O17  0.920769  0.266845  0.928782  -0.538349
    O  O18  0.079231  0.766845  0.071218  -0.538349
    C  C39  0.922939  0.602781  0.078860  0.683312
    C  C40  0.077061  0.102780  0.921139  0.683331
    O  O19  0.993022  0.585277  0.954198  -0.409072
    O  O20  0.006978  0.085277  0.045802  -0.409065
    V  V3   0.001881  0.316468  0.012434  1.318554
    V  V4   0.998119  0.816468  0.987566  1.318615
    C  C41  0.368175  0.339425  0.807075  0.483877
    H  H15  0.394866  0.468864  0.799316  -0.017680
    O  O21  0.394877  0.216610  0.854416  -0.372478
    C  C42  0.631825  0.839425  0.192926  0.483789
    H  H16  0.605134  0.968864  0.200684  -0.017657
    O  O22  0.605123  0.716610  0.145585  -0.372453
    C  C43  0.215884  0.487469  0.804245  0.484176
    H  H17  0.218179  0.574282  0.854649  0.004023
    O  O23  0.183299  0.544214  0.741344  -0.352957
    C  C44  0.784116  0.987469  0.195756  0.484214
    H  H18  0.781821  0.074282  0.145351  0.004004
    O  O24  0.816700  0.044214  0.258657  -0.352948
    C  C45  0.295223  0.284507  0.893415  0.194013
    H  H19  0.328357  0.162222  0.911752  0.178467
    O  O25  0.291556  0.409115  0.939777  -0.420997
    C  C46  0.704777  0.784507  0.106585  0.194046
    H  H20  0.671643  0.662222  0.088249  0.178453
    O  O26  0.708444  0.909115  0.060223  -0.421002
    C  C47  0.367301  0.940282  0.812250  0.433849
    H  H21  0.408706  0.942040  0.789753  0.041339
    O  O27  0.376075  0.929934  0.881132  -0.449179
    C  C48  0.632698  0.440282  0.187750  0.433905
    H  H22  0.591294  0.442040  0.210247  0.041329
    O  O28  0.623925  0.429934  0.118868  -0.449185
    C  C49  0.130121  0.308528  0.685744  0.217955
    H  H23  0.134522  0.408356  0.641357  0.036233
    O  O29  0.089277  0.338260  0.718723  -0.404024
    C  C50  0.869879  0.808528  0.314257  0.217887
    H  H24  0.865478  0.908356  0.358643  0.036252
    O  O30  0.910723  0.838260  0.281277  -0.404030
