# Generated by REPEAT Assigner based on pymatgen
data_DB0-m3_o99_o23_f0_fsc.sym.2
_audit_creation_date              2022-05-24
_audit_creation_method            REPEAT_Assigner
_cell_length_a                    6.594031
_cell_length_b                    14.175109
_cell_length_c                    14.707591
_cell_angle_alpha                 100.931593
_cell_angle_beta                  101.608988
_cell_angle_gamma                 89.907048
_cell_volume                      1321.223006
_symmetry_space_group_name_H-M    P1
_symmetry_Int_Tables_number       1
loop_
    _symmetry_equiv_pos_site_id
    _symmetry_equiv_pos_as_xyz
    1  x,y,z
loop_
    _atom_site_type_symbol
    _atom_site_label
    _atom_site_fract_x
    _atom_site_fract_y
    _atom_site_fract_z
    _atom_type_partial_charge
    C   C1   0.437767  0.989753  0.794534  -0.138544
    H   H1   0.276514  0.973854  0.792000  0.139317
    C   C2   0.581564  0.988800  0.876445  -0.225799
    H   H2   0.532755  0.971406  0.937225  0.145832
    C   C3   0.787766  0.007694  0.879908  0.270441
    C   C4   0.849323  0.025502  0.800460  -0.186079
    H   H3   0.012102  0.035380  0.801622  0.139767
    C   C5   0.706489  0.024187  0.717385  -0.135862
    C   C6   0.498558  0.007932  0.714874  -0.013453
    C   C7   0.939472  0.002371  0.963869  -0.182475
    C   C8   0.066764  0.997413  0.034185  -0.184496
    C   C9   0.156902  0.974293  0.197599  -0.193903
    H   H4   0.994122  0.964416  0.196435  0.138627
    C   C10  0.299733  0.975608  0.280675  -0.137426
    C   C11  0.507664  0.991865  0.283188  -0.010577
    C   C12  0.568458  0.010047  0.203529  -0.139767
    H   H5   0.729712  0.025948  0.206067  0.143018
    C   C13  0.424666  0.010995  0.121616  -0.228160
    H   H6   0.473479  0.028385  0.060836  0.144361
    C   C14  0.218465  0.992095  0.118149  0.277535
    O   O1   0.829986  0.931438  0.590822  -0.730026
    O   O2   0.846570  0.096641  0.608398  -0.737882
    C   C15  0.786315  0.017541  0.631070  0.921331
    O   O3   0.268630  0.088305  0.610104  -0.704278
    O   O4   0.248309  0.922652  0.586856  -0.699851
    C   C16  0.338816  0.006059  0.629656  0.776457
    O   O5   0.176237  0.068356  0.407239  -0.745002
    O   O6   0.159652  0.903157  0.389663  -0.755186
    C   C17  0.219906  0.982254  0.366990  0.956101
    O   O7   0.737591  0.911490  0.387958  -0.687239
    O   O8   0.757914  0.077144  0.411206  -0.692731
    C   C18  0.667404  0.993737  0.368407  0.751145
    Zn  Zn1  0.018721  0.106790  0.511607  1.109567
    Zn  Zn2  0.987503  0.893005  0.486455  1.101950
    C   C19  0.809866  0.427456  0.447059  -0.203327
    C   C20  0.187626  0.439935  0.461405  -0.099080
    C   C21  0.147728  0.538025  0.436253  -0.170771
    H   H7   0.807693  0.391522  0.372983  0.049231
    H   H8   0.339628  0.441806  0.510478  0.040684
    H   H9   0.188360  0.386118  0.396040  0.051335
    H   H10  0.087830  0.530037  0.359085  0.057931
    H   H11  0.294475  0.582049  0.456641  0.078600
    N   N1   0.968280  0.767667  0.474936  -0.011726
    C   C22  0.017267  0.413308  0.508388  0.508280
    C   C23  0.780849  0.534122  0.451747  0.249740
    C   C24  0.989568  0.586446  0.489479  0.413153
    C   C25  0.058299  0.581493  0.593104  -0.214163
    C   C26  0.035300  0.478284  0.604283  0.216747
    C   C27  0.975051  0.687154  0.479696  -0.141978
    C   C28  0.031405  0.312626  0.518291  -0.193593
    N   N2   0.037953  0.232128  0.523123  0.001031
    H   H12  0.892648  0.468872  0.631213  -0.027086
    H   H13  0.961109  0.627523  0.635471  0.055262
    H   H14  0.683276  0.396298  0.472955  0.020335
    H   H15  0.675528  0.560010  0.500454  -0.048227
    H   H16  0.222880  0.606631  0.617646  0.049755
    C   C29  0.221441  0.453367  0.673305  -0.332345
    H   H17  0.226479  0.498493  0.744173  0.097233
    H   H18  0.208549  0.376435  0.677701  0.083601
    H   H19  0.365586  0.467095  0.649262  0.070676
    C   C30  0.688532  0.552804  0.354104  -0.337946
    H   H20  0.531701  0.517766  0.329541  0.080765
    H   H21  0.676989  0.631360  0.357164  0.078902
    H   H22  0.787798  0.522901  0.303896  0.090270
