# Generated by REPEAT Assigner based on pymatgen
data_DB0-m3_o24_o99_f0_fsc.sym.3
_audit_creation_date              2022-05-24
_audit_creation_method            REPEAT_Assigner
_cell_length_a                    6.600582
_cell_length_b                    9.143159
_cell_length_c                    14.671779
_cell_angle_alpha                 101.331696
_cell_angle_beta                  101.649444
_cell_angle_gamma                 89.938750
_cell_volume                      849.612858
_symmetry_space_group_name_H-M    P1
_symmetry_Int_Tables_number       1
loop_
    _symmetry_equiv_pos_site_id
    _symmetry_equiv_pos_as_xyz
    1  x,y,z
loop_
    _atom_site_type_symbol
    _atom_site_label
    _atom_site_fract_x
    _atom_site_fract_y
    _atom_site_fract_z
    _atom_type_partial_charge
    C   C1   0.436173  0.000657  0.796653  -0.102044
    C   C2   0.563826  0.999344  0.203346  -0.102120
    H   H1   0.275241  0.974395  0.793289  0.052792
    H   H2   0.724758  0.025605  0.206711  0.052874
    C   C3   0.579552  0.994864  0.878093  -0.249013
    C   C4   0.420447  0.005137  0.121907  -0.249052
    H   H3   0.530312  0.963491  0.937483  0.165933
    H   H4   0.469687  0.036509  0.062516  0.166043
    C   C5   0.786021  0.022887  0.882202  0.251146
    C   C6   0.213978  0.977114  0.117798  0.251099
    C   C7   0.847972  0.053425  0.803420  -0.188329
    C   C8   0.152027  0.946575  0.196579  -0.188144
    H   H5   0.010872  0.066370  0.804518  0.187504
    H   H6   0.989127  0.933630  0.195482  0.187417
    C   C9   0.705502  0.054502  0.720290  -0.223862
    C   C10  0.294497  0.945498  0.279710  -0.224004
    C   C11  0.497038  0.031421  0.717609  0.230408
    C   C12  0.502961  0.968579  0.282391  0.230381
    C   C13  0.936983  0.007173  0.965221  -0.152957
    C   C14  0.063016  0.992827  0.034779  -0.152916
    O   O1   0.832434  0.903749  0.596674  -0.607702
    O   O2   0.167565  0.096251  0.403326  -0.607685
    O   O3   0.841657  0.158644  0.606691  -0.651299
    O   O4   0.158342  0.841356  0.393309  -0.651336
    C   C15  0.785571  0.038720  0.633487  0.788734
    C   C16  0.214428  0.961280  0.366513  0.788818
    O   O5   0.263532  0.146757  0.608032  -0.809493
    O   O6   0.736467  0.853243  0.391968  -0.809420
    O   O7   0.249712  0.890603  0.591802  -0.418500
    O   O8   0.750287  0.109397  0.408197  -0.418599
    C   C17  0.337699  0.022397  0.631225  0.624523
    C   C18  0.662300  0.977603  0.368775  0.624507
    Zn  Zn1  0.011625  0.164965  0.507642  0.890434
    Zn  Zn2  0.988374  0.835036  0.492357  0.890479
    C   C19  0.843044  0.420441  0.459199  -0.089411
    C   C20  0.156955  0.579560  0.540800  -0.089282
    C   C21  0.969876  0.507688  0.413865  -0.086636
    C   C22  0.030123  0.492312  0.586134  -0.086914
    N   N1   0.977484  0.641714  0.487387  0.607631
    N   N2   0.022515  0.358286  0.512613  0.607719
    C   C23  0.848116  0.560388  0.532955  -0.170035
    C   C24  0.151884  0.439612  0.467044  -0.170139
    H   H7   0.714265  0.612028  0.560134  0.127172
    H   H8   0.285734  0.387972  0.439866  0.127143
    Cl  Cl1  0.919331  0.516202  0.291348  -0.026473
    Cl  Cl2  0.080668  0.483798  0.708652  -0.026449
    Cl  Cl3  0.618705  0.306873  0.399409  -0.150388
    Cl  Cl4  0.381294  0.693128  0.600591  -0.150553
