# Generated by REPEAT Assigner based on pymatgen
data_DB0-m2_o17_o25_f0_pcu.sym.6_sqe
_audit_creation_date              2022-05-24
_audit_creation_method            REPEAT_Assigner
_cell_length_a                    15.931814
_cell_length_b                    14.994004
_cell_length_c                    13.537380
_cell_angle_alpha                 89.987578
_cell_angle_beta                  90.009405
_cell_angle_gamma                 89.994541
_cell_volume                      3233.831908
_symmetry_space_group_name_H-M    P1
_symmetry_Int_Tables_number       1
loop_
    _symmetry_equiv_pos_site_id
    _symmetry_equiv_pos_as_xyz
    1  x,y,z
loop_
    _atom_site_type_symbol
    _atom_site_label
    _atom_site_fract_x
    _atom_site_fract_y
    _atom_site_fract_z
    _atom_type_partial_charge
    O   O1   0.494828  0.370307  0.583696  -0.584095
    O   O2   0.505315  0.630031  0.416379  -0.585331
    O   O3   0.502798  0.370844  0.414119  -0.561462
    O   O4   0.497364  0.629492  0.585965  -0.564991
    C   C1   0.498501  0.328667  0.498779  0.682420
    C   C2   0.501661  0.671677  0.501302  0.687109
    O   O5   0.377104  0.504282  0.583169  -0.633424
    O   O6   0.623048  0.496067  0.416911  -0.632280
    O   O7   0.379113  0.498749  0.413268  -0.643235
    O   O8   0.621037  0.501577  0.586815  -0.643106
    C   C3   0.338990  0.501957  0.497580  0.839650
    C   C4   0.661160  0.498383  0.502506  0.839716
    Cu  Cu1  0.498882  0.499747  0.598831  0.862472
    Cu  Cu2  0.501269  0.500589  0.401249  0.858318
    C   C5   0.978597  0.427011  0.546158  -0.263678
    C   C6   0.021508  0.573343  0.454073  -0.267126
    C   C7   0.029919  0.430344  0.451954  -0.122993
    C   C8   0.970179  0.570013  0.548279  -0.121236
    H   H1   0.055448  0.371909  0.411756  0.059580
    H   H2   0.944570  0.628409  0.588497  0.059170
    H   H3   0.942428  0.498464  0.333840  0.074906
    H   H4   0.057612  0.501887  0.666418  0.074655
    C   C9   0.248924  0.503224  0.496274  -0.147609
    C   C10  0.751221  0.497112  0.503843  -0.149979
    C   C11  0.031060  0.501138  0.590698  -0.172246
    C   C12  0.969042  0.499213  0.409539  -0.171722
    C   C13  0.081365  0.505177  0.496052  0.749182
    C   C14  0.918748  0.495171  0.504182  0.744784
    C   C15  0.173271  0.504413  0.495741  -0.407477
    C   C16  0.826863  0.495925  0.504438  -0.404153
    C   C17  0.496652  0.816304  0.589070  -0.196535
    C   C18  0.503498  0.184059  0.411019  -0.196220
    C   C19  0.501693  0.769548  0.501215  -0.054733
    C   C20  0.498458  0.230809  0.498873  -0.052805
    C   C21  0.506170  0.815819  0.412934  -0.194625
    C   C22  0.493961  0.184547  0.587154  -0.193819
    C   C23  0.505557  0.907850  0.412572  0.177605
    C   C24  0.494566  0.092521  0.587520  0.175878
    C   C25  0.500444  0.954152  0.500297  -0.008545
    C   C26  0.499704  0.046216  0.499797  -0.007664
    C   C27  0.496005  0.908379  0.588498  0.172968
    C   C28  0.504129  0.091989  0.411591  0.172705
    C   C29  0.509958  0.953663  0.324300  -0.223138
    C   C30  0.490093  0.046713  0.675787  -0.222307
    C   C31  0.509282  0.045569  0.323807  -0.212236
    C   C32  0.490777  0.954807  0.676277  -0.212203
    H   H5   0.492961  0.781415  0.658780  0.110997
    H   H6   0.507174  0.218952  0.341307  0.110134
    H   H7   0.510053  0.780613  0.343463  0.114426
    H   H8   0.490047  0.219760  0.656614  0.114065
    H   H9   0.513946  0.917867  0.255160  0.138774
    H   H10  0.486013  0.082509  0.744923  0.138731
    H   H11  0.512806  0.080885  0.254304  0.136546
    H   H12  0.487169  0.919499  0.745777  0.136160
    C   C33  0.548918  0.443451  0.795561  -0.184511
    C   C34  0.451201  0.556824  0.204505  -0.184624
    N   N1   0.497000  0.498705  0.746594  0.044130
    N   N2   0.503146  0.501611  0.253482  0.045573
    C   C35  0.447049  0.555973  0.795767  -0.193615
    C   C36  0.553014  0.444234  0.204316  -0.193456
    C   C37  0.445325  0.556283  0.898369  0.166729
    C   C38  0.554642  0.443798  0.101710  0.165246
    C   C39  0.498808  0.499898  0.949081  -0.035074
    C   C40  0.501160  0.500190  0.050992  -0.033194
    C   C41  0.550348  0.443166  0.897311  0.189237
    C   C42  0.449659  0.556975  0.102757  0.187475
    C   C43  0.392747  0.613072  0.951208  -0.116924
    C   C44  0.607115  0.386887  0.048858  -0.116049
    C   C45  0.396155  0.613530  0.053041  -0.223307
    C   C46  0.603755  0.386509  0.947023  -0.224770
    H   H13  0.589574  0.399047  0.754782  0.167770
    H   H14  0.410587  0.601285  0.245269  0.168167
    H   H15  0.408837  0.601282  0.753319  0.173548
    H   H16  0.591304  0.398991  0.246755  0.172692
    H   H17  0.355080  0.657356  0.094049  0.119221
    H   H18  0.644821  0.342686  0.905990  0.119486
    C   C47  0.332006  0.672168  0.902923  0.241998
    C   C48  0.338275  0.763323  0.915202  -0.186866
    C   C49  0.280110  0.819230  0.872086  -0.080087
    C   C50  0.214873  0.784158  0.817628  -0.140125
    C   C51  0.207476  0.693090  0.806815  -0.108191
    C   C52  0.265605  0.637126  0.849884  -0.167161
    H   H19  0.389320  0.791187  0.957815  0.109591
    H   H20  0.285630  0.890620  0.881091  0.102769
    H   H21  0.169264  0.828023  0.783919  0.116420
    H   H22  0.155943  0.665509  0.764798  0.117782
    H   H23  0.259053  0.565715  0.842063  0.109178
    C   C53  0.667682  0.327506  0.097032  0.243210
    C   C54  0.734385  0.362223  0.149797  -0.167274
    C   C55  0.792620  0.305989  0.192245  -0.110055
    C   C56  0.784941  0.214965  0.181211  -0.139762
    C   C57  0.719321  0.180207  0.127154  -0.080814
    C   C58  0.661123  0.236393  0.084548  -0.186538
    H   H24  0.741179  0.433595  0.157740  0.109348
    H   H25  0.844480  0.333324  0.233914  0.118744
    H   H26  0.830638  0.170890  0.214414  0.116735
    H   H27  0.713564  0.108854  0.117993  0.102963
    H   H28  0.609876  0.208788  0.042074  0.109349
    C   C59  0.964379  0.341040  0.600041  0.315582
    C   C60  0.033629  0.292291  0.629473  -0.248220
    C   C61  0.023833  0.212682  0.679096  -0.058276
    C   C62  0.944613  0.181114  0.699749  -0.169417
    C   C63  0.875258  0.229290  0.670733  -0.005881
    C   C64  0.884912  0.308968  0.621073  -0.327259
    H   H29  0.096127  0.316414  0.613627  0.130932
    H   H30  0.078387  0.175016  0.701789  0.099661
    H   H31  0.936869  0.118686  0.738640  0.108953
    H   H32  0.813027  0.204577  0.686922  0.082827
    H   H33  0.829477  0.344932  0.599464  0.157957
    C   C65  0.035766  0.659252  0.400078  0.318079
    C   C66  0.966542  0.707981  0.370503  -0.249813
    C   C67  0.976391  0.787440  0.320602  -0.057603
    C   C68  0.055633  0.818884  0.299831  -0.169725
    C   C69  0.124957  0.770746  0.329013  -0.005745
    C   C70  0.115253  0.691221  0.378947  -0.328038
    H   H34  0.904026  0.683947  0.386407  0.131675
    H   H35  0.921870  0.825082  0.297754  0.099532
    H   H36  0.063419  0.881190  0.260708  0.108849
    H   H37  0.187200  0.795367  0.312711  0.082938
    H   H38  0.170675  0.655287  0.400651  0.158048
