# Generated by REPEAT Assigner based on pymatgen
data_DB0-m29_o99_o470_f0_pts.sym.129
_audit_creation_date              2022-05-24
_audit_creation_method            REPEAT_Assigner
_cell_length_a                    15.974880
_cell_length_b                    12.070898
_cell_length_c                    13.665076
_cell_angle_alpha                 99.633464
_cell_angle_beta                  97.615680
_cell_angle_gamma                 99.501914
_cell_volume                      2527.258910
_symmetry_space_group_name_H-M    P1
_symmetry_Int_Tables_number       1
loop_
    _symmetry_equiv_pos_site_id
    _symmetry_equiv_pos_as_xyz
    1  x,y,z
loop_
    _atom_site_type_symbol
    _atom_site_label
    _atom_site_fract_x
    _atom_site_fract_y
    _atom_site_fract_z
    _atom_type_partial_charge
    C   C1   0.218101  0.018635  0.860938  0.442879
    C   C2   0.136553  0.015948  0.884034  -0.464726
    H   H1   0.082796  0.013356  0.826066  0.223411
    C   C3   0.123098  0.018434  0.981348  0.398284
    C   C4   0.190899  0.022491  0.056370  -0.279669
    H   H2   0.177864  0.022337  0.131923  0.173936
    C   C5   0.274006  0.028763  0.035542  -0.001721
    C   C6   0.287624  0.029539  0.936607  -0.158201
    C   C7   0.037743  0.015997  0.003883  -0.152362
    C   C8   0.965735  0.013440  0.021875  -0.119151
    C   C9   0.813304  0.013297  0.970875  -0.263030
    H   H3   0.827104  0.023065  0.897160  0.175602
    C   C10  0.730663  0.009289  0.992536  0.059740
    C   C11  0.715513  0.995095  0.088124  -0.171849
    C   C12  0.782438  0.985477  0.160001  0.369251
    C   C13  0.865187  0.997853  0.138977  -0.355167
    H   H4   0.918721  0.996709  0.195925  0.191978
    C   C14  0.880152  0.008843  0.044156  0.319521
    O   O1   0.529243  0.196178  0.772858  -0.595378
    C   C15  0.462965  0.201290  0.706703  0.649317
    O   O2   0.423800  0.151808  0.943524  -0.475799
    O   O3   0.398735  0.113528  0.682828  -0.609312
    O   O4   0.397154  0.975797  0.843040  -0.509040
    C   C16  0.373807  0.051048  0.909888  0.695121
    Fe  Fe1  0.508165  0.042181  0.807242  1.427914
    O   O5   0.589474  0.048262  0.934072  -0.543721
    O   O6   0.674235  0.002338  0.819054  -0.537495
    C   C17  0.661987  0.019652  0.912991  0.550529
    O   O7   0.521025  0.944307  0.678211  -0.521643
    O   O8   0.452116  0.790653  0.731725  -0.508196
    C   C18  0.491644  0.833381  0.664283  0.567906
    O   O9   0.504863  0.125095  0.360607  -0.563436
    O   O10  0.447020  0.249504  0.276754  -0.489193
    C   C19  0.478269  0.222596  0.361441  0.542371
    O   O11  0.424129  0.038102  0.104791  -0.548685
    O   O12  0.324556  0.014060  0.206532  -0.523090
    C   C20  0.343652  0.028701  0.118498  0.657455
    O   O13  0.595619  0.931956  0.350719  -0.539532
    O   O14  0.617011  0.067438  0.187968  -0.607771
    C   C21  0.630034  0.988544  0.116200  0.796520
    O   O15  0.463425  0.871321  0.257702  -0.620294
    C   C22  0.524984  0.853825  0.323754  0.693899
    O   O16  0.568794  0.899699  0.075941  -0.560322
    Fe  Fe2  0.503088  0.024216  0.227408  1.447099
    C   C23  0.474711  0.289875  0.461159  0.074834
    C   C24  0.468793  0.227040  0.536411  -0.172240
    C   C25  0.472749  0.277634  0.634696  0.111111
    C   C26  0.480591  0.394505  0.660072  -0.259684
    C   C27  0.482540  0.459761  0.585527  0.239075
    C   C28  0.480591  0.408807  0.485943  -0.002072
    C   C29  0.487320  0.576819  0.612207  -0.207388
    C   C30  0.488848  0.646020  0.540516  0.017588
    C   C31  0.490481  0.595375  0.441781  0.229724
    C   C32  0.487387  0.478930  0.415546  -0.185038
    C   C33  0.493006  0.764902  0.564315  0.057842
    C   C34  0.502052  0.827595  0.489293  -0.191796
    C   C35  0.504955  0.777322  0.392918  0.087511
    C   C36  0.497988  0.660857  0.368100  -0.233499
    H   H5   0.461368  0.134974  0.519477  0.178082
    H   H6   0.482154  0.434080  0.737507  0.180897
    H   H7   0.506595  0.919252  0.504003  0.161117
    H   H8   0.502039  0.621931  0.292085  0.170610
    H   H9   0.491400  0.445529  0.338748  0.143457
    H   H10  0.491453  0.612049  0.690689  0.159673
    O   O17  0.230947  0.019745  0.763924  -0.379506
    C   C37  0.197647  0.908206  0.710760  0.229773
    H   H11  0.127080  0.897268  0.687905  -0.035668
    H   H12  0.212094  0.845765  0.758560  -0.025194
    C   C38  0.238185  0.886790  0.616863  0.271847
    H   H13  0.228321  0.953366  0.571876  -0.015496
    H   H14  0.308030  0.890350  0.638592  0.020467
    C   C39  0.197172  0.769832  0.554190  -0.457356
    H   H15  0.205682  0.702896  0.599179  0.094234
    H   H16  0.228470  0.754282  0.486750  0.098069
    H   H17  0.127571  0.766285  0.529889  0.096417
    O   O18  0.766537  0.970235  0.253734  -0.312129
    C   C40  0.780504  0.860852  0.266162  0.089921
    H   H18  0.773085  0.852462  0.344269  0.054195
    H   H19  0.846795  0.850061  0.257627  0.005013
    C   C41  0.715557  0.765337  0.194700  0.219950
    H   H20  0.649580  0.780804  0.198469  -0.026695
    H   H21  0.728155  0.759684  0.116307  -0.040422
    C   C42  0.722307  0.651658  0.225305  -0.289938
    H   H22  0.788815  0.636180  0.225116  0.062914
    H   H23  0.676948  0.582019  0.171000  0.082920
    H   H24  0.705535  0.652379  0.301579  0.032933
