data_DB0-m29_o96_o1470_f0_pts.sym.110_repeat
_audit_creation_date              2024-02-24
_audit_creation_method            'Materials Studio'
_symmetry_space_group_name_H-M    'P1'
_symmetry_Int_Tables_number       1
_symmetry_cell_setting            triclinic
loop_
_symmetry_equiv_pos_as_xyz
  x,y,z
_cell_length_a                    17.3854
_cell_length_b                    12.0901
_cell_length_c                    18.9428
_cell_angle_alpha                 88.7531
_cell_angle_beta                  90.6221
_cell_angle_gamma                 108.5885
loop_
_atom_site_label
_atom_site_type_symbol
_atom_site_fract_x
_atom_site_fract_y
_atom_site_fract_z
_atom_site_U_iso_or_equiv
_atom_site_adp_type
_atom_site_occupancy
C1     C     0.22126   0.00787   0.10497   0.00000  Uiso   1.00
C2     C     0.16657   0.96979   0.15797   0.00000  Uiso   1.00
C3     C     0.09173   0.96543   0.13120   0.00000  Uiso   1.00
N1     N     0.09847   0.99624   0.06201   0.00000  Uiso   1.00
C4     C     0.17792   0.02152   0.04561   0.00000  Uiso   1.00
C5     C     0.02404   0.94184   0.16948   0.00000  Uiso   1.00
C6     C     0.94713   0.95396   0.14328   0.00000  Uiso   1.00
C7     C     0.89038   0.97838   0.18514   0.00000  Uiso   1.00
C8     C     0.82741   0.98104   0.14286   0.00000  Uiso   1.00
C9     C     0.84678   0.95846   0.07515   0.00000  Uiso   1.00
N2     N     0.91979   0.94050   0.07605   0.00000  Uiso   1.00
C10    C     0.79599   0.95602   0.01217   0.00000  Uiso   1.00
C11    C     0.82652   0.98332   0.94733   0.00000  Uiso   1.00
C12    C     0.78308   0.99715   0.88819   0.00000  Uiso   1.00
C13    C     0.83766   0.03643   0.83526   0.00000  Uiso   1.00
C14    C     0.91264   0.04102   0.86193   0.00000  Uiso   1.00
N3     N     0.90600   0.00943   0.93097   0.00000  Uiso   1.00
C15    C     0.98036   0.06496   0.82377   0.00000  Uiso   1.00
C16    C     0.05692   0.05143   0.84995   0.00000  Uiso   1.00
C17    C     0.11256   0.02458   0.80807   0.00000  Uiso   1.00
C18    C     0.17586   0.02196   0.84975   0.00000  Uiso   1.00
C19    C     0.15758   0.04636   0.91756   0.00000  Uiso   1.00
N4     N     0.08502   0.06581   0.91694   0.00000  Uiso   1.00
C20    C     0.20840   0.04804   0.98059   0.00000  Uiso   1.00
H1     H     0.02734   0.92363   0.22531   0.00000  Uiso   1.00
H2     H     0.73223   0.94333   0.02028   0.00000  Uiso   1.00
H3     H     0.97714   0.08380   0.76800   0.00000  Uiso   1.00
H4     H     0.27203   0.05975   0.97242   0.00000  Uiso   1.00
H5     H     0.94762   0.91392   0.03423   0.00000  Uiso   1.00
H6     H     0.05786   0.09360   0.95874   0.00000  Uiso   1.00
C21    C     0.10945   0.99898   0.73780   0.00000  Uiso   1.00
C22    C     0.17382   0.97193   0.70892   0.00000  Uiso   1.00
C23    C     0.24237   0.97601   0.75033   0.00000  Uiso   1.00
C24    C     0.24222   0.99842   0.82233   0.00000  Uiso   1.00
C25    C     0.30310   0.02741   0.11621   0.00000  Uiso   1.00
C26    C     0.32713   0.00226   0.18309   0.00000  Uiso   1.00
C27    C     0.26998   0.95834   0.23603   0.00000  Uiso   1.00
C28    C     0.18908   0.94358   0.22425   0.00000  Uiso   1.00
C29    C     0.89114   0.99959   0.25605   0.00000  Uiso   1.00
C30    C     0.82460   0.02183   0.28408   0.00000  Uiso   1.00
C31    C     0.75890   0.02326   0.24154   0.00000  Uiso   1.00
C32    C     0.76040   0.00377   0.16944   0.00000  Uiso   1.00
C33    C     0.70116   0.97668   0.87725   0.00000  Uiso   1.00
C34    C     0.67673   0.00231   0.81071   0.00000  Uiso   1.00
C35    C     0.73362   0.04766   0.75775   0.00000  Uiso   1.00
C36    C     0.81476   0.06316   0.76920   0.00000  Uiso   1.00
H7     H     0.05740   0.99710   0.70560   0.00000  Uiso   1.00
H8     H     0.29353   0.00052   0.85556   0.00000  Uiso   1.00
H9     H     0.34732   0.06103   0.07495   0.00000  Uiso   1.00
H10    H     0.28866   0.93972   0.28833   0.00000  Uiso   1.00
H11    H     0.14599   0.91199   0.26652   0.00000  Uiso   1.00
H12    H     0.94157   0.99878   0.28963   0.00000  Uiso   1.00
H13    H     0.71014   0.00440   0.13559   0.00000  Uiso   1.00
H14    H     0.65707   0.94187   0.91845   0.00000  Uiso   1.00
H15    H     0.71448   0.06666   0.70569   0.00000  Uiso   1.00
H16    H     0.85775   0.09570   0.72695   0.00000  Uiso   1.00
H17    H     0.82439   0.03705   0.34004   0.00000  Uiso   1.00
O1     O     0.62263   0.03764   0.23771   0.00000  Uiso   1.00
C37    C     0.68716   0.03885   0.27488   0.00000  Uiso   1.00
O2     O     0.53151   0.79697   0.31473   0.00000  Uiso   1.00
O3     O     0.68449   0.04368   0.34390   0.00000  Uiso   1.00
O4     O     0.51366   0.92901   0.38987   0.00000  Uiso   1.00
C38    C     0.51293   0.82218   0.37798   0.00000  Uiso   1.00
Fe1    Fe    0.53324   0.02907   0.30358   0.00000  Uiso   1.00
O5     O     0.42873   0.95841   0.25123   0.00000  Uiso   1.00
O6     O     0.46741   0.12216   0.18120   0.00000  Uiso   1.00
C39    C     0.41237   0.02471   0.20154   0.00000  Uiso   1.00
O7     O     0.56393   0.19464   0.33575   0.00000  Uiso   1.00
O8     O     0.43036   0.12661   0.36081   0.00000  Uiso   1.00
C40    C     0.50043   0.20924   0.36660   0.00000  Uiso   1.00
C41    C     0.51683   0.22059   0.49196   0.00000  Uiso   1.00
C42    C     0.50853   0.26523   0.55678   0.00000  Uiso   1.00
C43    C     0.50879   0.38104   0.55985   0.00000  Uiso   1.00
C44    C     0.50151   0.43413   0.62910   0.00000  Uiso   1.00
C45    C     0.53124   0.56565   0.62704   0.00000  Uiso   1.00
C46    C     0.51324   0.27956   0.43029   0.00000  Uiso   1.00
C47    C     0.50490   0.38949   0.43263   0.00000  Uiso   1.00
C48    C     0.50762   0.44317   0.49707   0.00000  Uiso   1.00
C49    C     0.50115   0.56148   0.49856   0.00000  Uiso   1.00
C50    C     0.50340   0.61502   0.56298   0.00000  Uiso   1.00
C51    C     0.49480   0.72482   0.56519   0.00000  Uiso   1.00
C52    C     0.47687   0.43902   0.36872   0.00000  Uiso   1.00
C53    C     0.50740   0.57047   0.36657   0.00000  Uiso   1.00
C54    C     0.49999   0.62356   0.43577   0.00000  Uiso   1.00
C55    C     0.49975   0.73909   0.43876   0.00000  Uiso   1.00
C56    C     0.49121   0.78367   0.50351   0.00000  Uiso   1.00
H18    H     0.43742   0.40250   0.64677   0.00000  Uiso   1.00
H19    H     0.50972   0.59512   0.67579   0.00000  Uiso   1.00
H20    H     0.40957   0.40969   0.36866   0.00000  Uiso   1.00
H21    H     0.46835   0.59450   0.32660   0.00000  Uiso   1.00
H22    H     0.51834   0.13250   0.48728   0.00000  Uiso   1.00
H23    H     0.48940   0.87161   0.50817   0.00000  Uiso   1.00
H24    H     0.54116   0.41077   0.66879   0.00000  Uiso   1.00
H25    H     0.59855   0.59582   0.62753   0.00000  Uiso   1.00
H26    H     0.49773   0.40907   0.31981   0.00000  Uiso   1.00
H27    H     0.57165   0.60127   0.34929   0.00000  Uiso   1.00
O9     O     0.57344   0.04635   0.74505   0.00000  Uiso   1.00
O10    O     0.53770   0.87806   0.81087   0.00000  Uiso   1.00
C57    C     0.59123   0.97828   0.79279   0.00000  Uiso   1.00
O11    O     0.44214   0.80794   0.65920   0.00000  Uiso   1.00
O12    O     0.57579   0.87905   0.63484   0.00000  Uiso   1.00
C58    C     0.50644   0.79497   0.62888   0.00000  Uiso   1.00
O13    O     0.47903   0.20843   0.68132   0.00000  Uiso   1.00
O14    O     0.37910   0.96196   0.75599   0.00000  Uiso   1.00
C59    C     0.31637   0.96490   0.71752   0.00000  Uiso   1.00
O15    O     0.49008   0.07349   0.60506   0.00000  Uiso   1.00
C60    C     0.49452   0.18172   0.61746   0.00000  Uiso   1.00
O16    O     0.32397   0.97015   0.64862   0.00000  Uiso   1.00
Fe2    Fe    0.47017   0.97334   0.69134   0.00000  Uiso   1.00
N5     N     0.16865   0.94220   0.63695   0.00000  Uiso   1.00
C61    C     0.14401   0.82602   0.62612   0.00000  Uiso   1.00
O17    O     0.14842   0.75879   0.67374   0.00000  Uiso   1.00
C62    C     0.11092   0.77877   0.55602   0.00000  Uiso   1.00
H28    H     0.14130   0.98752   0.60409   0.00000  Uiso   1.00
H29    H     0.11293   0.85058   0.51794   0.00000  Uiso   1.00
H30    H     0.04723   0.72154   0.56234   0.00000  Uiso   1.00
H31    H     0.14777   0.72698   0.53520   0.00000  Uiso   1.00
