# Generated by REPEAT Assigner based on pymatgen
data_DB0-m29_o97_o490_f0_pts.sym.70
_audit_creation_date              2022-05-24
_audit_creation_method            REPEAT_Assigner
_cell_length_a                    17.846400
_cell_length_b                    11.882165
_cell_length_c                    13.052838
_cell_angle_alpha                 91.682536
_cell_angle_beta                  81.675109
_cell_angle_gamma                 105.953819
_cell_volume                      2633.094372
_symmetry_space_group_name_H-M    P1
_symmetry_Int_Tables_number       1
loop_
    _symmetry_equiv_pos_site_id
    _symmetry_equiv_pos_as_xyz
    1  x,y,z
loop_
    _atom_site_type_symbol
    _atom_site_label
    _atom_site_fract_x
    _atom_site_fract_y
    _atom_site_fract_z
    _atom_type_partial_charge
    C   C1   0.251804  0.070384  0.148202  -0.194719
    C   C2   0.125780  0.094109  0.203974  -0.162890
    C   C3   0.305854  0.040307  0.075060  -0.066930
    C   C4   0.285941  0.001443  0.977990  -0.043122
    C   C5   0.177203  0.061629  0.128655  0.207863
    C   C6   0.153506  0.017099  0.036649  -0.001431
    C   C7   0.207050  0.983141  0.962355  0.087644
    C   C8   0.178829  0.924804  0.876943  -0.123394
    C   C9   0.050206  0.084432  0.188304  -0.168161
    C   C10  0.024069  0.041949  0.095390  0.051980
    C   C11  0.076189  0.005919  0.020057  0.017711
    C   C12  0.051312  0.957764  0.928778  0.038605
    C   C13  0.102746  0.912165  0.860554  -0.120923
    C   C14  0.893592  0.071789  0.148205  -0.151090
    C   C15  0.946853  0.032243  0.077526  0.066203
    C   C16  0.922588  0.986152  0.985181  -0.010625
    C   C17  0.975073  0.951598  0.909538  0.072581
    C   C18  0.950712  0.915004  0.814455  -0.174979
    C   C19  0.817624  0.058666  0.131253  -0.081443
    C   C20  0.791194  0.006244  0.042741  0.014235
    C   C21  0.845600  0.975779  0.967606  0.053434
    C   C22  0.823129  0.935942  0.873698  0.169369
    C   C23  0.713028  0.990319  0.025543  0.033418
    C   C24  0.694072  0.955999  0.927369  -0.088247
    C   C25  0.875643  0.907238  0.797418  -0.154631
    C   C26  0.748842  0.928838  0.853305  -0.167457
    H   H1   0.268994  0.102035  0.222161  0.125390
    H   H2   0.144286  0.127011  0.276989  0.140262
    H   H3   0.213415  0.881791  0.823312  0.141118
    H   H4   0.014125  0.109506  0.253042  0.142738
    H   H5   0.085838  0.861188  0.794127  0.120628
    H   H6   0.908052  0.116806  0.218174  0.130685
    H   H7   0.988640  0.895340  0.748821  0.147684
    H   H8   0.781553  0.096577  0.187535  0.124900
    H   H9   0.858446  0.879084  0.722695  0.140095
    H   H10  0.732587  0.901010  0.778072  0.127243
    O   O1   0.585786  0.023195  0.087298  -0.616598
    C   C27  0.649614  0.000667  0.110005  0.596857
    O   O2   0.526201  0.766993  0.210244  -0.452261
    O   O3   0.651758  0.972014  0.205654  -0.514942
    O   O4   0.477976  0.893424  0.317204  -0.573467
    C   C28  0.495961  0.793390  0.302473  0.526636
    Fe  Fe1  0.499400  0.010041  0.203815  1.460178
    O   O5   0.398147  0.960949  0.143755  -0.651079
    O   O6   0.431328  0.156954  0.111785  -0.587639
    C   C29  0.382889  0.052347  0.106139  0.863266
    O   O7   0.531788  0.168289  0.268157  -0.552990
    O   O8   0.409794  0.087718  0.353497  -0.523648
    C   C30  0.473678  0.175709  0.340113  0.561507
    O   O9   0.467515  0.841435  0.731078  -0.561448
    O   O10  0.591777  0.915870  0.650109  -0.533918
    C   C31  0.526175  0.830877  0.661453  0.601611
    O   O11  0.604830  0.040080  0.857365  -0.622487
    O   O12  0.566423  0.844531  0.893050  -0.597835
    C   C32  0.617405  0.947373  0.896480  0.833058
    O   O13  0.342222  0.004556  0.795602  -0.544464
    O   O14  0.526875  0.117408  0.686688  -0.585984
    C   C33  0.498344  0.208683  0.699151  0.626813
    O   O15  0.417648  0.985776  0.915419  -0.629978
    C   C34  0.349216  0.990741  0.892825  0.649844
    O   O16  0.453224  0.220911  0.785109  -0.426506
    Fe  Fe2  0.503208  0.997672  0.797889  1.457615
    C   C35  0.493018  0.211311  0.517162  -0.094739
    C   C36  0.501863  0.277326  0.605176  -0.056903
    C   C37  0.508929  0.397932  0.598804  0.038095
    C   C38  0.527237  0.474648  0.680439  -0.002052
    C   C39  0.525803  0.588970  0.672956  -0.189613
    C   C40  0.488596  0.258114  0.424736  -0.051118
    C   C41  0.490113  0.374541  0.418423  0.171275
    C   C42  0.500046  0.444697  0.505110  -0.002089
    C   C43  0.501626  0.562159  0.497273  0.033548
    C   C44  0.511543  0.632662  0.583280  0.112436
    C   C45  0.511405  0.748393  0.577029  -0.037778
    C   C46  0.479617  0.420357  0.327133  -0.219533
    C   C47  0.480598  0.535817  0.320050  -0.084134
    C   C48  0.493670  0.609229  0.403656  0.017755
    C   C49  0.497392  0.728223  0.396960  0.078128
    C   C50  0.505089  0.794489  0.485183  -0.160173
    H   H11  0.539322  0.644278  0.738661  0.205711
    H   H12  0.469735  0.367073  0.259358  0.215395
    H   H13  0.469345  0.565124  0.248030  0.127731
    H   H14  0.486369  0.118273  0.520060  0.160358
    H   H15  0.509513  0.886910  0.483915  0.179780
    C   C51  0.556658  0.445568  0.770111  0.302742
    N   N1   0.580885  0.423606  0.842397  -0.390707
