# Generated by REPEAT Assigner based on pymatgen
data_DB0-m2_o4_o22_f0_nbo.sym.18
_audit_creation_date              2022-05-24
_audit_creation_method            REPEAT_Assigner
_cell_length_a                    18.830883
_cell_length_b                    18.716205
_cell_length_c                    18.706589
_cell_angle_alpha                 109.273648
_cell_angle_beta                  109.968626
_cell_angle_gamma                 109.303067
_cell_volume                      5066.850144
_symmetry_space_group_name_H-M    P1
_symmetry_Int_Tables_number       1
loop_
    _symmetry_equiv_pos_site_id
    _symmetry_equiv_pos_as_xyz
    1  x,y,z
loop_
    _atom_site_type_symbol
    _atom_site_label
    _atom_site_fract_x
    _atom_site_fract_y
    _atom_site_fract_z
    _atom_type_partial_charge
    O   O1   0.423062  0.355700  0.457087  -0.603348
    O   O2   0.421232  0.464431  0.559316  -0.639912
    C   C1   0.392782  0.381742  0.508015  0.818751
    O   O3   0.597440  0.439035  0.542662  -0.596813
    O   O4   0.605390  0.550987  0.651309  -0.627768
    C   C2   0.630028  0.494143  0.625682  0.583680
    Cu  Cu1  0.510283  0.435951  0.445791  0.970087
    Cu  Cu2  0.515534  0.561378  0.571551  0.980644
    O   O5   0.603069  0.532936  0.456344  -0.617898
    O   O6   0.604436  0.641670  0.561990  -0.587736
    O   O7   0.418719  0.444675  0.366084  -0.619730
    O   O8   0.430138  0.559874  0.474676  -0.597582
    C   C3   0.633346  0.615610  0.509681  0.783308
    C   C4   0.395745  0.502990  0.391858  0.705665
    C   C5   0.710777  0.415924  0.655084  0.022328
    H   H1   0.737304  0.424202  0.611970  0.013811
    H   H2   0.648093  0.353378  0.615462  -0.022935
    C   C6   0.775108  0.412722  0.727862  -0.048506
    H   H3   0.740281  0.355944  0.733434  -0.003070
    H   H4   0.824799  0.405310  0.712067  0.021092
    H   H5   0.798516  0.583468  0.687061  0.022755
    H   H6   0.900800  0.567538  0.775562  0.026452
    C   C7   0.784122  0.576565  0.737929  -0.050108
    C   C8   0.675814  0.491075  0.765587  0.372171
    C   C9   0.698632  0.493089  0.694946  0.062748
    H   H7   0.667829  0.548189  0.793319  -0.055072
    C   C10  0.819151  0.496460  0.813968  0.241928
    C   C11  0.857306  0.573916  0.801953  -0.104648
    C   C12  0.751737  0.500683  0.839820  -0.332072
    H   H8   0.727971  0.448631  0.855502  0.083479
    H   H9   0.782389  0.564769  0.899078  0.055708
    H   H10  0.779502  0.633784  0.773635  0.017188
    H   H11  0.894827  0.635746  0.865571  0.042714
    C   C13  0.264449  0.234646  0.433671  0.202066
    C   C14  0.323579  0.315434  0.507029  -0.278175
    C   C15  0.314673  0.330987  0.580516  -0.008828
    H   H12  0.359871  0.393035  0.640635  0.118531
    C   C16  0.250307  0.265299  0.578978  -0.261539
    H   H13  0.246326  0.277333  0.637740  0.154830
    C   C17  0.190841  0.185168  0.502593  0.021499
    C   C18  0.199538  0.174289  0.430531  -0.001197
    C   C19  0.165503  0.108240  0.339042  0.050310
    C   C20  0.241426  0.179269  0.342409  -0.207641
    H   H14  0.173619  0.051113  0.334380  0.012340
    H   H15  0.291703  0.161546  0.340634  0.082633
    H   H16  0.219929  0.204821  0.298560  0.047614
    C   C21  0.255873  0.427979  0.253727  0.072687
    C   C22  0.328210  0.503943  0.324730  -0.122805
    C   C23  0.334504  0.581362  0.328827  -0.120653
    H   H17  0.390439  0.643287  0.383023  0.130909
    C   C24  0.270612  0.579818  0.261515  -0.142994
    H   H18  0.277454  0.640746  0.265065  0.148162
    C   C25  0.197576  0.501043  0.191737  -0.159244
    C   C26  0.193018  0.426683  0.192207  0.188368
    C   C27  0.138722  0.330097  0.141031  -0.195432
    C   C28  0.212337  0.331644  0.213898  -0.134290
    H   H19  0.076405  0.306509  0.141042  0.080145
    H   H20  0.134467  0.302285  0.076405  0.079607
    H   H21  0.191201  0.309653  0.254987  0.107018
    H   H22  0.248742  0.304071  0.189869  0.085281
    C   C29  0.704836  0.673872  0.436896  0.244183
    C   C30  0.703089  0.682238  0.511709  -0.256581
    C   C31  0.770084  0.758267  0.589732  -0.092215
    H   H23  0.772371  0.768224  0.650957  0.117364
    C   C32  0.835890  0.821496  0.590228  -0.103325
    H   H24  0.887756  0.880036  0.651587  0.126590
    C   C33  0.832882  0.811394  0.512162  -0.151839
    C   C34  0.764812  0.735947  0.436872  0.051139
    C   C35  0.726930  0.688424  0.340447  -0.099679
    C   C36  0.655794  0.615748  0.340373  -0.229366
    H   H25  0.701224  0.721752  0.308459  0.073134
    H   H26  0.769836  0.667769  0.322089  0.096550
    H   H27  0.590461  0.609034  0.309015  0.089277
    H   H28  0.658508  0.554385  0.321124  0.086105
    O   O9   0.955018  0.355799  0.906868  -0.640143
    O   O10  0.062452  0.465278  0.911926  -0.609246
    C   C37  0.011720  0.382633  0.882996  0.760196
    O   O11  0.866266  0.446145  0.914611  -0.588617
    O   O12  0.971499  0.554011  0.915400  -0.591166
    C   C38  0.889606  0.497478  0.883468  0.565714
    Cu  Cu3  0.948668  0.434238  0.000747  0.990865
    Cu  Cu4  0.070434  0.561116  0.004031  0.968959
    O   O13  0.953983  0.529899  0.090453  -0.629837
    O   O14  0.057603  0.639677  0.091404  -0.599787
    O   O15  0.047611  0.443923  0.091961  -0.611729
    O   O16  0.152686  0.555739  0.097000  -0.611678
    C   C39  0.009119  0.612533  0.123374  0.854027
    C   C40  0.129381  0.497893  0.121225  0.708518
    O   O17  0.068245  0.093727  0.648269  -0.583609
    O   O18  0.951916  0.080188  0.537782  -0.633002
    C   C41  0.009841  0.116226  0.620794  0.787201
    O   O19  0.153445  0.092054  0.559996  -0.569554
    O   O20  0.042917  0.079877  0.444827  -0.509546
    C   C42  0.125790  0.114931  0.501596  0.608672
    Cu  Cu5  0.075649  0.001045  0.569589  0.966905
    Cu  Cu6  0.947798  0.992288  0.441596  0.935115
    O   O21  0.070883  0.912458  0.473413  -0.600763
    O   O22  0.955941  0.900361  0.362843  -0.578041
    O   O23  0.980545  0.914258  0.567087  -0.614282
    O   O24  0.870089  0.900616  0.450609  -0.584788
    C   C43  0.013937  0.877417  0.390240  0.721944
    C   C44  0.897739  0.878709  0.509935  0.726718
    C   C45  0.936975  0.243761  0.744749  0.154685
    C   C46  0.012491  0.317247  0.814889  -0.199972
    C   C47  0.090076  0.325486  0.819522  -0.088350
    H   H29  0.151560  0.381887  0.873917  0.117015
    C   C48  0.089534  0.259229  0.756635  -0.122413
    H   H30  0.150666  0.265471  0.762405  0.136768
    C   C49  0.011248  0.186437  0.686172  -0.245809
    C   C50  0.936271  0.183029  0.682464  0.190212
    C   C51  0.840034  0.126853  0.631460  -0.166598
    C   C52  0.840792  0.198767  0.704481  -0.152325
    H   H31  0.810756  0.122782  0.566774  0.083060
    H   H32  0.818539  0.064174  0.631650  0.069939
    H   H33  0.812383  0.235294  0.680779  0.066656
    H   H34  0.819223  0.175989  0.744982  0.084648
    C   C53  0.938592  0.685383  0.182938  0.167785
    C   C54  0.010963  0.678269  0.193542  -0.246556
    C   C55  0.087535  0.738766  0.273318  -0.150891
    H   H35  0.146542  0.735883  0.284710  0.128679
    C   C56  0.088716  0.802625  0.339385  -0.036064
    H   H36  0.148965  0.848991  0.401208  0.117186
    C   C57  0.014133  0.808892  0.324472  -0.244077
    C   C58  0.940518  0.748460  0.244011  0.180230
    C   C59  0.847953  0.721839  0.189655  -0.105736
    C   C60  0.846051  0.647939  0.117588  -0.220197
    H   H37  0.807093  0.696823  0.215992  0.028142
    H   H38  0.841122  0.771142  0.171911  0.069269
    H   H39  0.803980  0.581574  0.103441  0.103497
    H   H40  0.838778  0.656618  0.060162  0.093132
    C   C61  0.074687  0.084507  0.273310  0.070861
    C   C62  0.054421  0.158540  0.297207  -0.087989
    H   H41  0.048492  0.172571  0.356616  -0.000497
    H   H42  0.104504  0.218622  0.307325  0.013629
    H   H43  0.990840  0.137761  0.242239  0.029210
    H   H44  0.068538  0.064199  0.207706  -0.012778
    H   H45  0.025581  0.028149  0.269342  -0.012143
    C   C63  0.590934  0.408195  0.729556  0.011187
    C   C64  0.552544  0.423699  0.788736  -0.232805
    H   H46  0.599774  0.444308  0.856540  0.027886
    H   H47  0.534917  0.474807  0.789416  0.054865
    H   H48  0.492722  0.362211  0.762797  0.062308
    H   H49  0.541346  0.389036  0.663496  -0.010109
    H   H50  0.602340  0.352689  0.724194  0.017561
