data_DB0-m3_o96_o6_f0_fsc.sym.9_repeat
_audit_creation_date              2024-02-23
_audit_creation_method            'Materials Studio'
_symmetry_space_group_name_H-M    'P1'
_symmetry_Int_Tables_number       1
_symmetry_cell_setting            triclinic
loop_
_symmetry_equiv_pos_as_xyz
  x,y,z
_cell_length_a                    13.2221
_cell_length_b                    13.8328
_cell_length_c                    15.9371
_cell_angle_alpha                 94.5777
_cell_angle_beta                  90.0467
_cell_angle_gamma                 90.6439
loop_
_atom_site_label
_atom_site_type_symbol
_atom_site_fract_x
_atom_site_fract_y
_atom_site_fract_z
_atom_site_U_iso_or_equiv
_atom_site_adp_type
_atom_site_occupancy
C1     C     0.82968   0.06304   0.22402   0.00000  Uiso   1.00
C2     C     0.17099   0.93839   0.77671   0.00000  Uiso   1.00
C3     C     0.77489   0.11250   0.16956   0.00000  Uiso   1.00
C4     C     0.22573   0.88899   0.83126   0.00000  Uiso   1.00
C5     C     0.82493   0.10603   0.09369   0.00000  Uiso   1.00
C6     C     0.17572   0.89567   0.90715   0.00000  Uiso   1.00
N1     N     0.91232   0.05765   0.10110   0.00000  Uiso   1.00
N2     N     0.08845   0.94422   0.89970   0.00000  Uiso   1.00
C7     C     0.91658   0.03310   0.18168   0.00000  Uiso   1.00
C8     C     0.08420   0.96866   0.81908   0.00000  Uiso   1.00
C9     C     0.78605   0.13426   0.02204   0.00000  Uiso   1.00
C10    C     0.21457   0.86744   0.97881   0.00000  Uiso   1.00
C11    C     0.82209   0.10196   0.93718   0.00000  Uiso   1.00
C12    C     0.17864   0.89982   0.06368   0.00000  Uiso   1.00
C13    C     0.76160   0.09229   0.86618   0.00000  Uiso   1.00
C14    C     0.23913   0.90927   0.13469   0.00000  Uiso   1.00
C15    C     0.81893   0.05352   0.80143   0.00000  Uiso   1.00
C16    C     0.18190   0.94819   0.19944   0.00000  Uiso   1.00
C17    C     0.91503   0.04180   0.83402   0.00000  Uiso   1.00
C18    C     0.08586   0.96020   0.16684   0.00000  Uiso   1.00
N3     N     0.91627   0.07239   0.91679   0.00000  Uiso   1.00
N4     N     0.08456   0.92964   0.08407   0.00000  Uiso   1.00
C19    C     0.00471   0.01064   0.78535   0.00000  Uiso   1.00
C20    C     0.99623   0.99150   0.21551   0.00000  Uiso   1.00
H1     H     0.71425   0.17061   0.02497   0.00000  Uiso   1.00
H2     H     0.28628   0.83092   0.97589   0.00000  Uiso   1.00
H3     H     0.00237   0.01829   0.71852   0.00000  Uiso   1.00
H4     H     0.99860   0.98424   0.28243   0.00000  Uiso   1.00
H5     H     0.97921   0.07864   0.95618   0.00000  Uiso   1.00
H6     H     0.02163   0.92352   0.04467   0.00000  Uiso   1.00
C21    C     0.33880   0.88648   0.14561   0.00000  Uiso   1.00
C22    C     0.66183   0.11471   0.85528   0.00000  Uiso   1.00
C23    C     0.38006   0.90385   0.22511   0.00000  Uiso   1.00
C24    C     0.62057   0.09714   0.77580   0.00000  Uiso   1.00
C25    C     0.32395   0.94672   0.29165   0.00000  Uiso   1.00
C26    C     0.67679   0.05443   0.70926   0.00000  Uiso   1.00
C27    C     0.22285   0.96989   0.27910   0.00000  Uiso   1.00
C28    C     0.77799   0.03162   0.72179   0.00000  Uiso   1.00
C29    C     0.78951   0.04126   0.30049   0.00000  Uiso   1.00
C30    C     0.21112   0.95963   0.70005   0.00000  Uiso   1.00
C31    C     0.69426   0.07622   0.32115   0.00000  Uiso   1.00
C32    C     0.30647   0.92481   0.67966   0.00000  Uiso   1.00
C33    C     0.64386   0.13494   0.26837   0.00000  Uiso   1.00
C34    C     0.35686   0.86629   0.73259   0.00000  Uiso   1.00
C35    C     0.68279   0.15182   0.19094   0.00000  Uiso   1.00
C36    C     0.31779   0.84952   0.80998   0.00000  Uiso   1.00
H7     H     0.38450   0.85524   0.09449   0.00000  Uiso   1.00
H8     H     0.61605   0.14582   0.90640   0.00000  Uiso   1.00
H9     H     0.17797   0.00275   0.33013   0.00000  Uiso   1.00
H10    H     0.82296   0.99891   0.67076   0.00000  Uiso   1.00
H11    H     0.56918   0.16157   0.28416   0.00000  Uiso   1.00
H12    H     0.43159   0.83972   0.71691   0.00000  Uiso   1.00
H13    H     0.63919   0.19222   0.14869   0.00000  Uiso   1.00
H14    H     0.36136   0.80920   0.85232   0.00000  Uiso   1.00
H15    H     0.45855   0.88656   0.23464   0.00000  Uiso   1.00
H16    H     0.54201   0.11417   0.76629   0.00000  Uiso   1.00
O1     O     0.37608   0.05417   0.41104   0.00000  Uiso   1.00
O2     O     0.62467   0.94693   0.58986   0.00000  Uiso   1.00
O3     O     0.43470   0.89755   0.39732   0.00000  Uiso   1.00
O4     O     0.56604   0.10354   0.60359   0.00000  Uiso   1.00
C37    C     0.37635   0.96619   0.37298   0.00000  Uiso   1.00
C38    C     0.62440   0.03491   0.62793   0.00000  Uiso   1.00
O5     O     0.63604   0.95500   0.40963   0.00000  Uiso   1.00
O6     O     0.36469   0.04610   0.59127   0.00000  Uiso   1.00
O7     O     0.57769   0.11155   0.42913   0.00000  Uiso   1.00
O8     O     0.42307   0.88952   0.57178   0.00000  Uiso   1.00
C39    C     0.63861   0.04687   0.39379   0.00000  Uiso   1.00
C40    C     0.36217   0.95422   0.60710   0.00000  Uiso   1.00
Zn1    Zn    0.53817   0.89914   0.49034   0.00000  Uiso   1.00
Zn2    Zn    0.46258   0.10195   0.51057   0.00000  Uiso   1.00
C41    C     0.57078   0.43286   0.51839   0.00000  Uiso   1.00
C42    C     0.42999   0.56824   0.48251   0.00000  Uiso   1.00
H17    H     0.62623   0.37933   0.53178   0.00000  Uiso   1.00
H18    H     0.37453   0.62177   0.46911   0.00000  Uiso   1.00
C43    C     0.46976   0.40652   0.51158   0.00000  Uiso   1.00
C44    C     0.53100   0.59457   0.48932   0.00000  Uiso   1.00
C45    C     0.39928   0.47432   0.49324   0.00000  Uiso   1.00
C46    C     0.60149   0.52677   0.50766   0.00000  Uiso   1.00
C47    C     0.44153   0.30672   0.51812   0.00000  Uiso   1.00
C48    C     0.55923   0.69438   0.48278   0.00000  Uiso   1.00
N5     N     0.57337   0.77678   0.47981   0.00000  Uiso   1.00
N6     N     0.42739   0.22431   0.52109   0.00000  Uiso   1.00
O9     O     0.70132   0.55240   0.51558   0.00000  Uiso   1.00
H19    H     0.71114   0.56864   0.57669   0.00000  Uiso   1.00
O10    O     0.29945   0.44869   0.48531   0.00000  Uiso   1.00
H20    H     0.28963   0.43245   0.42420   0.00000  Uiso   1.00
O11    O     0.83741   0.98161   0.35172   0.00000  Uiso   1.00
H21    H     0.82016   0.91522   0.32774   0.00000  Uiso   1.00
O12    O     0.16312   0.01853   0.64826   0.00000  Uiso   1.00
H22    H     0.13047   0.97337   0.60481   0.00000  Uiso   1.00
