# Generated by REPEAT Assigner based on pymatgen
data_DB0-m2_o25_o28_f0_pcu.sym.99_sqe
_audit_creation_date              2022-05-24
_audit_creation_method            REPEAT_Assigner
_cell_length_a                    23.353679
_cell_length_b                    15.936437
_cell_length_c                    14.498632
_cell_angle_alpha                 90.007059
_cell_angle_beta                  89.998985
_cell_angle_gamma                 90.008060
_cell_volume                      5396.019725
_symmetry_space_group_name_H-M    P1
_symmetry_Int_Tables_number       1
loop_
    _symmetry_equiv_pos_site_id
    _symmetry_equiv_pos_as_xyz
    1  x,y,z
loop_
    _atom_site_type_symbol
    _atom_site_label
    _atom_site_fract_x
    _atom_site_fract_y
    _atom_site_fract_z
    _atom_type_partial_charge
    O   O1    0.500987  0.379651  0.578823  -0.582275
    O   O2    0.498346  0.622757  0.419708  -0.582300
    O   O3    0.496116  0.378894  0.420251  -0.561079
    O   O4    0.503212  0.623512  0.578282  -0.561268
    C   C1    0.498161  0.340187  0.499808  0.756597
    C   C2    0.501169  0.662219  0.498726  0.753942
    O   O5    0.416910  0.506119  0.579333  -0.509170
    O   O6    0.582420  0.496285  0.419198  -0.512716
    O   O7    0.416021  0.499464  0.420897  -0.527095
    O   O8    0.583311  0.502949  0.577634  -0.522863
    C   C3    0.389578  0.503213  0.500446  0.524967
    C   C4    0.609753  0.499209  0.498081  0.526767
    Cu  Cu1   0.500148  0.501638  0.591510  0.872081
    Cu  Cu2   0.499182  0.500769  0.407022  0.874315
    C   C5    0.880402  0.567581  0.527025  0.433917
    C   C6    0.118930  0.435122  0.471199  0.430922
    N   N1    0.852305  0.499317  0.496662  -0.131842
    N   N2    0.147025  0.503333  0.501711  -0.129325
    C   C7    0.880912  0.431004  0.467014  0.359564
    C   C8    0.118411  0.571540  0.531636  0.361103
    C   C9    0.940822  0.430207  0.466033  -0.082865
    C   C10   0.058503  0.572257  0.532815  -0.085572
    C   C11   0.969973  0.500227  0.498413  0.027195
    C   C12   0.029353  0.502250  0.500405  0.022259
    C   C13   0.939447  0.568718  0.528821  -0.019590
    C   C14   0.059883  0.433892  0.469655  -0.004371
    C   C15   0.972568  0.361491  0.434825  0.025468
    C   C16   0.026741  0.640828  0.564424  0.033114
    C   C17   0.031397  0.364227  0.437114  -0.152066
    C   C18   0.967934  0.638449  0.561199  -0.146664
    O   O9    0.850609  0.635291  0.554408  -0.481235
    O   O10   0.148725  0.367514  0.443516  -0.479631
    O   O11   0.850370  0.363465  0.441504  -0.420613
    O   O12   0.148939  0.639014  0.557395  -0.423420
    H   H1    0.054648  0.310355  0.411788  0.100436
    H   H2    0.944683  0.692535  0.585966  0.100086
    C   C19   0.238009  0.510004  0.583364  -0.067574
    C   C20   0.761624  0.505251  0.578993  -0.142426
    H   H3    0.215190  0.514262  0.648071  0.113355
    H   H4    0.784643  0.509772  0.643495  0.124397
    C   C21   0.297059  0.509910  0.583226  -0.282103
    C   C22   0.702610  0.505229  0.579383  -0.094519
    H   H5    0.319445  0.514665  0.648211  0.195467
    H   H6    0.680516  0.510563  0.644574  0.112375
    C   C23   0.326779  0.503675  0.501002  0.103777
    C   C24   0.672552  0.498812  0.497495  0.092255
    C   C25   0.296740  0.497431  0.419079  -0.096537
    C   C26   0.702253  0.492491  0.415261  -0.254018
    H   H7    0.318847  0.492172  0.353894  0.114034
    H   H8    0.679854  0.487599  0.350301  0.189306
    C   C27   0.237726  0.497492  0.419421  -0.144745
    C   C28   0.761303  0.492469  0.415076  -0.101776
    H   H9    0.214725  0.493099  0.354892  0.121846
    H   H10   0.784105  0.488122  0.350362  0.118375
    C   C29   0.208123  0.503763  0.501503  0.157425
    C   C30   0.791207  0.498882  0.496901  0.169188
    C   C31   0.546231  0.979071  0.545452  0.134247
    C   C32   0.453097  0.023333  0.453134  0.130331
    C   C33   0.544560  0.037716  0.462547  -0.183411
    C   C34   0.454769  0.964688  0.536040  -0.185290
    H   H11   0.582313  0.069198  0.431650  0.074636
    H   H12   0.417016  0.933206  0.566935  0.076359
    C   C35   0.496502  0.250218  0.500735  -0.201089
    C   C36   0.502827  0.752187  0.497809  -0.196328
    C   C37   0.495026  0.024016  0.586850  0.116348
    C   C38   0.504303  0.978389  0.411736  0.118601
    C   C39   0.493161  0.082635  0.504089  0.022389
    C   C40   0.506167  0.919770  0.494495  0.024174
    C   C41   0.494763  0.174619  0.502281  0.022685
    C   C42   0.504565  0.827786  0.496284  0.018807
    C   C43   0.487471  0.576409  0.966162  -0.064028
    C   C44   0.511863  0.426003  0.032369  -0.046954
    C   C45   0.447283  0.522428  0.023104  -0.088262
    C   C46   0.552052  0.479985  0.975428  -0.126760
    H   H13   0.477555  0.639134  0.937182  0.059853
    H   H14   0.521777  0.363276  0.061348  0.058847
    H   H15   0.432495  0.398938  0.937506  0.078623
    H   H16   0.566842  0.603468  0.061031  0.075786
    N   N3    0.498488  0.500399  0.269086  -0.117578
    N   N4    0.500842  0.502007  0.729445  -0.118096
    C   C47   0.536553  0.556656  0.032342  -0.131231
    C   C48   0.462781  0.445756  0.966191  -0.151094
    C   C49   0.496047  0.502737  0.088353  0.460409
    C   C50   0.503287  0.499675  0.910179  0.487804
    C   C51   0.497357  0.501357  0.189311  -0.095910
    C   C52   0.501974  0.501050  0.809221  -0.102242
    C   C53   0.947092  0.285762  0.395236  0.350498
    C   C54   0.940010  0.214745  0.448637  -0.069385
    Cl  Cl1   0.958955  0.215721  0.565540  -0.085896
    C   C55   0.917275  0.142955  0.410181  -0.032343
    C   C56   0.902069  0.141757  0.318307  -0.182752
    C   C57   0.909735  0.212308  0.264703  -0.057669
    C   C58   0.932431  0.284152  0.303036  -0.277324
    H   H17   0.911400  0.087537  0.452104  0.097600
    H   H18   0.884289  0.085417  0.288242  0.128266
    H   H19   0.898052  0.211247  0.192575  0.113299
    H   H20   0.938670  0.339344  0.260891  0.128852
    C   C59   0.052145  0.717341  0.602279  0.333060
    C   C60   0.067567  0.721296  0.694181  -0.054817
    Cl  Cl2   0.058444  0.633885  0.765948  -0.096843
    C   C61   0.090136  0.794394  0.729804  -0.049394
    C   C62   0.096813  0.863777  0.674040  -0.182068
    C   C63   0.080602  0.860281  0.582696  -0.046993
    C   C64   0.058008  0.787264  0.546967  -0.266799
    H   H21   0.102440  0.797382  0.801598  0.102345
    H   H22   0.114462  0.921064  0.702073  0.131833
    H   H23   0.085497  0.914847  0.539129  0.103316
    H   H24   0.045119  0.784660  0.475422  0.130674
    C   C65   0.386169  0.548190  0.043118  0.165699
    C   C66   0.347200  0.560699  0.971585  -0.013078
    Cl  Cl3   0.365636  0.548188  0.855259  -0.080835
    C   C67   0.291598  0.584297  0.990506  -0.062689
    C   C68   0.273848  0.596317  0.079868  -0.178741
    C   C69   0.311915  0.584950  0.150938  0.017609
    C   C70   0.367528  0.561121  0.132910  -0.288711
    H   H25   0.261758  0.593675  0.934457  0.114187
    H   H26   0.230247  0.615018  0.094122  0.128205
    H   H27   0.298217  0.595017  0.221267  0.082918
    H   H28   0.395598  0.553762  0.190865  0.160299
    C   C71   0.613169  0.454242  0.955418  0.188332
    C   C72   0.652120  0.441647  0.026960  -0.017770
    Cl  Cl4   0.633656  0.454035  0.143290  -0.080524
    C   C73   0.707725  0.418068  0.008043  -0.072310
    C   C74   0.725501  0.406163  0.918676  -0.189307
    C   C75   0.687456  0.417633  0.847594  0.023372
    C   C76   0.631838  0.441440  0.865618  -0.291145
    H   H29   0.737550  0.408619  0.064099  0.120700
    H   H30   0.769106  0.387480  0.904425  0.135397
    H   H31   0.701177  0.407670  0.777258  0.081824
    H   H32   0.603791  0.448900  0.807652  0.160034
    C   C77   0.602600  0.962052  0.593656  0.091733
    C   C78   0.633861  0.026812  0.634347  0.020572
    Cl  Cl5   0.611758  0.131842  0.631299  -0.088913
    C   C79   0.685074  0.010077  0.678059  -0.104623
    C   C80   0.706384  0.929789  0.681368  -0.114134
    C   C81   0.676678  0.865760  0.639840  -0.124992
    C   C82   0.625481  0.881705  0.596002  -0.147075
    H   H33   0.708839  0.060738  0.709568  0.097311
    H   H34   0.746604  0.917262  0.715589  0.117068
    H   H35   0.693624  0.802658  0.641226  0.122456
    H   H36   0.604437  0.829750  0.563477  0.088823
    C   C83   0.396724  0.040345  0.404944  0.099485
    C   C84   0.365466  0.975584  0.364249  0.016311
    Cl  Cl6   0.387583  0.870560  0.367268  -0.089360
    C   C85   0.314245  0.992312  0.320558  -0.104135
    C   C86   0.292924  0.072595  0.317275  -0.118933
    C   C87   0.322625  0.136625  0.358810  -0.122282
    C   C88   0.373830  0.120686  0.402627  -0.149448
    H   H37   0.290483  0.941650  0.289044  0.098902
    H   H38   0.252697  0.085117  0.283071  0.119477
    H   H39   0.305670  0.199721  0.357446  0.122055
    H   H40   0.394870  0.172639  0.435163  0.089516
    C   C89   0.513719  0.960663  0.310185  0.087263
    C   C90   0.511814  0.024938  0.244948  0.028319
    Cl  Cl7   0.499929  0.130124  0.274492  -0.092978
    C   C91   0.520474  0.007582  0.152766  -0.127957
    C   C92   0.531654  0.927140  0.123861  -0.091373
    C   C93   0.534844  0.863573  0.187554  -0.169150
    C   C94   0.526296  0.880148  0.279805  -0.111089
    H   H41   0.518802  0.057883  0.102843  0.107255
    H   H42   0.538541  0.914138  0.051540  0.108580
    H   H43   0.544337  0.800346  0.165296  0.126038
    H   H44   0.530135  0.828545  0.326825  0.080226
    C   C95   0.485614  0.041744  0.688401  0.089956
    C   C96   0.487508  0.977467  0.753638  0.029030
    Cl  Cl8   0.499374  0.872276  0.724094  -0.092990
    C   C97   0.478852  0.994826  0.845821  -0.129505
    C   C98   0.467690  0.075274  0.874727  -0.090159
    C   C99   0.464515  0.138843  0.811034  -0.167951
    C   C100  0.473058  0.122265  0.718783  -0.116490
    H   H45   0.480515  0.944525  0.895743  0.108033
    H   H46   0.460807  0.088279  0.947047  0.108596
    H   H47   0.455038  0.202076  0.833294  0.126027
    H   H48   0.469234  0.173871  0.671763  0.083073
