# Generated by REPEAT Assigner based on pymatgen
data_DB0-m29_o85_o111_f0_pts.sym.23
_audit_creation_date              2022-05-24
_audit_creation_method            REPEAT_Assigner
_cell_length_a                    13.470079
_cell_length_b                    17.127231
_cell_length_c                    11.370978
_cell_angle_alpha                 107.877508
_cell_angle_beta                  85.846156
_cell_angle_gamma                 111.183862
_cell_volume                      2325.772125
_symmetry_space_group_name_H-M    P1
_symmetry_Int_Tables_number       1
loop_
    _symmetry_equiv_pos_site_id
    _symmetry_equiv_pos_as_xyz
    1  x,y,z
loop_
    _atom_site_type_symbol
    _atom_site_label
    _atom_site_fract_x
    _atom_site_fract_y
    _atom_site_fract_z
    _atom_type_partial_charge
    C   C1   0.149363  0.965846  0.143243  -0.279723
    H   H1   0.158244  0.942353  0.218242  0.191997
    C   C2   0.050391  0.961673  0.109517  0.281691
    C   C3   0.042368  0.997649  0.017743  -0.109513
    C   C4   0.131606  0.026752  0.951409  -0.155355
    H   H2   0.126184  0.051621  0.876663  0.144250
    C   C5   0.228274  0.023680  0.978499  0.003408
    C   C6   0.238796  0.000533  0.082261  -0.000666
    C   C7   0.913116  0.988548  0.864680  -0.181617
    H   H3   0.963149  0.971149  0.790331  0.121586
    C   C8   0.819563  0.994584  0.835169  -0.120632
    H   H4   0.799286  0.982987  0.739514  0.141710
    C   C9   0.747811  0.008625  0.924255  -0.026599
    C   C10  0.771672  0.019884  0.046819  0.086890
    C   C11  0.870378  0.021298  0.077044  -0.310444
    H   H5   0.892889  0.037450  0.173029  0.150471
    C   C12  0.940054  0.002061  0.986221  0.277619
    O   O1   0.601542  0.029389  0.123257  -0.457784
    C   C13  0.694375  0.026599  0.145225  0.497732
    O   O2   0.499322  0.848601  0.168161  -0.524562
    O   O3   0.715105  0.022995  0.254036  -0.506265
    O   O4   0.502032  0.939677  0.360904  -0.485252
    C   C14  0.499415  0.862682  0.288293  0.571546
    Fe  Fe1  0.506941  0.018834  0.263470  1.440109
    O   O5   0.356609  0.967493  0.193518  -0.594965
    O   O6   0.422862  0.090886  0.134895  -0.500776
    C   C15  0.343662  0.018327  0.134819  0.636358
    O   O7   0.562766  0.141960  0.378406  -0.599210
    O   O8   0.403778  0.086888  0.461099  -0.532212
    C   C16  0.494192  0.151877  0.464689  0.646346
    O   O9   0.434991  0.895497  0.635490  -0.615620
    O   O10  0.602247  0.951244  0.571527  -0.542635
    C   C17  0.510455  0.886163  0.558674  0.666853
    O   O11  0.637617  0.061513  0.835655  -0.562723
    O   O12  0.562122  0.929680  0.871687  -0.498854
    C   C18  0.644725  0.002051  0.881665  0.631337
    O   O13  0.306913  0.066952  0.800073  -0.497682
    O   O14  0.507235  0.100520  0.663967  -0.467124
    C   C19  0.520267  0.180033  0.736222  0.542055
    O   O15  0.388915  0.003598  0.890196  -0.489371
    C   C20  0.314158  0.036196  0.890193  0.547328
    O   O16  0.526635  0.196175  0.856515  -0.482558
    Fe  Fe2  0.491002  0.016346  0.756930  1.421822
    C   C21  0.311885  0.537201  0.500899  -0.167341
    C   C22  0.222611  0.481123  0.538323  -0.103450
    C   C23  0.230318  0.416731  0.581062  -0.050006
    C   C24  0.327300  0.407951  0.586455  -0.221174
    C   C25  0.418450  0.464322  0.549356  0.183222
    C   C26  0.410655  0.529542  0.506475  0.194635
    C   C27  0.516586  0.455379  0.554006  -0.291254
    C   C28  0.606903  0.511684  0.515937  0.134775
    C   C29  0.599242  0.577154  0.473543  0.234933
    C   C30  0.501005  0.585932  0.468475  -0.336480
    C   C31  0.705471  0.503536  0.520764  -0.140480
    C   C32  0.794917  0.559863  0.484019  -0.104561
    C   C33  0.787570  0.625026  0.442829  -0.051005
    C   C34  0.690693  0.634046  0.437711  -0.239937
    H   H6   0.300981  0.586090  0.467156  0.122144
    H   H7   0.328334  0.355767  0.620029  0.142191
    H   H8   0.716035  0.453971  0.553229  0.106704
    H   H9   0.690065  0.686985  0.405675  0.135497
    C   C35  0.490080  0.643981  0.298542  -0.306940
    H   H10  0.489041  0.582601  0.233216  0.146274
    C   C36  0.490711  0.711530  0.256447  -0.055606
    H   H11  0.489157  0.700820  0.157796  0.128417
    C   C37  0.495851  0.791832  0.338740  -0.076599
    C   C38  0.496625  0.802090  0.465286  0.045659
    C   C39  0.494340  0.733480  0.506272  -0.315046
    H   H12  0.498727  0.742746  0.604427  0.157206
    C   C40  0.493193  0.655165  0.423529  0.441490
    C   C41  0.515651  0.305659  0.516335  -0.306114
    H   H13  0.505429  0.294831  0.418484  0.156924
    C   C42  0.513532  0.237257  0.557729  0.043577
    C   C43  0.523296  0.250240  0.684544  -0.019940
    C   C44  0.535787  0.332540  0.766014  -0.102879
    H   H14  0.543957  0.345251  0.864591  0.143254
    C   C45  0.535492  0.399658  0.723495  -0.287752
    H   H15  0.542461  0.462731  0.788482  0.138378
    C   C46  0.524365  0.386080  0.598718  0.444579
    H   H16  0.146202  0.487613  0.533685  0.124544
    H   H17  0.159970  0.372595  0.610100  0.116356
    H   H18  0.871200  0.553057  0.488175  0.125909
    H   H19  0.858108  0.669532  0.414681  0.104074
    N   N1   0.957432  0.916672  0.162718  -0.003667
    C   C47  0.919207  0.823391  0.102848  -0.213930
    C   C48  0.965148  0.938267  0.295453  -0.190286
    H   H20  0.906543  0.810078  0.002250  0.071631
    H   H21  0.842535  0.791797  0.141581  0.109900
    H   H22  0.978314  0.795544  0.117328  0.087854
    H   H23  0.007945  0.009868  0.336483  0.089606
    H   H24  0.006868  0.900922  0.322821  0.076393
    H   H25  0.883844  0.920636  0.331464  0.119356
