# Generated by REPEAT Assigner based on pymatgen
data_DB0-m2_o6_o20_f0_nbo.sym.163
_audit_creation_date              2022-05-24
_audit_creation_method            REPEAT_Assigner
_cell_length_a                    27.080204
_cell_length_b                    27.455741
_cell_length_c                    27.152833
_cell_angle_alpha                 109.712051
_cell_angle_beta                  110.586490
_cell_angle_gamma                 108.294997
_cell_volume                      15501.659291
_symmetry_space_group_name_H-M    P1
_symmetry_Int_Tables_number       1
loop_
    _symmetry_equiv_pos_site_id
    _symmetry_equiv_pos_as_xyz
    1  x,y,z
loop_
    _atom_site_type_symbol
    _atom_site_label
    _atom_site_fract_x
    _atom_site_fract_y
    _atom_site_fract_z
    _atom_type_partial_charge
    O   O1    0.057294  0.094796  0.537684  -0.595458
    O   O2    0.057587  0.022237  0.463886  -0.586764
    C   C1    0.079061  0.077939  0.503005  0.768192
    O   O3    0.058991  0.032660  0.602091  -0.598799
    O   O4    0.062847  0.963744  0.528556  -0.600245
    C   C2    0.081666  0.998309  0.585960  0.762761
    Cu  Cu1   0.997531  0.039947  0.544840  0.998130
    Cu  Cu2   0.997901  0.956034  0.459643  1.011103
    O   O5    0.934533  0.973754  0.537307  -0.580269
    O   O6    0.934987  0.901192  0.463682  -0.603592
    O   O7    0.932653  0.032393  0.475959  -0.574161
    O   O8    0.936381  0.963157  0.402286  -0.593543
    C   C3    0.917203  0.918076  0.502369  0.763501
    C   C4    0.913878  0.997717  0.418465  0.830165
    C   C5    0.129324  0.998560  0.633136  -0.183903
    C   C6    0.169218  0.998542  0.672245  0.064921
    C   C7    0.216221  0.998358  0.718074  -0.012947
    C   C8    0.256146  0.998135  0.756941  -0.003544
    C   C9    0.303099  0.997857  0.802721  0.053996
    C   C10   0.342898  0.997672  0.841750  -0.169662
    H   H1    0.184444  0.147443  0.414078  0.153051
    C   C11   0.257849  0.233940  0.453901  -0.166141
    H   H2    0.262338  0.223562  0.414138  0.147275
    C   C12   0.295730  0.289869  0.504598  0.149411
    C   C13   0.290389  0.303317  0.555701  0.118396
    C   C14   0.245784  0.260899  0.555009  -0.247706
    H   H3    0.240816  0.271269  0.594496  0.137824
    C   C15   0.208021  0.204924  0.504252  0.244112
    C   C16   0.214137  0.191369  0.453804  -0.209612
    C   C17   0.340170  0.334099  0.503633  -0.051549
    C   C18   0.162458  0.160466  0.503904  -0.064993
    C   C19   0.124268  0.122833  0.503430  -0.207143
    C   C20   0.377905  0.371417  0.503394  -0.216804
    H   H4    0.745764  0.907522  0.217028  0.159813
    C   C21   0.697681  0.946947  0.179668  0.071245
    C   C22   0.690722  0.996836  0.190595  0.152941
    C   C23   0.729415  0.046843  0.247992  -0.228580
    H   H5    0.725039  0.086297  0.257327  0.135010
    C   C24   0.774254  0.047261  0.293603  0.044221
    C   C25   0.780445  0.997157  0.283101  0.175016
    C   C26   0.741659  0.947079  0.225895  -0.299363
    C   C27   0.644349  0.997323  0.142781  0.002869
    C   C28   0.827268  0.997292  0.331026  0.019551
    C   C29   0.866616  0.997557  0.370968  -0.290435
    C   C30   0.605221  0.997474  0.103005  -0.274682
    H   H6    0.817012  0.726504  0.469800  0.153033
    C   C31   0.744785  0.691646  0.484760  -0.161745
    H   H7    0.742266  0.648716  0.471066  0.147240
    C   C32   0.706235  0.702837  0.503123  0.148295
    C   C33   0.708955  0.757529  0.520258  0.121584
    C   C34   0.751770  0.801462  0.520678  -0.247574
    H   H8    0.754794  0.844624  0.534896  0.142970
    C   C35   0.790291  0.790124  0.502250  0.249996
    C   C36   0.786681  0.735221  0.484118  -0.215727
    C   C37   0.663487  0.657454  0.504507  -0.063046
    C   C38   0.834528  0.835473  0.502169  -0.074066
    C   C39   0.872071  0.873253  0.502129  -0.197347
    C   C40   0.626772  0.619406  0.504990  -0.193038
    O   O9    0.437001  0.899049  0.912396  -0.556422
    O   O10   0.509914  0.968480  0.910149  -0.548263
    C   C41   0.470610  0.913889  0.889644  0.762610
    O   O11   0.374619  0.961074  0.908549  -0.599454
    O   O12   0.447214  0.030207  0.906274  -0.603073
    C   C42   0.390350  0.997606  0.888797  0.759356
    Cu  Cu3   0.432066  0.957190  0.973216  0.987936
    Cu  Cu4   0.516201  0.037314  0.970598  0.987271
    O   O13   0.441694  0.026084  0.036900  -0.584769
    O   O14   0.514437  0.095383  0.034630  -0.573272
    O   O15   0.500859  0.960971  0.034367  -0.583081
    O   O16   0.573619  0.030268  0.032128  -0.595478
    C   C43   0.476645  0.080600  0.053120  0.712817
    C   C44   0.557931  0.997542  0.055709  0.840721
    O   O17   0.548593  0.446404  0.475533  -0.595382
    O   O18   0.452558  0.424272  0.406589  -0.617063
    C   C45   0.499999  0.416276  0.420843  0.868576
    O   O19   0.477943  0.422223  0.525229  -0.601110
    O   O20   0.407219  0.448769  0.482175  -0.591623
    C   C46   0.422989  0.416037  0.503544  0.817235
    Cu  Cu5   0.544992  0.493820  0.544894  0.973102
    Cu  Cu6   0.460144  0.496414  0.463374  0.971218
    O   O21   0.528134  0.541659  0.601544  -0.595374
    O   O22   0.481003  0.568123  0.532892  -0.598876
    O   O23   0.598685  0.565840  0.551736  -0.598993
    O   O24   0.526370  0.543648  0.457357  -0.581363
    C   C47   0.505107  0.573986  0.587354  0.858467
    C   C48   0.582080  0.574218  0.504664  0.781252
    C   C49   0.546207  0.749010  0.756714  0.073751
    C   C50   0.495241  0.697648  0.707792  0.013832
    C   C51   0.438171  0.689404  0.693402  -0.042819
    C   C52   0.431855  0.732489  0.730143  -0.035728
    C   C53   0.482751  0.784288  0.778526  0.097840
    C   C54   0.539858  0.793359  0.791799  -0.027948
    C   C55   0.501242  0.653747  0.668734  0.050526
    C   C56   0.476428  0.829570  0.815379  -0.010909
    C   C57   0.472665  0.868005  0.848244  -0.239467
    C   C58   0.504300  0.617069  0.632962  -0.291985
    C   C59   0.496351  0.303073  0.238707  0.092383
    C   C60   0.495978  0.293564  0.285151  -0.098609
    C   C61   0.493872  0.243236  0.285901  0.083853
    C   C62   0.490736  0.200713  0.238400  -0.021899
    C   C63   0.488905  0.209225  0.190880  0.056554
    C   C64   0.492400  0.260169  0.190787  -0.030518
    C   C65   0.497751  0.336576  0.333342  0.142166
    C   C66   0.484137  0.164689  0.141392  -0.010803
    C   C67   0.480431  0.126502  0.100438  -0.180447
    C   C68   0.498995  0.372960  0.373698  -0.328040
    C   C69   0.668760  0.770085  0.540747  -0.037392
    C   C70   0.606697  0.743402  0.501361  0.259494
    C   C71   0.576430  0.703351  0.434204  -0.372396
    C   C72   0.570956  0.754787  0.524330  -0.219130
    C   C73   0.596357  0.793371  0.585332  -0.126972
    C   C74   0.657930  0.821270  0.623841  -0.110323
    C   C75   0.693916  0.809512  0.601623  -0.140807
    H   H9    0.608819  0.701588  0.418652  0.092554
    H   H10   0.549582  0.719831  0.410231  0.092780
    H   H11   0.545370  0.657920  0.421519  0.115367
    H   H12   0.522665  0.733748  0.494130  0.132574
    H   H13   0.568025  0.802167  0.602853  0.111615
    H   H14   0.677952  0.851971  0.671619  0.106980
    H   H15   0.742106  0.830642  0.632359  0.103149
    C   C76   0.592768  0.850149  0.842228  -0.020324
    C   C77   0.622112  0.894744  0.832894  0.244144
    C   C78   0.601299  0.889000  0.771379  -0.297633
    C   C79   0.671758  0.947543  0.882248  -0.253396
    C   C80   0.691474  0.956763  0.940415  -0.081923
    C   C81   0.661494  0.913184  0.949690  -0.195003
    C   C82   0.612435  0.860024  0.900738  -0.048679
    H   H16   0.559637  0.846649  0.734580  0.069918
    H   H17   0.637840  0.892753  0.760758  0.072384
    H   H18   0.592054  0.925786  0.772329  0.083364
    H   H19   0.694916  0.982334  0.875344  0.137410
    H   H20   0.730052  0.998490  0.978833  0.104213
    H   H21   0.676347  0.920850  0.995369  0.142655
    H   H22   0.588824  0.825945  0.908150  0.105401
    C   C83   0.606084  0.756293  0.769822  -0.077841
    C   C84   0.639374  0.746474  0.813960  0.229184
    C   C85   0.616348  0.726465  0.850111  -0.261215
    C   C86   0.695687  0.754043  0.824564  -0.238690
    C   C87   0.718576  0.770246  0.791211  -0.090908
    C   C88   0.685032  0.778616  0.746576  -0.198184
    C   C89   0.628955  0.771564  0.735878  -0.039290
    H   H23   0.570525  0.720282  0.838340  0.066084
    H   H24   0.648131  0.759831  0.899064  0.051279
    H   H25   0.614932  0.683560  0.842080  0.080159
    H   H26   0.721888  0.746669  0.858956  0.134955
    H   H27   0.762607  0.775768  0.799655  0.111025
    H   H28   0.702712  0.790568  0.719913  0.133592
    H   H29   0.602603  0.777829  0.700516  0.104910
    C   C90   0.385018  0.635561  0.638897  0.092782
    C   C91   0.366898  0.628572  0.581101  0.249164
    C   C92   0.399043  0.675568  0.570300  -0.326270
    C   C93   0.317046  0.576415  0.531060  -0.241505
    C   C94   0.284916  0.531798  0.538014  -0.096874
    C   C95   0.302561  0.538947  0.595205  -0.143389
    C   C96   0.352646  0.590539  0.645449  -0.200653
    H   H30   0.436192  0.717316  0.612726  0.077034
    H   H31   0.365971  0.685988  0.544509  0.077711
    H   H32   0.417971  0.658388  0.542713  0.099630
    H   H33   0.302821  0.570589  0.486011  0.131231
    H   H34   0.245752  0.491210  0.498552  0.105433
    H   H35   0.277106  0.503981  0.600539  0.122620
    H   H36   0.366766  0.595700  0.690232  0.143760
    C   C97   0.371888  0.724972  0.716558  0.110724
    C   C98   0.344699  0.707425  0.747024  0.196881
    C   C99   0.373876  0.693884  0.794840  -0.268540
    C   C100  0.288301  0.701813  0.732890  -0.242077
    C   C101  0.258935  0.713228  0.688915  -0.103277
    C   C102  0.285898  0.730535  0.658771  -0.119795
    C   C103  0.342252  0.736497  0.672691  -0.225250
    H   H37   0.417748  0.696997  0.801698  0.054957
    H   H38   0.342999  0.648075  0.781387  0.061664
    H   H39   0.381324  0.725365  0.838617  0.089522
    H   H40   0.266860  0.688216  0.756379  0.137835
    H   H41   0.214731  0.708628  0.678118  0.111788
    H   H42   0.262952  0.739621  0.624349  0.113942
    H   H43   0.363528  0.750556  0.649299  0.134364
    C   C104  0.492390  0.268154  0.140233  0.001637
    C   C105  0.545153  0.290555  0.138596  0.295085
    C   C106  0.605578  0.307659  0.187636  -0.389508
    C   C107  0.542334  0.296931  0.089553  -0.300896
    C   C108  0.487830  0.280824  0.042269  -0.057461
    C   C109  0.435520  0.257793  0.043502  -0.183486
    C   C110  0.437839  0.251296  0.092233  -0.101971
    H   H44   0.603953  0.300278  0.224741  0.104756
    H   H45   0.636828  0.355320  0.207339  0.094890
    H   H46   0.623812  0.281031  0.167299  0.104216
    H   H47   0.583179  0.314459  0.088027  0.152815
    H   H48   0.486097  0.285898  0.004012  0.105091
    H   H49   0.392653  0.244718  0.006219  0.121794
    H   H50   0.396624  0.232827  0.092884  0.102232
    C   C111  0.499952  0.357955  0.240419  -0.106918
    C   C112  0.554252  0.411362  0.276414  0.356013
    C   C113  0.613166  0.417056  0.315441  -0.406929
    C   C114  0.554560  0.461937  0.277071  -0.316299
    C   C115  0.501766  0.459914  0.242637  -0.051951
    C   C116  0.448015  0.407211  0.207495  -0.181308
    C   C117  0.447145  0.356542  0.206674  -0.057656
    H   H51   0.609519  0.374571  0.311693  0.104545
    H   H52   0.630900  0.448796  0.363657  0.102258
    H   H53   0.645912  0.434802  0.302097  0.101068
    H   H54   0.596565  0.503584  0.304945  0.145003
    H   H55   0.502508  0.499793  0.243508  0.103331
    H   H56   0.406467  0.405643  0.180806  0.117733
    H   H57   0.404690  0.315437  0.179683  0.093865
    C   C118  0.494697  0.235622  0.336873  -0.070841
    C   C119  0.548360  0.260602  0.390972  0.315641
    C   C120  0.609142  0.296963  0.401442  -0.412944
    C   C121  0.546207  0.252490  0.437794  -0.290093
    C   C122  0.491540  0.220452  0.431484  -0.061833
    C   C123  0.438433  0.196492  0.378260  -0.185083
    C   C124  0.440077  0.204276  0.331259  -0.081853
    H   H58   0.607058  0.301986  0.362165  0.111899
    H   H59   0.637160  0.275746  0.411511  0.102992
    H   H60   0.631391  0.341858  0.441316  0.107952
    H   H61   0.587735  0.271671  0.479938  0.147209
    H   H62   0.490346  0.214480  0.468488  0.105046
    H   H63   0.395475  0.171743  0.373417  0.120310
    H   H64   0.398260  0.185862  0.289723  0.099249
    C   C125  0.489101  0.146717  0.237684  -0.044357
    C   C126  0.540332  0.140045  0.253805  0.338690
    C   C127  0.600889  0.187128  0.273379  -0.367902
    C   C128  0.535814  0.087713  0.251387  -0.319395
    C   C129  0.481205  0.042264  0.233047  -0.048829
    C   C130  0.430448  0.048666  0.216516  -0.183066
    C   C131  0.434396  0.100608  0.218577  -0.067048
    H   H65   0.601099  0.227894  0.274780  0.097194
    H   H66   0.615333  0.169207  0.241203  0.098079
    H   H67   0.634135  0.199113  0.319470  0.081239
    H   H68   0.575420  0.082214  0.263838  0.146410
    H   H69   0.478153  0.001444  0.231287  0.103277
    H   H70   0.387464  0.012866  0.201676  0.117790
    H   H71   0.394268  0.105166  0.204841  0.093560
    C   C132  0.329645  0.362997  0.609384  -0.024531
    C   C133  0.391432  0.385511  0.646313  0.258182
    C   C134  0.422239  0.349421  0.637333  -0.386111
    C   C135  0.426312  0.443225  0.694418  -0.216249
    C   C136  0.400259  0.477924  0.707139  -0.119261
    C   C137  0.338881  0.454947  0.671997  -0.109702
    C   C138  0.303794  0.397798  0.623187  -0.150389
    H   H72   0.390270  0.302065  0.602432  0.094974
    H   H73   0.447687  0.351740  0.680951  0.093068
    H   H74   0.454643  0.368356  0.624120  0.121978
    H   H75   0.474397  0.461183  0.722895  0.135518
    H   H76   0.427889  0.522943  0.745143  0.103377
    H   H77   0.318316  0.481901  0.682516  0.109446
    H   H78   0.255781  0.380436  0.595022  0.106312
    C   C139  0.657974  0.893366  0.119517  -0.025896
    C   C140  0.680132  0.874861  0.082107  0.271621
    C   C141  0.744591  0.910442  0.100833  -0.373660
    C   C142  0.641502  0.823959  0.025633  -0.300282
    C   C143  0.581217  0.791948  0.006225  -0.081290
    C   C144  0.559214  0.810456  0.043325  -0.149425
    C   C145  0.597553  0.860920  0.099905  -0.090194
    H   H79   0.755514  0.956764  0.112586  0.098623
    H   H80   0.752125  0.891261  0.062919  0.086790
    H   H81   0.775186  0.910066  0.140387  0.109929
    H   H82   0.658079  0.809077  0.995977  0.163348
    H   H83   0.551178  0.752396  0.961771  0.102357
    H   H84   0.511913  0.785349  0.028111  0.117376
    H   H85   0.580171  0.875133  0.129035  0.096241
    C   C146  0.814579  0.100736  0.353498  0.013418
    C   C147  0.869525  0.142579  0.367407  0.270839
    C   C148  0.888234  0.134161  0.320978  -0.391863
    C   C149  0.907203  0.192485  0.424744  -0.267760
    C   C150  0.890099  0.200550  0.467787  -0.084625
    C   C151  0.835282  0.158925  0.453729  -0.145679
    C   C152  0.797561  0.109113  0.396617  -0.143584
    H   H86   0.891707  0.093048  0.307238  0.104009
    H   H87   0.932992  0.172252  0.340079  0.105958
    H   H88   0.854641  0.131194  0.280555  0.095886
    H   H89   0.950312  0.225560  0.436417  0.141087
    H   H90   0.919719  0.239625  0.512617  0.108801
    H   H91   0.821909  0.165308  0.487508  0.120021
    H   H92   0.754641  0.076344  0.385643  0.104731
