# Generated by REPEAT Assigner based on pymatgen
data_DB0-m3_o18_o25_f0_pcu.sym.23_sqe
_audit_creation_date              2022-05-24
_audit_creation_method            REPEAT_Assigner
_cell_length_a                    14.852751
_cell_length_b                    16.024250
_cell_length_c                    16.030089
_cell_angle_alpha                 89.986477
_cell_angle_beta                  103.506907
_cell_angle_gamma                 86.039266
_cell_volume                      3700.318711
_symmetry_space_group_name_H-M    P1
_symmetry_Int_Tables_number       1
loop_
    _symmetry_equiv_pos_site_id
    _symmetry_equiv_pos_as_xyz
    1  x,y,z
loop_
    _atom_site_type_symbol
    _atom_site_label
    _atom_site_fract_x
    _atom_site_fract_y
    _atom_site_fract_z
    _atom_type_partial_charge
    O   O1   0.382352  0.605020  0.474707  -0.619101
    O   O2   0.617648  0.394980  0.525293  -0.618801
    O   O3   0.535318  0.637640  0.507348  -0.640646
    O   O4   0.464681  0.362360  0.492652  -0.640435
    C   C1   0.445990  0.659605  0.488258  0.728770
    C   C2   0.554009  0.340395  0.511742  0.728215
    O   O5   0.423889  0.483841  0.608058  -0.678841
    O   O6   0.576110  0.516158  0.391942  -0.678954
    O   O7   0.577087  0.516449  0.640744  -0.688853
    O   O8   0.422912  0.483551  0.359256  -0.688761
    C   C3   0.500606  0.500206  0.663175  0.913470
    C   C4   0.499394  0.499794  0.336826  0.913220
    Zn  Zn1  0.399111  0.478405  0.478490  0.984137
    Zn  Zn2  0.600889  0.521595  0.521511  0.983870
    C   C5   0.436932  0.555354  0.013670  0.228955
    C   C6   0.563067  0.444646  0.986331  0.228861
    C   C7   0.518813  0.576356  0.977510  -0.348530
    C   C8   0.481186  0.423644  0.022490  -0.348065
    H   H1   0.534365  0.639430  0.958781  0.159381
    H   H2   0.465634  0.360570  0.041219  0.159253
    C   C9   0.500764  0.500592  0.752715  -0.189288
    C   C10  0.499235  0.499408  0.247285  -0.189065
    C   C11  0.419124  0.481961  0.954788  0.227839
    C   C12  0.580876  0.518039  0.045213  0.228135
    C   C13  0.500667  0.501582  0.919093  0.491137
    C   C14  0.499333  0.498418  0.080908  0.491177
    C   C15  0.500771  0.501006  0.827876  -0.307187
    C   C16  0.499229  0.498994  0.172124  -0.307322
    C   C17  0.415685  0.749129  0.481833  -0.074238
    C   C18  0.584314  0.250870  0.518168  -0.073955
    C   C19  0.294113  0.857196  0.456008  0.267172
    C   C20  0.705886  0.142804  0.543992  0.267183
    C   C21  0.322461  0.773701  0.462024  -0.233070
    C   C22  0.677538  0.226299  0.537976  -0.233319
    C   C23  0.480290  0.808991  0.495655  -0.172250
    C   C24  0.519709  0.191008  0.504346  -0.172238
    C   C25  0.452782  0.894514  0.489861  0.018649
    C   C26  0.547218  0.105486  0.510139  0.018601
    C   C27  0.358443  0.917113  0.469732  0.057118
    C   C28  0.641557  0.082887  0.530269  0.057154
    C   C29  0.516269  0.957733  0.503469  0.117428
    C   C30  0.483730  0.042267  0.496531  0.117611
    C   C31  0.388204  0.061502  0.476079  -0.238881
    C   C32  0.611795  0.938498  0.523921  -0.238640
    C   C33  0.327259  0.999949  0.463069  -0.176221
    C   C34  0.672740  0.000050  0.536931  -0.176384
    H   H3   0.253832  0.018295  0.447369  0.137647
    H   H4   0.746168  0.981704  0.552631  0.137645
    H   H5   0.448328  0.214082  0.489154  0.119585
    H   H6   0.551672  0.785918  0.510846  0.119574
    H   H7   0.729467  0.271622  0.549013  0.147086
    H   H8   0.270533  0.728378  0.450987  0.147008
    H   H9   0.356127  0.123933  0.469172  0.152485
    H   H10  0.643873  0.876067  0.530828  0.152382
    N   N1   0.733446  0.550238  0.549742  -0.067837
    N   N2   0.266554  0.449762  0.450258  -0.067952
    C   C35  0.850078  0.631254  0.626215  -0.301129
    C   C36  0.149921  0.368746  0.373786  -0.301287
    C   C37  0.759694  0.610344  0.606717  0.029562
    C   C38  0.240306  0.389656  0.393283  0.029734
    C   C39  0.794248  0.509497  0.510759  -0.040132
    C   C40  0.205752  0.490502  0.489241  -0.039964
    C   C41  0.887233  0.528667  0.528384  -0.009084
    C   C42  0.112767  0.471333  0.471617  -0.009341
    C   C43  0.913600  0.590644  0.587154  0.315061
    C   C44  0.086399  0.409356  0.412846  0.315233
    C   C45  0.954076  0.488437  0.489464  0.050398
    C   C46  0.045923  0.511562  0.510536  0.050677
    C   C47  0.068695  0.574435  0.570126  -0.119334
    C   C48  0.931305  0.425565  0.429874  -0.119077
    C   C49  0.003316  0.612957  0.607535  -0.284950
    C   C50  0.996683  0.387043  0.392466  -0.285033
    H   H11  0.023346  0.661544  0.653535  0.158902
    H   H12  0.976653  0.338456  0.346465  0.158902
    H   H13  0.233231  0.537426  0.533894  0.121033
    H   H14  0.766769  0.462574  0.466107  0.121088
    H   H15  0.290305  0.357632  0.362913  0.128979
    H   H16  0.709694  0.642367  0.637088  0.129120
    H   H17  0.870820  0.679772  0.672120  0.160944
    H   H18  0.129180  0.320228  0.327880  0.160947
    H   H19  0.136826  0.596525  0.590312  0.149316
    H   H20  0.863173  0.403474  0.409688  0.149268
    F   F1   0.368807  0.612374  0.029130  -0.233300
    F   F2   0.631192  0.387626  0.970870  -0.233360
    F   F3   0.666954  0.535094  0.094474  -0.242375
    F   F4   0.333045  0.464905  0.905526  -0.242197
    F   F5   0.201902  0.879958  0.436378  -0.200265
    F   F6   0.798098  0.120042  0.563622  -0.200252
