# Generated by REPEAT Assigner based on pymatgen
data_DB0-m29_o91_o84_f0_pts.sym.53
_audit_creation_date              2022-05-24
_audit_creation_method            REPEAT_Assigner
_cell_length_a                    13.523458
_cell_length_b                    20.597002
_cell_length_c                    10.913059
_cell_angle_alpha                 120.209640
_cell_angle_beta                  102.530329
_cell_angle_gamma                 71.054295
_cell_volume                      2479.268817
_symmetry_space_group_name_H-M    P1
_symmetry_Int_Tables_number       1
loop_
    _symmetry_equiv_pos_site_id
    _symmetry_equiv_pos_as_xyz
    1  x,y,z
loop_
    _atom_site_type_symbol
    _atom_site_label
    _atom_site_fract_x
    _atom_site_fract_y
    _atom_site_fract_z
    _atom_type_partial_charge
    C   C1   0.215828  0.987117  0.858374  -0.108327
    C   C2   0.123521  0.974985  0.776951  -0.066676
    C   C3   0.037895  0.981356  0.835706  0.022132
    C   C4   0.946504  0.969808  0.752886  -0.022170
    C   C5   0.860103  0.977015  0.810339  -0.050953
    C   C6   0.221177  0.005331  0.000481  0.162054
    C   C7   0.134517  0.012217  0.059353  -0.155086
    C   C8   0.042737  0.000255  0.976906  0.152022
    C   C9   0.955712  0.007709  0.035635  -0.101378
    C   C10  0.863976  0.995942  0.952317  0.070780
    C   C11  0.777106  0.002851  0.010731  -0.057602
    C   C12  0.138772  0.031240  0.201066  0.075131
    C   C13  0.052680  0.039049  0.259488  -0.155262
    C   C14  0.960313  0.027454  0.177675  0.243770
    C   C15  0.873518  0.034722  0.236678  -0.205914
    C   C16  0.782223  0.020695  0.152551  0.142380
    H   H1   0.117337  0.961156  0.666496  0.098922
    H   H2   0.941778  0.955290  0.642185  0.108688
    H   H3   0.790425  0.967838  0.740893  0.092981
    H   H4   0.208682  0.039911  0.270153  0.092284
    H   H5   0.061092  0.053412  0.369997  0.075922
    O   O1   0.597944  0.034034  0.159402  -0.491563
    C   C17  0.694739  0.019572  0.211796  0.455406
    O   O2   0.640160  0.868768  0.124663  -0.504899
    O   O3   0.713996  0.998528  0.311532  -0.415979
    O   O4   0.550784  0.941321  0.323815  -0.557154
    C   C18  0.617874  0.877747  0.244348  0.619530
    Fe  Fe1  0.502203  0.015686  0.245831  1.459475
    O   O5   0.397027  0.968440  0.091197  -0.597376
    O   O6   0.311068  0.096467  0.187680  -0.460884
    C   C19  0.314197  0.024088  0.092952  0.549776
    O   O7   0.455397  0.121665  0.409473  -0.669125
    O   O8   0.373703  0.051801  0.442021  -0.462282
    C   C20  0.394425  0.118146  0.483626  0.757282
    O   O9   0.532300  0.895503  0.602972  -0.648701
    O   O10  0.622721  0.961315  0.573369  -0.477200
    C   C21  0.595404  0.896933  0.528640  0.789763
    O   O11  0.603040  0.044027  0.919983  -0.624891
    O   O12  0.681134  0.914605  0.826770  -0.494157
    C   C22  0.682461  0.986558  0.919484  0.662161
    O   O13  0.285130  0.989689  0.675067  -0.528079
    O   O14  0.446258  0.077241  0.695241  -0.562888
    C   C23  0.365545  0.133289  0.760129  0.633804
    O   O15  0.396495  0.985944  0.860686  -0.542082
    C   C24  0.302725  0.986283  0.795044  0.656541
    O   O16  0.331445  0.135181  0.865943  -0.526903
    Fe  Fe2  0.492593  0.001413  0.769847  1.461217
    C   C25  0.837959  0.566018  0.317282  0.489315
    N   N1   0.832737  0.642075  0.404163  -0.222159
    C   C26  0.889278  0.665168  0.530207  0.471318
    C   C27  0.952686  0.611212  0.572663  -0.096638
    C   C28  0.959157  0.533483  0.484713  0.102544
    C   C29  0.901541  0.510594  0.356218  -0.126099
    C   C30  0.010648  0.634411  0.701668  -0.040165
    C   C31  0.074106  0.579932  0.742209  -0.056288
    C   C32  0.080494  0.501843  0.653662  -0.107124
    C   C33  0.023226  0.478919  0.524870  0.077127
    C   C34  0.030094  0.401153  0.436580  -0.060262
    C   C35  0.972037  0.377963  0.307668  -0.069580
    C   C36  0.907941  0.432497  0.267649  -0.039247
    C   C37  0.143696  0.446435  0.692857  0.476025
    N   N2   0.149834  0.370365  0.605179  -0.196386
    C   C38  0.094126  0.347166  0.478584  0.429468
    O   O17  0.779637  0.544255  0.193519  -0.481906
    O   O18  0.886972  0.740762  0.612567  -0.501014
    H   H6   0.007045  0.695106  0.772613  0.123044
    H   H7   0.118351  0.599462  0.843728  0.123834
    O   O19  0.200779  0.468164  0.817624  -0.479225
    O   O20  0.098015  0.271379  0.395237  -0.489705
    H   H8   0.975870  0.317250  0.236560  0.132688
    H   H9   0.863488  0.412974  0.166293  0.120578
    C   C39  0.282875  0.249433  0.560069  -0.235904
    H   H10  0.295162  0.243829  0.460206  0.221627
    C   C40  0.333506  0.189591  0.592990  -0.002051
    C   C41  0.315234  0.195313  0.719342  -0.064551
    C   C42  0.247489  0.261798  0.810667  -0.086888
    H   H11  0.232310  0.268027  0.909742  0.132440
    C   C43  0.196007  0.320534  0.775581  -0.174215
    H   H12  0.139546  0.370125  0.845235  0.140755
    C   C44  0.212020  0.313908  0.648894  0.261091
    C   C45  0.702625  0.764547  0.450618  -0.237999
    H   H13  0.691850  0.771535  0.552254  0.222889
    C   C46  0.652776  0.824266  0.417127  -0.022474
    C   C47  0.667877  0.816438  0.287302  -0.069502
    C   C48  0.732195  0.748192  0.194168  -0.076143
    H   H14  0.745368  0.740235  0.092780  0.128594
    C   C49  0.783947  0.690051  0.230702  -0.168636
    H   H15  0.838418  0.639401  0.159535  0.138383
    C   C50  0.770708  0.698492  0.360088  0.272619
    I   I1   0.876702  0.072827  0.457711  0.145336
