# Generated by REPEAT Assigner based on pymatgen
data_DB0-m2_o8_o29_f0_pcu.sym.1_sqe
_audit_creation_date              2022-05-24
_audit_creation_method            REPEAT_Assigner
_cell_length_a                    15.551636
_cell_length_b                    17.007770
_cell_length_c                    27.533641
_cell_angle_alpha                 89.996498
_cell_angle_beta                  92.768579
_cell_angle_gamma                 96.358164
_cell_volume                      7229.265337
_symmetry_space_group_name_H-M    P1
_symmetry_Int_Tables_number       1
loop_
    _symmetry_equiv_pos_site_id
    _symmetry_equiv_pos_as_xyz
    1  x,y,z
loop_
    _atom_site_type_symbol
    _atom_site_label
    _atom_site_fract_x
    _atom_site_fract_y
    _atom_site_fract_z
    _atom_type_partial_charge
    O   O1   0.418426  0.381493  0.496285  -0.656861
    O   O2   0.581501  0.617923  0.504136  -0.657285
    O   O3   0.566960  0.388355  0.503521  -0.607801
    O   O4   0.433041  0.611073  0.496430  -0.606800
    C   C1   0.490172  0.347857  0.499748  0.784151
    C   C2   0.509759  0.651609  0.500385  0.781332
    O   O5   0.425623  0.498835  0.427480  -0.598949
    O   O6   0.574355  0.500236  0.572675  -0.593977
    O   O7   0.573767  0.500629  0.431507  -0.601725
    O   O8   0.426174  0.499257  0.568645  -0.595675
    C   C3   0.499606  0.499789  0.406684  0.675672
    C   C4   0.500376  0.500003  0.593467  0.667927
    Cu  Cu1  0.413554  0.495722  0.497705  0.944519
    Cu  Cu2  0.586333  0.503711  0.502450  0.951185
    C   C5   0.475125  0.432479  0.176157  0.447478
    C   C6   0.536122  0.564301  0.824362  0.449663
    O   O9   0.452316  0.365465  0.200448  -0.520030
    O   O10  0.570054  0.628381  0.800453  -0.517726
    N   N1   0.499636  0.499933  0.201118  -0.181790
    N   N2   0.500396  0.500147  0.799066  -0.181473
    C   C7   0.524460  0.567389  0.177555  0.449477
    C   C8   0.464391  0.436010  0.822321  0.451699
    C   C9   0.422434  0.486411  0.275947  -0.174266
    C   C10  0.577779  0.505946  0.724252  -0.185583
    C   C11  0.422232  0.486841  0.326001  -0.081161
    C   C12  0.577901  0.505640  0.674204  -0.065238
    C   C13  0.576645  0.512639  0.330276  -0.075930
    C   C14  0.423236  0.494618  0.669928  -0.072300
    C   C15  0.576446  0.513171  0.280194  -0.180928
    C   C16  0.423362  0.494391  0.720021  -0.186726
    C   C17  0.499473  0.499805  0.252903  0.266996
    C   C18  0.500546  0.500222  0.747307  0.268449
    C   C19  0.499911  0.499944  0.101032  0.109810
    C   C20  0.500172  0.500062  0.899121  0.120575
    C   C21  0.474667  0.431741  0.125886  -0.115349
    C   C22  0.536336  0.565060  0.874604  -0.125215
    C   C23  0.450293  0.362765  0.100457  -0.043018
    C   C24  0.573097  0.630389  0.900405  -0.040660
    C   C25  0.525088  0.568135  0.127320  -0.124885
    C   C26  0.464063  0.435170  0.872529  -0.132347
    C   C27  0.499487  0.499708  0.353467  -0.057640
    C   C28  0.500524  0.500126  0.646739  -0.065495
    H   H1   0.637730  0.523136  0.350854  0.112097
    H   H2   0.362036  0.490037  0.649271  0.111405
    H   H3   0.636859  0.523398  0.262164  0.137560
    H   H4   0.362876  0.490258  0.738082  0.139190
    H   H5   0.432233  0.307887  0.118998  0.127601
    H   H6   0.603539  0.681773  0.882321  0.126593
    C   C29  0.466315  0.432641  0.973717  0.050401
    C   C30  0.528754  0.568714  0.026286  0.056092
    C   C31  0.533491  0.567344  0.975650  0.049817
    C   C32  0.471142  0.431186  0.024632  0.056450
    C   C33  0.499929  0.500035  0.949641  0.015119
    C   C34  0.499993  0.499927  0.050503  0.016308
    C   C35  0.427986  0.368395  0.946000  -0.188020
    C   C36  0.551309  0.637632  0.053519  -0.193184
    C   C37  0.427013  0.369853  0.896168  -0.035571
    C   C38  0.549561  0.637118  0.103276  -0.038260
    O   O11  0.430542  0.371938  0.796517  -0.509979
    O   O12  0.547118  0.634431  0.203096  -0.513126
    C   C39  0.448506  0.362263  0.050578  -0.195122
    C   C40  0.572014  0.631598  0.950182  -0.187720
    H   H7   0.639345  0.509852  0.657059  0.102909
    H   H8   0.360937  0.476283  0.343132  0.107180
    H   H9   0.638604  0.509826  0.745294  0.141060
    H   H10  0.361668  0.476323  0.254913  0.137854
    H   H11  0.396316  0.318736  0.876247  0.122774
    H   H12  0.567851  0.692006  0.122770  0.124620
    H   H13  0.395253  0.315893  0.961287  0.134807
    H   H14  0.568443  0.694654  0.037741  0.138467
    H   H15  0.431183  0.305349  0.033772  0.138806
    H   H16  0.605015  0.683823  0.967446  0.134185
    C   C41  0.484556  0.261274  0.499416  -0.227634
    C   C42  0.515370  0.738170  0.500656  -0.229367
    C   C43  0.559069  0.223805  0.502892  -0.056963
    C   C44  0.440939  0.775669  0.496945  -0.053189
    C   C45  0.554184  0.142287  0.502599  -0.152311
    C   C46  0.445774  0.857137  0.497198  -0.158444
    C   C47  0.473885  0.097347  0.498776  0.480026
    C   C48  0.526102  0.902050  0.501161  0.485922
    C   C49  0.400009  0.134926  0.495201  -0.366075
    C   C50  0.600035  0.864404  0.504724  -0.371783
    C   C51  0.404815  0.216312  0.495488  0.089116
    C   C52  0.595124  0.782998  0.504558  0.091557
    N   N3   0.464659  0.013645  0.498297  -0.240993
    N   N4   0.535245  0.985749  0.501654  -0.242368
    H   H17  0.377893  0.741793  0.493801  0.121085
    H   H18  0.622149  0.257679  0.505900  0.121713
    H   H19  0.385306  0.883010  0.494205  0.068581
    H   H20  0.614477  0.116168  0.505414  0.066601
    H   H21  0.337763  0.099609  0.492120  0.138445
    H   H22  0.662379  0.899496  0.507657  0.140339
    H   H23  0.345326  0.243768  0.492551  0.091593
    H   H24  0.654407  0.755328  0.507488  0.092202
    N   N5   0.715682  0.509808  0.505964  -0.222022
    N   N6   0.284279  0.489534  0.494138  -0.216198
    C   C53  0.755114  0.463552  0.476407  0.079799
    C   C54  0.245376  0.537650  0.522693  0.079485
    C   C55  0.844224  0.466330  0.477955  -0.208698
    C   C56  0.156289  0.535305  0.521275  -0.205686
    C   C57  0.893405  0.518127  0.509909  0.510420
    C   C58  0.106754  0.482935  0.489712  0.505291
    C   C59  0.851628  0.566563  0.538654  -0.422988
    C   C60  0.148133  0.434742  0.460675  -0.415600
    C   C61  0.762467  0.562068  0.536200  0.212325
    C   C62  0.237196  0.438782  0.463037  0.199348
    N   N7   0.984963  0.523711  0.513741  -0.225366
    N   N8   0.015232  0.477308  0.485983  -0.222127
    H   H25  0.284445  0.579004  0.546659  0.118630
    H   H26  0.716645  0.423295  0.451440  0.118374
    H   H27  0.128114  0.574818  0.545266  0.078295
    H   H28  0.872754  0.427508  0.453756  0.078676
    H   H29  0.889266  0.608043  0.563202  0.154777
    H   H30  0.110326  0.393457  0.436187  0.152941
    H   H31  0.730122  0.600083  0.558915  0.106849
    H   H32  0.269053  0.401278  0.439627  0.113008
