# Generated by REPEAT Assigner based on pymatgen
data_DB0-m29_o82_o150_f0_pts.sym.106
_audit_creation_date              2022-05-24
_audit_creation_method            REPEAT_Assigner
_cell_length_a                    14.576096
_cell_length_b                    9.397508
_cell_length_c                    19.535011
_cell_angle_alpha                 85.702868
_cell_angle_beta                  90.446390
_cell_angle_gamma                 110.519048
_cell_volume                      2498.582308
_symmetry_space_group_name_H-M    P1
_symmetry_Int_Tables_number       1
loop_
    _symmetry_equiv_pos_site_id
    _symmetry_equiv_pos_as_xyz
    1  x,y,z
loop_
    _atom_site_type_symbol
    _atom_site_label
    _atom_site_fract_x
    _atom_site_fract_y
    _atom_site_fract_z
    _atom_type_partial_charge
    C   C1   0.236783  0.881240  0.930452  0.049322
    C   C2   0.143570  0.836540  0.904490  -0.164604
    C   C3   0.069023  0.863049  0.937956  -0.110544
    C   C4   0.926331  0.021023  0.923971  -0.188286
    C   C5   0.251450  0.938174  0.994730  -0.050041
    C   C6   0.176577  0.968100  0.027721  0.078574
    C   C7   0.087174  0.944265  0.996118  0.090592
    C   C8   0.015222  0.987371  0.027465  -0.063263
    C   C9   0.840258  0.017151  0.892548  0.026349
    C   C10  0.756271  0.989185  0.932356  0.044459
    C   C11  0.930776  0.996208  0.994675  0.116084
    C   C12  0.852289  0.997527  0.033862  0.022750
    C   C13  0.762896  0.980885  0.003289  -0.088194
    C   C14  0.189864  0.017352  0.093379  -0.130576
    C   C15  0.114473  0.037925  0.127533  -0.201868
    C   C16  0.027839  0.022147  0.095307  0.249841
    C   C17  0.954257  0.043172  0.131911  -0.275227
    C   C18  0.865655  0.024373  0.102626  -0.026567
    H   H1   0.127752  0.781571  0.856948  0.153237
    H   H2   0.996435  0.815010  0.917949  0.124414
    H   H3   0.991169  0.050518  0.891849  0.133860
    H   H4   0.256072  0.032452  0.121632  0.138822
    H   H5   0.124375  0.068808  0.180000  0.133663
    H   H6   0.964807  0.070961  0.184784  0.156908
    H   H7   0.811534  0.045116  0.133707  0.104949
    O   O1   0.608190  0.008935  0.028292  -0.535756
    C   C19  0.674563  0.949000  0.046108  0.557624
    O   O2   0.471763  0.653795  0.089768  -0.407245
    O   O3   0.662244  0.860877  0.103084  -0.472825
    O   O4   0.491650  0.805773  0.177644  -0.511604
    C   C20  0.477965  0.670962  0.155905  0.477341
    Fe  Fe1  0.503425  0.958344  0.099429  1.429188
    O   O5   0.375780  0.863677  0.052659  -0.561177
    O   O6   0.399648  0.116067  0.035257  -0.465537
    C   C21  0.346437  0.973580  0.027220  0.593732
    O   O7   0.533467  0.160884  0.138498  -0.595477
    O   O8   0.430393  0.018900  0.224973  -0.524309
    C   C22  0.484191  0.151890  0.195551  0.578136
    O   O9   0.458738  0.745577  0.795006  -0.542911
    O   O10  0.545166  0.873730  0.699039  -0.496835
    C   C23  0.495152  0.745119  0.733752  0.587953
    O   O11  0.635512  0.053709  0.862590  -0.584393
    O   O12  0.592973  0.816387  0.916041  -0.459933
    C   C24  0.659264  0.951736  0.901323  0.636463
    O   O13  0.301734  0.855445  0.821258  -0.545719
    O   O14  0.498701  0.097367  0.748341  -0.495601
    C   C25  0.483612  0.215761  0.770947  0.550457
    O   O15  0.408506  0.919553  0.907888  -0.455033
    C   C26  0.317862  0.878140  0.886420  0.559459
    O   O16  0.475203  0.222580  0.837341  -0.493101
    Fe  Fe2  0.499248  0.955356  0.828373  1.376009
    H   H8   0.485013  0.487091  0.804406  0.171652
    C   C27  0.479405  0.342331  0.723645  0.034346
    C   C28  0.474218  0.330276  0.653436  -0.196521
    H   H9   0.469577  0.224632  0.632650  0.145141
    C   C29  0.472358  0.452295  0.609736  0.208761
    C   C30  0.483337  0.589493  0.636047  -0.253345
    H   H10  0.487518  0.687262  0.601633  0.131940
    C   C31  0.485035  0.600408  0.705964  0.109152
    C   C32  0.481139  0.476088  0.749714  -0.189600
    C   C33  0.531749  0.388114  0.504061  -0.123294
    H   H11  0.583225  0.352655  0.534589  0.124173
    C   C34  0.534253  0.384217  0.433870  -0.183842
    H   H12  0.586723  0.343873  0.410684  0.117617
    C   C35  0.473517  0.437748  0.393498  0.139940
    C   C36  0.408029  0.490593  0.424077  -0.343894
    H   H13  0.359165  0.529220  0.392269  0.147466
    C   C37  0.400764  0.486831  0.494880  0.254295
    C   C38  0.466420  0.440713  0.535218  -0.082277
    C   C39  0.477897  0.299342  0.292833  -0.269273
    H   H14  0.475989  0.202417  0.327026  0.149115
    C   C40  0.483183  0.291334  0.223092  0.160255
    C   C41  0.484251  0.413372  0.178874  -0.269295
    H   H15  0.487667  0.404871  0.124177  0.212215
    C   C42  0.478023  0.543242  0.204158  0.154834
    C   C43  0.473958  0.551803  0.274527  -0.250855
    H   H16  0.471452  0.654105  0.294982  0.173980
    C   C44  0.475249  0.430305  0.318911  0.155316
    C   C45  0.318511  0.525616  0.524865  -0.286284
    C   C46  0.219082  0.417861  0.503331  0.563035
    C   C47  0.207677  0.253384  0.524262  -0.401386
    C   C48  0.138522  0.455936  0.537844  -0.420406
    H   H17  0.326920  0.644103  0.506370  0.059069
    H   H18  0.317382  0.517414  0.581452  0.078534
    H   H19  0.210703  0.431293  0.447086  -0.088206
    H   H20  0.225370  0.241324  0.579219  0.077272
    H   H21  0.256700  0.216545  0.492443  0.074016
    H   H22  0.131042  0.178554  0.516275  0.082077
    H   H23  0.140379  0.433982  0.594326  0.097375
    H   H24  0.066200  0.384568  0.519118  0.087479
    H   H25  0.148771  0.577620  0.525145  0.072534
    C   C49  0.840667  0.034836  0.815611  -0.155264
    C   C50  0.848294  0.894657  0.785244  0.411864
    C   C51  0.758385  0.755338  0.804905  -0.261027
    C   C52  0.856819  0.921658  0.707591  -0.420390
    H   H26  0.905103  0.135761  0.798154  0.055296
    H   H27  0.775353  0.055759  0.795229  0.060380
    H   H28  0.914495  0.873479  0.804330  -0.050207
    H   H29  0.691063  0.777683  0.789384  0.043209
    H   H30  0.755644  0.725976  0.861065  0.031170
    H   H31  0.761935  0.656917  0.778498  0.063318
    H   H32  0.790498  0.940342  0.686967  0.107493
    H   H33  0.864563  0.821247  0.685294  0.091420
    H   H34  0.922374  0.023163  0.692868  0.076065
