data_DB0-m2_o11_o29_f0_pcu.sym.48_repeat
_audit_creation_date              2024-02-23
_audit_creation_method            'Materials Studio'
_symmetry_space_group_name_H-M    'P1'
_symmetry_Int_Tables_number       1
_symmetry_cell_setting            triclinic
loop_
_symmetry_equiv_pos_as_xyz
  x,y,z
_cell_length_a                    27.4995
_cell_length_b                    11.0382
_cell_length_c                    9.5279
_cell_angle_alpha                 90.0206
_cell_angle_beta                  90.0156
_cell_angle_gamma                 89.9936
loop_
_atom_site_label
_atom_site_type_symbol
_atom_site_fract_x
_atom_site_fract_y
_atom_site_fract_z
_atom_site_U_iso_or_equiv
_atom_site_adp_type
_atom_site_occupancy
O1     O     0.49751   0.31707   0.62554   0.00000  Uiso   1.00
O2     O     0.50301   0.31354   0.38426   0.00000  Uiso   1.00
C1     C     0.50082   0.25872   0.50603   0.00000  Uiso   1.00
O3     O     0.42703   0.48494   0.61731   0.00000  Uiso   1.00
O4     O     0.42882   0.48874   0.37544   0.00000  Uiso   1.00
C2     C     0.40516   0.48569   0.49491   0.00000  Uiso   1.00
Cu1    Cu    0.49730   0.49445   0.64017   0.00000  Uiso   1.00
Cu2    Cu    0.49974   0.48850   0.35964   0.00000  Uiso   1.00
O5     O     0.49435   0.66897   0.61505   0.00000  Uiso   1.00
O6     O     0.49943   0.66535   0.37469   0.00000  Uiso   1.00
O7     O     0.56828   0.49261   0.62406   0.00000  Uiso   1.00
O8     O     0.57008   0.49793   0.38336   0.00000  Uiso   1.00
C3     C     0.49652   0.72434   0.49371   0.00000  Uiso   1.00
C4     C     0.59199   0.49647   0.50519   0.00000  Uiso   1.00
C5     C     0.17472   0.38362   0.46825   0.00000  Uiso   1.00
O9     O     0.19921   0.27896   0.45437   0.00000  Uiso   1.00
N1     N     0.19951   0.48811   0.48172   0.00000  Uiso   1.00
C6     C     0.17584   0.59393   0.49714   0.00000  Uiso   1.00
C7     C     0.27558   0.51682   0.60629   0.00000  Uiso   1.00
C8     C     0.32565   0.51438   0.61055   0.00000  Uiso   1.00
C9     C     0.32745   0.45590   0.36913   0.00000  Uiso   1.00
C10    C     0.27729   0.45555   0.36619   0.00000  Uiso   1.00
C11    C     0.25128   0.48657   0.48461   0.00000  Uiso   1.00
C12    C     0.09944   0.49088   0.48773   0.00000  Uiso   1.00
C13    C     0.12441   0.38354   0.47294   0.00000  Uiso   1.00
C14    C     0.09900   0.27668   0.46285   0.00000  Uiso   1.00
C15    C     0.12557   0.59683   0.49852   0.00000  Uiso   1.00
C16    C     0.35188   0.48460   0.49166   0.00000  Uiso   1.00
H1     H     0.34721   0.43236   0.27499   0.00000  Uiso   1.00
H2     H     0.25841   0.43287   0.27015   0.00000  Uiso   1.00
H3     H     0.11754   0.19126   0.44851   0.00000  Uiso   1.00
C17    C     0.64522   0.49891   0.50887   0.00000  Uiso   1.00
C18    C     0.97272   0.38551   0.50683   0.00000  Uiso   1.00
C19    C     0.97358   0.60344   0.49370   0.00000  Uiso   1.00
C20    C     0.94810   0.49524   0.50294   0.00000  Uiso   1.00
C21    C     0.94597   0.27992   0.52792   0.00000  Uiso   1.00
C22    C     0.89615   0.28306   0.53749   0.00000  Uiso   1.00
C23    C     0.87169   0.39118   0.52544   0.00000  Uiso   1.00
C24    C     0.89759   0.49682   0.50808   0.00000  Uiso   1.00
C25    C     0.87240   0.60406   0.49534   0.00000  Uiso   1.00
C26    C     0.82212   0.60410   0.49766   0.00000  Uiso   1.00
N2     N     0.79754   0.49993   0.51591   0.00000  Uiso   1.00
C27    C     0.82141   0.39425   0.53092   0.00000  Uiso   1.00
C28    C     0.71997   0.47041   0.63347   0.00000  Uiso   1.00
C29    C     0.66982   0.47066   0.63120   0.00000  Uiso   1.00
C30    C     0.67121   0.52940   0.38990   0.00000  Uiso   1.00
C31    C     0.72128   0.53175   0.39338   0.00000  Uiso   1.00
C32    C     0.74577   0.50116   0.51461   0.00000  Uiso   1.00
O10    O     0.79601   0.29122   0.54713   0.00000  Uiso   1.00
C33    C     0.02332   0.38392   0.49092   0.00000  Uiso   1.00
C34    C     0.04891   0.49227   0.49246   0.00000  Uiso   1.00
C35    C     0.02440   0.60203   0.49909   0.00000  Uiso   1.00
C36    C     0.04915   0.27649   0.47228   0.00000  Uiso   1.00
H4     H     0.65026   0.44655   0.72549   0.00000  Uiso   1.00
H5     H     0.73899   0.44704   0.72902   0.00000  Uiso   1.00
H6     H     0.87688   0.19896   0.55381   0.00000  Uiso   1.00
H7     H     0.96239   0.19246   0.54276   0.00000  Uiso   1.00
H8     H     0.03199   0.18967   0.45938   0.00000  Uiso   1.00
O11    O     0.20143   0.69710   0.50905   0.00000  Uiso   1.00
C37    C     0.10140   0.70504   0.51308   0.00000  Uiso   1.00
H9     H     0.34389   0.53865   0.70706   0.00000  Uiso   1.00
H10    H     0.25536   0.54128   0.69934   0.00000  Uiso   1.00
H11    H     0.12093   0.78935   0.52501   0.00000  Uiso   1.00
C38    C     0.94743   0.71065   0.47787   0.00000  Uiso   1.00
C39    C     0.89753   0.71057   0.47804   0.00000  Uiso   1.00
O12    O     0.79744   0.70851   0.48397   0.00000  Uiso   1.00
C40    C     0.05151   0.70799   0.51263   0.00000  Uiso   1.00
H12    H     0.96419   0.79714   0.45940   0.00000  Uiso   1.00
H13    H     0.65275   0.55290   0.29357   0.00000  Uiso   1.00
H14    H     0.87875   0.79575   0.46453   0.00000  Uiso   1.00
H15    H     0.74134   0.55535   0.29974   0.00000  Uiso   1.00
H16    H     0.03550   0.79573   0.52896   0.00000  Uiso   1.00
C41    C     0.50384   0.92803   0.38294   0.00000  Uiso   1.00
C42    C     0.49451   0.85786   0.49518   0.00000  Uiso   1.00
H17    H     0.48465   0.89811   0.59458   0.00000  Uiso   1.00
C43    C     0.50078   0.06204   0.39040   0.00000  Uiso   1.00
C44    C     0.50297   0.12612   0.50963   0.00000  Uiso   1.00
H18    H     0.49728   0.11049   0.29224   0.00000  Uiso   1.00
H19    H     0.50773   0.08359   0.61086   0.00000  Uiso   1.00
C45    C     0.47107   0.42146   0.92283   0.00000  Uiso   1.00
N3     N     0.49615   0.49672   0.85008   0.00000  Uiso   1.00
H20    H     0.45170   0.34895   0.87061   0.00000  Uiso   1.00
H21    H     0.50665   0.57500   0.90075   0.00000  Uiso   1.00
C46    C     0.46710   0.43328   0.07721   0.00000  Uiso   1.00
N4     N     0.50095   0.48374   0.14975   0.00000  Uiso   1.00
H22    H     0.43592   0.39413   0.12970   0.00000  Uiso   1.00
H23    H     0.53310   0.49978   0.09818   0.00000  Uiso   1.00
N5     N     0.51558   0.87365   0.25259   0.00000  Uiso   1.00
C47    C     0.47512   0.87330   0.15676   0.00000  Uiso   1.00
C48    C     0.55887   0.92300   0.18959   0.00000  Uiso   1.00
H24    H     0.44287   0.83370   0.20936   0.00000  Uiso   1.00
H25    H     0.48433   0.81807   0.06319   0.00000  Uiso   1.00
H26    H     0.46645   0.96697   0.12296   0.00000  Uiso   1.00
H27    H     0.58790   0.92995   0.27001   0.00000  Uiso   1.00
H28    H     0.55169   0.01365   0.14399   0.00000  Uiso   1.00
H29    H     0.57135   0.86204   0.10438   0.00000  Uiso   1.00
