# Generated by REPEAT Assigner based on pymatgen
data_DB0-m3_o6_o14_f0_nbo.sym.112
_audit_creation_date              2022-05-24
_audit_creation_method            REPEAT_Assigner
_cell_length_a                    38.412714
_cell_length_b                    32.244830
_cell_length_c                    21.787413
_cell_angle_alpha                 90.000000
_cell_angle_beta                  122.770618
_cell_angle_gamma                 90.000000
_cell_volume                      22691.141027
_symmetry_space_group_name_H-M    P1
_symmetry_Int_Tables_number       1
loop_
    _symmetry_equiv_pos_site_id
    _symmetry_equiv_pos_as_xyz
    1  x,y,z
loop_
    _atom_site_type_symbol
    _atom_site_label
    _atom_site_fract_x
    _atom_site_fract_y
    _atom_site_fract_z
    _atom_type_partial_charge
    O   O1    0.938368  0.033474  0.438603  -0.702301
    O   O2    0.061510  0.035381  0.568891  -0.684212
    O   O3    0.438368  0.533474  0.438603  -0.702266
    O   O4    0.561510  0.535381  0.568891  -0.684176
    O   O5    0.938384  0.961999  0.431214  -0.670210
    O   O6    0.061515  0.963903  0.561552  -0.691777
    O   O7    0.438384  0.461999  0.431214  -0.670173
    O   O8    0.561515  0.463903  0.561552  -0.691770
    C   C1    0.919145  0.997802  0.414703  0.784114
    C   C2    0.080743  0.999568  0.585425  0.786246
    C   C3    0.419145  0.497802  0.414703  0.783979
    C   C4    0.580743  0.499568  0.585425  0.786195
    O   O9    0.996527  0.032938  0.590512  -0.680020
    O   O10   0.005160  0.035930  0.416349  -0.671266
    O   O11   0.496527  0.532938  0.590512  -0.680004
    O   O12   0.505160  0.535930  0.416349  -0.671260
    O   O13   0.994754  0.961447  0.583763  -0.678074
    O   O14   0.003344  0.964436  0.409642  -0.681793
    O   O15   0.494754  0.461447  0.583763  -0.678068
    O   O16   0.503344  0.464436  0.409642  -0.681774
    C   C5    0.993601  0.996354  0.613606  0.637456
    C   C6    0.006297  0.001008  0.386534  0.633452
    C   C7    0.493601  0.496354  0.613606  0.637470
    C   C8    0.506297  0.501008  0.386534  0.633464
    Zn  Zn1   0.999818  0.045631  0.502759  1.320945
    Zn  Zn2   0.499818  0.545631  0.502759  1.320917
    Zn  Zn3   0.000070  0.951745  0.497370  1.314430
    Zn  Zn4   0.500070  0.451745  0.497370  1.314405
    C   C9    0.999345  0.124150  0.990403  -0.077752
    C   C10   0.499345  0.624150  0.990403  -0.077778
    H   H1    0.039902  0.039598  0.732416  0.171793
    H   H2    0.959996  0.957824  0.267619  0.160878
    H   H3    0.539902  0.539598  0.732416  0.171780
    H   H4    0.459996  0.457824  0.267619  0.160864
    C   C11   0.934769  0.945497  0.625389  -0.174026
    C   C12   0.065260  0.051772  0.375009  -0.183953
    C   C13   0.434769  0.445497  0.625389  -0.174041
    C   C14   0.565260  0.551772  0.375009  -0.183979
    H   H5    0.929396  0.948651  0.571663  0.128989
    H   H6    0.070627  0.048552  0.428723  0.135122
    H   H7    0.429396  0.448651  0.571663  0.128997
    H   H8    0.570627  0.548552  0.428723  0.135134
    C   C15   0.909796  0.918273  0.632994  -0.098776
    C   C16   0.090270  0.079000  0.367515  -0.096025
    C   C17   0.409796  0.418273  0.632994  -0.098770
    C   C18   0.590270  0.579000  0.367515  -0.096012
    H   H9    0.886798  0.900358  0.586643  0.103061
    H   H10   0.113289  0.096857  0.413936  0.103228
    H   H11   0.386798  0.400358  0.586643  0.103062
    H   H12   0.613289  0.596857  0.413936  0.103225
    C   C19   0.914457  0.913401  0.699596  -0.066688
    C   C20   0.085616  0.083955  0.300932  -0.070350
    C   C21   0.414457  0.413401  0.699596  -0.066693
    C   C22   0.585616  0.583955  0.300932  -0.070356
    H   H13   0.895490  0.891266  0.705936  0.098537
    H   H14   0.104607  0.106100  0.294675  0.100464
    H   H15   0.395490  0.391266  0.705936  0.098534
    H   H16   0.604607  0.606100  0.294675  0.100461
    C   C23   0.942830  0.937077  0.758063  -0.258765
    C   C24   0.057220  0.060347  0.242376  -0.259999
    C   C25   0.442830  0.437077  0.758063  -0.258744
    C   C26   0.557220  0.560347  0.242376  -0.259976
    H   H17   0.945732  0.931550  0.809427  0.168008
    H   H18   0.054322  0.065937  0.191034  0.170686
    H   H19   0.445732  0.431550  0.809427  0.168007
    H   H20   0.554322  0.565937  0.191034  0.170686
    C   C27   0.967141  0.965975  0.750547  0.128820
    C   C28   0.032877  0.031437  0.249783  0.123607
    C   C29   0.467141  0.465975  0.750547  0.128775
    C   C30   0.532877  0.531437  0.249783  0.123557
    C   C31   0.964763  0.968440  0.684690  0.093623
    C   C32   0.035239  0.028902  0.315619  0.099090
    C   C33   0.464763  0.468440  0.684690  0.093658
    C   C34   0.535239  0.528902  0.315619  0.099133
    C   C35   0.991640  0.994652  0.678710  0.036239
    C   C36   0.008317  0.002699  0.321490  0.032217
    C   C37   0.491640  0.494652  0.678710  0.036189
    C   C38   0.508317  0.502699  0.321490  0.032164
    C   C39   0.018912  0.019306  0.736694  -0.203899
    C   C40   0.981025  0.978104  0.263429  -0.184476
    C   C41   0.518912  0.519306  0.736694  -0.203862
    C   C42   0.481025  0.478104  0.263429  -0.184437
    H   H21   0.041804  0.037666  0.845577  0.161983
    H   H22   0.958143  0.959846  0.154502  0.163002
    H   H23   0.541804  0.537666  0.845577  0.161978
    H   H24   0.458143  0.459846  0.154502  0.162999
    C   C43   0.020493  0.017683  0.800992  -0.180597
    C   C44   0.979470  0.979783  0.199155  -0.188927
    C   C45   0.520493  0.517683  0.800992  -0.180600
    C   C46   0.479470  0.479783  0.199155  -0.188935
    C   C47   0.994633  0.991589  0.808343  0.013658
    C   C48   0.005364  0.005884  0.191901  0.022306
    C   C49   0.494633  0.491589  0.808343  0.013692
    C   C50   0.505364  0.505884  0.191901  0.022340
    C   C51   0.729108  0.984924  0.172277  -0.326610
    C   C52   0.270746  0.985140  0.827359  -0.320990
    C   C53   0.229108  0.484924  0.172277  -0.326522
    C   C54   0.770746  0.485140  0.827359  -0.320999
    H   H25   0.712328  0.974633  0.116139  0.184971
    H   H26   0.287502  0.974230  0.883137  0.183878
    H   H27   0.212328  0.474633  0.116139  0.184964
    H   H28   0.787502  0.474230  0.883137  0.183878
    C   C55   0.707288  0.998190  0.202178  0.345238
    C   C56   0.292596  0.999058  0.797902  0.345495
    C   C57   0.207288  0.498190  0.202178  0.345208
    C   C58   0.792596  0.499058  0.797902  0.345517
    C   C59   0.728187  0.011137  0.273789  -0.234071
    C   C60   0.271728  0.012798  0.726743  -0.236257
    C   C61   0.228187  0.511137  0.273789  -0.234085
    C   C62   0.771728  0.512798  0.726743  -0.236266
    H   H29   0.711114  0.021549  0.297286  0.160657
    H   H30   0.288824  0.023722  0.703594  0.159994
    H   H31   0.211114  0.521549  0.297286  0.160664
    H   H32   0.788824  0.523722  0.703594  0.159995
    C   C63   0.770856  0.010809  0.315482  -0.155958
    C   C64   0.229057  0.012609  0.685057  -0.154755
    C   C65   0.270856  0.510809  0.315482  -0.155973
    C   C66   0.729057  0.512609  0.685057  -0.154747
    H   H33   0.787163  0.021058  0.371620  0.142101
    H   H34   0.212772  0.023484  0.629277  0.142192
    H   H35   0.287163  0.521058  0.371620  0.142108
    H   H36   0.712772  0.523484  0.629277  0.142190
    C   C67   0.792875  0.997468  0.285966  0.141448
    C   C68   0.207008  0.998612  0.714127  0.147077
    C   C69   0.292875  0.497468  0.285966  0.141604
    C   C70   0.707008  0.498612  0.714127  0.147070
    C   C71   0.771933  0.984348  0.213901  0.079956
    C   C72   0.227921  0.984699  0.785736  0.062652
    C   C73   0.271933  0.484348  0.213901  0.079868
    C   C74   0.727921  0.484699  0.785736  0.062655
    C   C75   0.662791  0.998332  0.158849  -0.205172
    C   C76   0.337091  0.999044  0.841215  -0.203831
    C   C77   0.162791  0.498332  0.158849  -0.205201
    C   C78   0.837091  0.499044  0.841215  -0.203858
    C   C79   0.837395  0.997775  0.330912  -0.107714
    C   C80   0.162490  0.999093  0.669213  -0.116799
    C   C81   0.337395  0.497775  0.330912  -0.107927
    C   C82   0.662490  0.499093  0.669213  -0.116798
    C   C83   0.874712  0.997893  0.368958  -0.116965
    C   C84   0.125175  0.999388  0.631180  -0.116417
    C   C85   0.374712  0.497893  0.368958  -0.116772
    C   C86   0.625175  0.499388  0.631180  -0.116400
    C   C87   0.625441  0.998435  0.122665  -0.071747
    C   C88   0.374441  0.999007  0.877393  -0.074625
    C   C89   0.125441  0.498435  0.122665  -0.071695
    C   C90   0.874441  0.499007  0.877393  -0.074591
    C   C91   0.499942  0.873305  0.992940  -0.045734
    C   C92   0.999942  0.373305  0.992940  -0.045754
    O   O17   0.036534  0.936849  0.036116  -0.669010
    O   O18   0.965200  0.937274  0.976422  -0.687187
    O   O19   0.536534  0.436849  0.036116  -0.669016
    O   O20   0.465200  0.437274  0.976422  -0.687184
    C   C93   0.000852  0.917847  0.007898  0.755933
    C   C94   0.500852  0.417847  0.007898  0.755933
    O   O21   0.033421  0.994190  0.937901  -0.678609
    O   O22   0.966588  0.003339  0.062347  -0.677376
    O   O23   0.533421  0.494190  0.937901  -0.678592
    O   O24   0.466588  0.503339  0.062347  -0.677359
    O   O25   0.962070  0.996040  0.875529  -0.669321
    O   O26   0.037938  0.001539  0.124714  -0.670097
    O   O27   0.462070  0.496040  0.875529  -0.669317
    O   O28   0.537938  0.501539  0.124714  -0.670094
    C   C95   0.996687  0.993289  0.877277  0.653168
    C   C96   0.003319  0.004247  0.122970  0.648512
    C   C97   0.496687  0.493289  0.877277  0.653132
    C   C98   0.503319  0.504247  0.122970  0.648483
    Zn  Zn5   0.046874  0.998727  0.041270  1.302332
    Zn  Zn6   0.953138  0.998810  0.958979  1.301157
    Zn  Zn7   0.546874  0.498727  0.041270  1.302308
    Zn  Zn8   0.453138  0.498810  0.958979  1.301129
    O   O29   0.034813  0.060261  0.023867  -0.686409
    O   O30   0.963477  0.060691  0.964096  -0.666349
    O   O31   0.534813  0.560261  0.023867  -0.686366
    O   O32   0.463477  0.560691  0.964096  -0.666309
    C   C99   0.999167  0.079692  0.992360  0.749695
    C   C100  0.499167  0.579692  0.992360  0.749664
    O   O33   0.500504  0.935984  0.049177  -0.691514
    O   O34   0.499258  0.938051  0.941977  -0.678070
    O   O35   0.000504  0.435984  0.049177  -0.691492
    O   O36   0.999258  0.438051  0.941977  -0.678031
    C   C101  0.499887  0.917773  0.994742  0.748214
    C   C102  0.999887  0.417773  0.994742  0.748200
    O   O37   0.561436  0.998380  0.113957  -0.674648
    O   O38   0.438441  0.999048  0.886094  -0.673418
    O   O39   0.061436  0.498380  0.113957  -0.674646
    O   O40   0.938441  0.499048  0.886094  -0.673426
    O   O41   0.561896  0.998766  0.008329  -0.697807
    O   O42   0.437986  0.998640  0.991724  -0.698181
    O   O43   0.061896  0.498766  0.008329  -0.697794
    O   O44   0.937986  0.498640  0.991724  -0.698166
    C   C103  0.580939  0.998559  0.079736  0.755095
    C   C104  0.418942  0.998948  0.920319  0.756248
    C   C105  0.080939  0.498559  0.079736  0.755028
    C   C106  0.918942  0.498948  0.920319  0.756213
    Zn  Zn9   0.499465  0.997234  0.069111  1.322183
    Zn  Zn10  0.500414  0.000360  0.930997  1.322337
    Zn  Zn11  0.999465  0.497234  0.069111  1.322169
    Zn  Zn12  0.000414  0.500360  0.930997  1.322330
    O   O45   0.500652  0.059510  0.058153  -0.674794
    O   O46   0.499358  0.061576  0.950923  -0.690422
    O   O47   0.000652  0.559510  0.058153  -0.674760
    O   O48   0.999358  0.561576  0.950923  -0.690422
    C   C107  0.499996  0.079788  0.005371  0.735490
    C   C108  0.999996  0.579788  0.005371  0.735459
    H   H37   0.952861  0.786781  0.032468  0.153939
    H   H38   0.048897  0.787154  0.990090  0.155821
    H   H39   0.452861  0.286781  0.032468  0.153941
    H   H40   0.548897  0.287154  0.990090  0.155825
    C   C109  0.473869  0.227324  0.022540  -0.203605
    C   C110  0.527710  0.227556  0.998779  -0.198464
    C   C111  0.973869  0.727324  0.022540  -0.203628
    C   C112  0.027710  0.727556  0.998779  -0.198482
    H   H41   0.452659  0.210460  0.031448  0.151293
    H   H42   0.548693  0.210877  0.989065  0.151967
    H   H43   0.952659  0.710460  0.031448  0.151301
    H   H44   0.048693  0.710877  0.989065  0.151973
    C   C113  0.500694  0.206074  0.010252  0.332537
    C   C114  0.000694  0.706074  0.010252  0.332560
    C   C115  0.027832  0.770297  0.999376  -0.199569
    C   C116  0.973990  0.770092  0.023135  -0.195189
    C   C117  0.527832  0.270297  0.999376  -0.199581
    C   C118  0.473990  0.270092  0.023135  -0.195196
    C   C119  0.000947  0.791561  0.011462  0.309886
    C   C120  0.500947  0.291561  0.011462  0.309884
    C   C121  0.500350  0.161600  0.008840  -0.230015
    C   C122  0.000350  0.661600  0.008840  -0.230034
    C   C123  0.000777  0.836041  0.010985  -0.200882
    C   C124  0.500777  0.336041  0.010985  -0.200877
    C   C125  0.000749  0.873393  0.009959  -0.086567
    C   C126  0.500749  0.373393  0.009959  -0.086564
    C   C127  0.500146  0.124252  0.007369  -0.037732
    C   C128  0.000146  0.624252  0.007369  -0.037710
    H   H45   0.954182  0.211005  0.875790  0.156128
    H   H46   0.045772  0.210155  0.103878  0.156661
    H   H47   0.454182  0.711005  0.875790  0.156128
    H   H48   0.545772  0.710155  0.103878  0.156661
    C   C129  0.474515  0.770356  0.926609  -0.205697
    C   C130  0.525864  0.769859  0.054484  -0.195997
    C   C131  0.974515  0.270356  0.926609  -0.205706
    C   C132  0.025864  0.269859  0.054484  -0.196006
    H   H49   0.454358  0.787323  0.876754  0.156780
    H   H50   0.545947  0.786433  0.104842  0.154239
    H   H51   0.954358  0.287323  0.876754  0.156782
    H   H52   0.045947  0.286433  0.104842  0.154242
    C   C133  0.500197  0.791476  0.990857  0.332787
    C   C134  0.000197  0.291476  0.990857  0.332788
    C   C135  0.025773  0.227116  0.053938  -0.218674
    C   C136  0.974423  0.227588  0.926063  -0.206147
    C   C137  0.525773  0.727116  0.053938  -0.218675
    C   C138  0.474423  0.727588  0.926063  -0.206146
    C   C139  0.000024  0.205984  0.989767  0.333517
    C   C140  0.500024  0.705984  0.989767  0.333497
    C   C141  0.500031  0.835954  0.991762  -0.231517
    C   C142  0.000031  0.335954  0.991762  -0.231500
    C   C143  0.999605  0.161503  0.989671  -0.210664
    C   C144  0.499605  0.661503  0.989671  -0.210630
    C   C145  0.794767  0.969580  0.180220  0.007331
    C   C146  0.810931  0.926748  0.206250  -0.001422
    C   C147  0.798008  0.895118  0.159678  -0.487300
    H   H53   0.820627  0.990920  0.193792  0.032807
    H   H54   0.773464  0.969377  0.120046  0.044806
    H   H55   0.833430  0.921122  0.263650  0.088730
    H   H56   0.775456  0.899656  0.101937  0.185175
    H   H57   0.810107  0.864291  0.179684  0.178178
    C   C148  0.205055  0.969208  0.818922  0.040353
    C   C149  0.188806  0.926568  0.791496  -0.019841
    C   C150  0.201658  0.894439  0.837027  -0.479913
    H   H58   0.179239  0.990441  0.806045  0.023281
    H   H59   0.226356  0.968403  0.879080  0.036727
    H   H60   0.166308  0.921492  0.733916  0.102872
    H   H61   0.224209  0.898422  0.894911  0.185282
    H   H62   0.189502  0.863761  0.816016  0.174877
    C   C151  0.294767  0.469580  0.180220  0.007226
    C   C152  0.310931  0.426748  0.206250  -0.001394
    C   C153  0.298008  0.395118  0.159678  -0.487272
    H   H63   0.320627  0.490920  0.193792  0.032857
    H   H64   0.273464  0.469376  0.120046  0.044832
    H   H65   0.333430  0.421122  0.263650  0.088711
    H   H66   0.275456  0.399656  0.101937  0.185162
    H   H67   0.310107  0.364291  0.179684  0.178174
    C   C154  0.705055  0.469208  0.818922  0.040361
    C   C155  0.688806  0.426568  0.791496  -0.019869
    C   C156  0.701658  0.394439  0.837027  -0.479892
    H   H68   0.679239  0.490441  0.806045  0.023281
    H   H69   0.726356  0.468403  0.879080  0.036730
    H   H70   0.666308  0.421492  0.733916  0.102881
    H   H71   0.724209  0.398422  0.894911  0.185276
    H   H72   0.689502  0.363761  0.816016  0.174872
