# Generated by REPEAT Assigner based on pymatgen
data_DB0-m2_o7_o25_f0_pcu.sym.50_sqe
_audit_creation_date              2022-05-24
_audit_creation_method            REPEAT_Assigner
_cell_length_a                    15.921465
_cell_length_b                    17.678355
_cell_length_c                    16.227829
_cell_angle_alpha                 89.975044
_cell_angle_beta                  90.003325
_cell_angle_gamma                 90.005205
_cell_volume                      4567.570688
_symmetry_space_group_name_H-M    P1
_symmetry_Int_Tables_number       1
loop_
    _symmetry_equiv_pos_site_id
    _symmetry_equiv_pos_as_xyz
    1  x,y,z
loop_
    _atom_site_type_symbol
    _atom_site_label
    _atom_site_fract_x
    _atom_site_fract_y
    _atom_site_fract_z
    _atom_type_partial_charge
    O   O1   0.497248  0.389961  0.570289  -0.564921
    O   O2   0.502213  0.609992  0.428712  -0.569528
    O   O3   0.503100  0.390172  0.428673  -0.581621
    O   O4   0.496198  0.609784  0.570275  -0.586200
    C   C1   0.500453  0.354557  0.499463  0.633151
    C   C2   0.499106  0.645394  0.499530  0.639731
    O   O5   0.377629  0.496827  0.570440  -0.646118
    O   O6   0.621821  0.503057  0.428534  -0.639782
    O   O7   0.377721  0.502316  0.428710  -0.651944
    O   O8   0.621762  0.497793  0.570265  -0.647085
    C   C3   0.338521  0.499703  0.499696  0.878364
    C   C4   0.660900  0.500572  0.499300  0.867497
    Cu  Cu1  0.499567  0.499332  0.581900  0.883941
    Cu  Cu2  0.499927  0.500124  0.417055  0.887212
    C   C5   0.973214  0.438995  0.535825  -0.419028
    C   C6   0.026657  0.560216  0.463162  -0.415217
    C   C7   0.027716  0.439048  0.459468  -0.130223
    C   C8   0.972143  0.560143  0.539559  -0.134769
    H   H1   0.051399  0.388011  0.427321  0.088856
    H   H2   0.948420  0.611327  0.571477  0.089394
    H   H3   0.947891  0.503192  0.358360  0.085796
    H   H4   0.051598  0.496086  0.640857  0.084897
    C   C9   0.248582  0.499198  0.499648  -0.138814
    C   C10  0.751134  0.500319  0.499205  -0.135092
    C   C11  0.027713  0.498333  0.576704  -0.122975
    C   C12  0.972133  0.500834  0.422361  -0.127447
    C   C13  0.081200  0.499429  0.499705  0.773775
    C   C14  0.918775  0.499745  0.499329  0.782565
    C   C15  0.173045  0.499039  0.499918  -0.438150
    C   C16  0.826921  0.500014  0.499002  -0.444175
    C   C17  0.497183  0.845865  0.572858  -0.230952
    C   C18  0.502958  0.154271  0.426097  -0.228103
    H   H5   0.494948  0.876643  0.630410  0.141244
    H   H6   0.504790  0.123767  0.368307  0.140777
    C   C19  0.497043  0.767784  0.573208  -0.069982
    C   C20  0.502935  0.232095  0.425787  -0.069156
    H   H7   0.494846  0.738537  0.631523  0.111093
    H   H8   0.504522  0.261108  0.367280  0.110529
    C   C21  0.499317  0.728188  0.499605  -0.051594
    C   C22  0.500570  0.271492  0.499434  -0.052407
    C   C23  0.501792  0.767710  0.426048  -0.043377
    C   C24  0.498287  0.232164  0.573062  -0.042575
    H   H9   0.503339  0.737981  0.367795  0.099054
    H   H10  0.496205  0.261752  0.631386  0.098342
    C   C25  0.501918  0.845859  0.426050  -0.246918
    C   C26  0.498317  0.154237  0.573058  -0.243070
    H   H11  0.503415  0.876537  0.368531  0.144225
    H   H12  0.496484  0.123629  0.630651  0.143511
    C   C27  0.499771  0.884807  0.499461  0.322319
    C   C28  0.500478  0.115239  0.499558  0.318916
    C   C29  0.499836  0.965824  0.499463  -0.171115
    C   C30  0.500046  0.033976  0.499530  -0.174493
    C   C31  0.551726  0.547492  0.831236  -0.272097
    C   C32  0.450107  0.450105  0.168074  -0.274466
    H   H13  0.592288  0.585863  0.864525  0.150764
    H   H14  0.409381  0.411716  0.135312  0.150144
    C   C33  0.550992  0.546675  0.746124  0.041444
    C   C34  0.450213  0.451351  0.253073  0.044523
    H   H15  0.591298  0.584440  0.711801  0.117393
    H   H16  0.409001  0.413565  0.286755  0.117955
    N   N1   0.499472  0.499933  0.705101  -0.060188
    N   N2   0.499775  0.500229  0.293838  -0.068664
    C   C35  0.449836  0.450451  0.746340  0.021888
    C   C36  0.550583  0.548166  0.252475  0.033118
    H   H17  0.409286  0.411589  0.713767  0.133965
    H   H18  0.589522  0.587453  0.285859  0.129312
    C   C37  0.449311  0.449771  0.831098  -0.266031
    C   C38  0.551861  0.548333  0.167543  -0.271394
    H   H19  0.408700  0.410750  0.863195  0.149752
    H   H20  0.591851  0.587711  0.134738  0.151650
    C   C39  0.499956  0.499011  0.873995  0.361582
    C   C40  0.501248  0.498770  0.124965  0.363703
    C   C41  0.499834  0.499293  0.962352  -0.169549
    C   C42  0.500474  0.499256  0.036573  -0.169354
    C   C43  0.943667  0.368886  0.577829  0.804128
    O   O9   0.994807  0.323950  0.604958  -0.547072
    O   O10  0.860840  0.355155  0.585698  -0.278862
    C   C44  0.832597  0.290969  0.624058  -0.074214
    H   H21  0.762966  0.290932  0.623983  0.093780
    H   H22  0.855391  0.289815  0.688659  0.068823
    H   H23  0.855528  0.240340  0.590517  0.071866
    C   C45  0.056146  0.630395  0.421012  0.808392
    O   O11  0.004776  0.675132  0.394043  -0.547732
    O   O12  0.138956  0.644417  0.412762  -0.287294
    C   C46  0.166821  0.708748  0.374189  -0.066070
    H   H24  0.236461  0.709196  0.374008  0.092610
    H   H25  0.143782  0.759351  0.407648  0.070275
    H   H26  0.143896  0.709799  0.309663  0.067558
