# Generated by REPEAT Assigner based on pymatgen
data_DB0-m3_o16_o115_f0_fsc.sym.2
_audit_creation_date              2022-05-24
_audit_creation_method            REPEAT_Assigner
_cell_length_a                    12.047100
_cell_length_b                    16.467954
_cell_length_c                    16.701423
_cell_angle_alpha                 90.195854
_cell_angle_beta                  81.287321
_cell_angle_gamma                 107.456972
_cell_volume                      3121.227024
_symmetry_space_group_name_H-M    P1
_symmetry_Int_Tables_number       1
loop_
    _symmetry_equiv_pos_site_id
    _symmetry_equiv_pos_as_xyz
    1  x,y,z
loop_
    _atom_site_type_symbol
    _atom_site_label
    _atom_site_fract_x
    _atom_site_fract_y
    _atom_site_fract_z
    _atom_type_partial_charge
    H   H1   0.124605  0.113300  0.259666  0.150342
    C   C1   0.960265  0.730693  0.061650  -0.348000
    C   C2   0.949365  0.726014  0.980937  -0.316827
    C   C3   0.968459  0.808530  0.952145  0.542669
    N   N1   0.989715  0.863273  0.012158  -0.661146
    C   C4   0.984616  0.815693  0.079003  0.538896
    C   C5   0.971431  0.831790  0.874847  -0.394887
    C   C6   0.990698  0.920880  0.848135  0.395284
    C   C7   0.044819  0.955172  0.771677  -0.258028
    C   C8   0.041115  0.037899  0.769195  -0.261611
    C   C9   0.985186  0.051161  0.844338  0.332405
    N   N2   0.953114  0.979195  0.891864  -0.417790
    C   C10  0.959035  0.131034  0.866727  -0.348568
    C   C11  0.951628  0.155685  0.943232  0.550049
    C   C12  0.929273  0.230062  0.968233  -0.363289
    C   C13  0.935981  0.233578  0.049658  -0.299425
    C   C14  0.963439  0.161616  0.070790  0.510325
    N   N3   0.972818  0.113986  0.005793  -0.645293
    C   C15  0.983878  0.143767  0.144331  -0.349956
    C   C16  0.016841  0.067529  0.163161  0.352947
    C   C17  0.084445  0.062984  0.221827  -0.252408
    C   C18  0.090677  0.980828  0.223704  -0.261270
    C   C19  0.026903  0.938427  0.166008  0.316099
    N   N4   0.980606  0.991195  0.130137  -0.383829
    C   C20  0.005268  0.847167  0.151059  -0.316364
    H   H2   0.951177  0.677133  0.102037  0.174058
    H   H3   0.929406  0.667983  0.948207  0.157740
    H   H4   0.082772  0.923958  0.722643  0.152268
    H   H5   0.075550  0.082716  0.717750  0.149823
    H   H6   0.910434  0.277410  0.932375  0.178961
    H   H7   0.922996  0.284143  0.087823  0.153744
    H   H8   0.136284  0.955260  0.263336  0.155602
    H   H9   0.901094  0.968269  0.948841  0.317869
    H   H10  0.919935  0.974481  0.090117  0.305744
    C   C21  0.080148  0.280290  0.200948  -0.345721
    H   H11  0.149501  0.291080  0.149260  0.148465
    C   C22  0.085536  0.339401  0.260265  0.357555
    C   C23  0.995108  0.324047  0.326480  -0.310788
    C   C24  0.901242  0.250167  0.331221  -0.027032
    H   H12  0.830595  0.237066  0.382234  0.104058
    C   C25  0.897854  0.191155  0.272311  -0.292337
    H   H13  0.824827  0.133108  0.277215  0.125413
    C   C26  0.986794  0.206520  0.206833  0.322147
    C   C27  0.112153  0.773379  0.226373  -0.186984
    H   H14  0.192756  0.805207  0.186137  0.111378
    C   C28  0.112917  0.715777  0.286265  -0.060368
    H   H15  0.194495  0.703238  0.291984  0.094948
    C   C29  0.009429  0.673053  0.336519  -0.096876
    C   C30  0.906232  0.690266  0.327267  -0.070435
    H   H16  0.824007  0.658442  0.365769  0.101982
    C   C31  0.906094  0.748386  0.268157  -0.233383
    H   H17  0.824721  0.760495  0.260937  0.112123
    C   C32  0.008549  0.789508  0.216994  0.260211
    C   C33  0.065547  0.249399  0.767978  -0.174472
    H   H18  0.146279  0.249329  0.788718  0.108603
    C   C34  0.068625  0.307633  0.708006  -0.085649
    H   H19  0.152598  0.352374  0.683054  0.096443
    C   C35  0.965812  0.309356  0.681628  -0.091683
    C   C36  0.859911  0.251299  0.715747  -0.048673
    H   H20  0.778388  0.251235  0.696183  0.106271
    C   C37  0.857348  0.192264  0.775319  -0.267178
    H   H21  0.774373  0.147242  0.801837  0.127553
    C   C38  0.960247  0.191367  0.801714  0.288783
    C   C39  0.886482  0.748573  0.763438  -0.277873
    H   H22  0.815165  0.776446  0.772653  0.120264
    C   C40  0.890591  0.691557  0.703245  -0.004889
    C   C41  0.982245  0.656251  0.689757  -0.343685
    C   C42  0.069758  0.677781  0.739060  0.398656
    C   C43  0.064331  0.734835  0.799075  -0.380553
    H   H23  0.132654  0.753163  0.836638  0.161390
    C   C44  0.972782  0.769595  0.811987  0.328961
    H   H24  0.822264  0.676174  0.665587  0.091260
    O   O1   0.892336  0.390508  0.426612  -0.675590
    O   O2   0.093990  0.428646  0.412912  -0.592443
    C   C45  0.994184  0.384318  0.391421  0.795906
    O   O3   0.105088  0.598989  0.414902  -0.650444
    O   O4   0.901946  0.561189  0.433470  -0.639553
    C   C46  0.006071  0.608152  0.397913  0.695904
    O   O5   0.085362  0.590838  0.588327  -0.620141
    O   O6   0.882744  0.552805  0.602272  -0.671937
    C   C47  0.983562  0.596885  0.623811  0.809370
    O   O7   0.872441  0.382046  0.600956  -0.670162
    O   O8   0.074474  0.420133  0.583084  -0.604577
    C   C48  0.970663  0.373103  0.618646  0.689678
    Zn  Zn1  0.119941  0.516091  0.498334  0.961399
    Zn  Zn2  0.857542  0.464599  0.517333  1.010371
    C   C49  0.529270  0.322841  0.526281  -0.270976
    H   H25  0.694306  0.305803  0.534773  0.147970
    H   H26  0.310700  0.281232  0.508576  0.157891
    H   H27  0.484908  0.255071  0.528858  0.151514
    N   N5   0.703729  0.435461  0.525657  -0.016557
    C   C50  0.325577  0.629573  0.486446  0.166932
    C   C51  0.443893  0.663523  0.488033  -0.219581
    C   C52  0.511663  0.611334  0.496028  -0.034394
    C   C53  0.460874  0.523440  0.500924  -0.016479
    C   C54  0.340786  0.491123  0.495350  0.179222
    C   C55  0.526007  0.466862  0.511661  -0.022364
    C   C56  0.469498  0.380107  0.515707  0.300715
    C   C57  0.353522  0.349162  0.507232  -0.301838
    C   C58  0.290591  0.403554  0.496286  0.001015
    C   C59  0.646189  0.493196  0.517744  -0.094094
    C   C60  0.646967  0.351477  0.530496  -0.006859
    N   N6   0.274226  0.544580  0.489950  -0.186013
    H   H28  0.697676  0.559123  0.513870  0.159401
    H   H29  0.273829  0.672584  0.484136  0.086505
    H   H30  0.603096  0.642635  0.498546  0.127938
    H   H31  0.483363  0.731900  0.485161  0.136793
    H   H32  0.201521  0.374009  0.488313  0.096130
    C   C61  0.167961  0.638803  0.732457  -0.434945
    H   H33  0.131989  0.568313  0.734237  0.134404
    H   H34  0.231092  0.662683  0.675953  0.104054
    H   H35  0.217076  0.656456  0.784092  0.090540
    C   C62  0.186380  0.419921  0.248669  -0.417655
    H   H36  0.244704  0.421769  0.294457  0.092716
    H   H37  0.239674  0.423276  0.187863  0.092423
    H   H38  0.152897  0.475873  0.253047  0.133795
