# Generated by REPEAT Assigner based on pymatgen
data_DB0-m3_o150_o158_f0_fsc.sym.63_sqe
_audit_creation_date              2022-05-24
_audit_creation_method            REPEAT_Assigner
_cell_length_a                    13.384759
_cell_length_b                    8.549929
_cell_length_c                    15.063263
_cell_angle_alpha                 90.000000
_cell_angle_beta                  90.988344
_cell_angle_gamma                 90.000000
_cell_volume                      1723.564457
_symmetry_space_group_name_H-M    P1
_symmetry_Int_Tables_number       1
loop_
    _symmetry_equiv_pos_site_id
    _symmetry_equiv_pos_as_xyz
    1  x,y,z
loop_
    _atom_site_type_symbol
    _atom_site_label
    _atom_site_fract_x
    _atom_site_fract_y
    _atom_site_fract_z
    _atom_type_partial_charge
    H   H1   0.037572  0.987682  0.562478  0.141474
    H   H2   0.962429  0.987682  0.437522  0.141495
    C   C1   0.008563  0.126534  0.675362  0.031208
    C   C2   0.990248  0.847273  0.325036  0.007643
    C   C3   0.991437  0.126534  0.324637  0.031345
    C   C4   0.009752  0.847273  0.674964  0.007564
    C   C5   0.992327  0.126563  0.765643  -0.377589
    C   C6   0.001978  0.845855  0.234420  -0.358431
    C   C7   0.007673  0.126563  0.234357  -0.377701
    C   C8   0.998022  0.845855  0.765580  -0.358455
    H   H3   0.984956  0.235869  0.800997  0.117940
    H   H4   0.004725  0.735852  0.199149  0.109931
    H   H5   0.015044  0.235869  0.199003  0.118001
    H   H6   0.995276  0.735852  0.800851  0.109920
    C   C9   0.990764  0.985850  0.811281  0.455221
    C   C10  0.009236  0.985850  0.188719  0.455225
    C   C11  0.021884  0.987196  0.632026  -0.199905
    C   C12  0.978116  0.987196  0.367974  -0.199998
    C   C13  0.907042  0.989183  0.957643  -0.042346
    C   C14  0.092958  0.989183  0.042357  -0.042324
    C   C15  0.914700  0.988929  0.049117  -0.208046
    C   C16  0.085300  0.988929  0.950883  -0.208064
    H   H7   0.847744  0.991048  0.088207  0.098702
    H   H8   0.152256  0.991048  0.911793  0.098701
    C   C17  0.006772  0.984951  0.091756  0.012630
    C   C18  0.993228  0.984951  0.908244  0.012687
    O   O1   0.089795  0.656057  0.587029  -0.739508
    O   O2   0.910301  0.317715  0.412776  -0.733659
    O   O3   0.910205  0.656057  0.412970  -0.739359
    O   O4   0.089699  0.317715  0.587224  -0.733606
    O   O5   0.917997  0.650180  0.597213  -0.708669
    O   O6   0.082052  0.323495  0.402786  -0.706953
    O   O7   0.082003  0.650180  0.402787  -0.708532
    O   O8   0.917948  0.323495  0.597214  -0.706940
    C   C19  0.006134  0.705160  0.621251  0.860843
    C   C20  0.994164  0.268765  0.378419  0.843499
    C   C21  0.993866  0.705160  0.378749  0.860555
    C   C22  0.005836  0.268765  0.621581  0.843510
    Zn  Zn1  0.888785  0.486786  0.503726  1.050695
    Zn  Zn2  0.111215  0.486786  0.496274  1.050703
    C   C23  0.292372  0.469735  0.417700  -0.337925
    C   C24  0.707628  0.469735  0.582299  -0.338091
    N   N1   0.242163  0.486698  0.494001  0.207849
    N   N2   0.757837  0.486698  0.505999  0.208034
    C   C25  0.291513  0.504359  0.572286  -0.318773
    C   C26  0.708487  0.504359  0.427713  -0.318841
    C   C27  0.394473  0.505641  0.575613  0.258670
    C   C28  0.605527  0.505641  0.424387  0.258689
    C   C29  0.446022  0.487179  0.498633  -0.140592
    C   C30  0.553978  0.487179  0.501367  -0.140666
    C   C31  0.395640  0.468788  0.419186  0.189047
    C   C32  0.604360  0.468788  0.580814  0.189117
    C   C33  0.450703  0.535176  0.660307  -0.027120
    C   C34  0.549297  0.535176  0.339693  -0.027095
    C   C35  0.546392  0.439523  0.662771  0.024405
    C   C36  0.453608  0.439523  0.337228  0.024384
    H   H9   0.250197  0.518339  0.632751  0.190030
    H   H10  0.749803  0.518339  0.367249  0.190022
    H   H11  0.404121  0.503706  0.717796  0.016504
    H   H12  0.529715  0.661051  0.335798  -0.001678
    H   H13  0.595879  0.503706  0.282204  0.016505
    H   H14  0.470285  0.661051  0.664202  -0.001669
    H   H15  0.526786  0.313645  0.665938  0.006817
    H   H16  0.408314  0.471455  0.277613  0.023032
    H   H17  0.473214  0.313645  0.334062  0.006828
    H   H18  0.591686  0.471455  0.722386  0.023030
    H   H19  0.251735  0.454379  0.355690  0.202343
    H   H20  0.748265  0.454379  0.644310  0.202381
    C   C37  0.807910  0.002738  0.915648  0.206762
    C   C38  0.742692  0.115497  0.945494  -0.200191
    C   C39  0.648791  0.130134  0.907321  -0.074230
    C   C40  0.619137  0.030653  0.839915  -0.014148
    Br  Br1  0.489117  0.050154  0.787481  -0.052440
    C   C41  0.683140  0.915701  0.811281  -0.052256
    C   C42  0.777231  0.901405  0.849190  -0.234946
    H   H21  0.765687  0.194648  0.997939  0.129212
    H   H22  0.598416  0.219676  0.930299  0.096913
    H   H23  0.659197  0.835597  0.759628  0.109065
    H   H24  0.824453  0.806428  0.828955  0.138940
    C   C43  0.192090  0.002739  0.084352  0.206779
    C   C44  0.257308  0.115498  0.054505  -0.200247
    C   C45  0.351209  0.130135  0.092679  -0.074178
    C   C46  0.380863  0.030653  0.160084  -0.014179
    Br  Br2  0.510883  0.050155  0.212519  -0.052439
    C   C47  0.316860  0.915701  0.188718  -0.052245
    C   C48  0.222769  0.901406  0.150809  -0.234932
    H   H25  0.234313  0.194648  0.002061  0.129228
    H   H26  0.401584  0.219676  0.069701  0.096903
    H   H27  0.340803  0.835597  0.240372  0.109062
    H   H28  0.175547  0.806428  0.171044  0.138922
