# Generated by REPEAT Assigner based on pymatgen
data_DB0-m3_o16_o22_f0_pcu.sym.32
_audit_creation_date              2022-05-24
_audit_creation_method            REPEAT_Assigner
_cell_length_a                    10.772674
_cell_length_b                    12.571880
_cell_length_c                    13.711130
_cell_angle_alpha                 86.640299
_cell_angle_beta                  90.015242
_cell_angle_gamma                 101.837045
_cell_volume                      1814.193470
_symmetry_space_group_name_H-M    P1
_symmetry_Int_Tables_number       1
loop_
    _symmetry_equiv_pos_site_id
    _symmetry_equiv_pos_as_xyz
    1  x,y,z
loop_
    _atom_site_type_symbol
    _atom_site_label
    _atom_site_fract_x
    _atom_site_fract_y
    _atom_site_fract_z
    _atom_type_partial_charge
    O   O1   0.472726  0.377712  0.626988  -0.728288
    O   O2   0.520403  0.559775  0.656810  -0.683084
    C   C1   0.496260  0.456387  0.687612  0.965120
    O   O3   0.660684  0.417713  0.478475  -0.710377
    O   O4   0.704693  0.600515  0.507907  -0.663201
    C   C2   0.740776  0.509405  0.491868  0.721077
    Zn  Zn1  0.468511  0.385610  0.479062  1.102349
    Zn  Zn2  0.525720  0.626300  0.518203  1.057811
    O   O5   0.476511  0.451879  0.340310  -0.723524
    O   O6   0.520591  0.634228  0.370241  -0.722591
    O   O7   0.289532  0.411694  0.488513  -0.699431
    O   O8   0.333543  0.593246  0.520606  -0.713455
    C   C3   0.498075  0.555139  0.310263  0.853278
    C   C4   0.253343  0.502379  0.505557  0.627000
    C   C5   0.902554  0.422883  0.571558  -0.099378
    H   H1   0.856587  0.340387  0.550320  -0.004700
    H   H2   0.862143  0.437526  0.642734  0.078159
    C   C6   0.044142  0.428531  0.582091  -0.085575
    H   H3   0.075262  0.459475  0.654110  0.016181
    H   H4   0.063600  0.345594  0.578291  0.007231
    H   H5   0.864289  0.399595  0.377385  -0.134125
    H   H6   0.056741  0.375736  0.404174  -0.033204
    C   C7   0.923021  0.479062  0.395465  0.823690
    C   C8   0.954224  0.618359  0.521887  -0.073681
    C   C9   0.879225  0.508288  0.494249  -0.161655
    H   H7   0.934104  0.685899  0.472826  0.020544
    H   H8   0.928834  0.632800  0.597709  0.038128
    C   C10  0.114977  0.504508  0.501050  0.168784
    C   C11  0.059872  0.464516  0.403395  0.226326
    C   C12  0.094602  0.618869  0.517338  -0.084295
    H   H9   0.136362  0.646145  0.587892  0.037384
    H   H10  0.138902  0.678527  0.458456  -0.003256
    C   C13  0.425011  0.700865  0.080067  0.390842
    H   H11  0.439614  0.736326  0.230431  0.113200
    H   H12  0.356634  0.711527  0.894759  0.098850
    C   C14  0.485917  0.583314  0.205776  -0.085295
    C   C15  0.562629  0.337461  0.818176  0.388965
    C   C16  0.586835  0.312357  0.914139  0.377550
    C   C17  0.561396  0.376163  0.986200  -0.390050
    C   C18  0.506715  0.465815  0.964731  -0.040882
    C   C19  0.478117  0.489501  0.867451  0.281012
    C   C20  0.482757  0.533675  0.037840  0.201470
    C   C21  0.437649  0.626883  0.011262  -0.123365
    C   C22  0.400900  0.644282  0.916359  -0.049347
    C   C23  0.416560  0.574526  0.846462  -0.298864
    C   C24  0.501570  0.510978  0.137137  -0.243872
    C   C25  0.451718  0.679754  0.176667  -0.292110
    C   C26  0.508813  0.426628  0.793060  -0.542681
    H   H13  0.526921  0.436921  0.165022  0.135848
    H   H14  0.589465  0.353166  0.058186  0.159689
    H   H15  0.378300  0.589425  0.775633  0.165692
    C   C27  0.312642  0.085265  0.367652  -0.236199
    H   H16  0.290508  0.249505  0.353485  0.142367
    H   H17  0.274105  0.879997  0.336780  0.161593
    H   H18  0.239523  0.058489  0.315284  0.132780
    N   N1   0.431953  0.226691  0.453745  -0.040301
    C   C28  0.652593  0.812841  0.609311  0.025778
    C   C29  0.687489  0.918591  0.634831  -0.125658
    C   C30  0.629232  0.997179  0.593168  -0.134132
    C   C31  0.534538  0.969673  0.524718  0.083061
    C   C32  0.502237  0.861007  0.500689  0.168838
    C   C33  0.470905  0.046799  0.479724  -0.047417
    C   C34  0.377210  0.012650  0.412674  0.261667
    C   C35  0.347016  0.906006  0.389507  -0.258367
    C   C36  0.408890  0.831347  0.432786  -0.164323
    C   C37  0.496946  0.157260  0.498837  -0.037625
    C   C38  0.341085  0.192487  0.389076  -0.036604
    N   N2   0.561350  0.784638  0.543181  -0.123681
    H   H19  0.568730  0.191345  0.548980  0.122930
    H   H20  0.699174  0.751954  0.642998  0.129827
    H   H21  0.661171  0.078135  0.616817  0.150610
    H   H22  0.760988  0.940106  0.688101  0.115894
    H   H23  0.381845  0.749455  0.411748  0.209655
    N   N3   0.905801  0.559828  0.318521  -1.001509
    H   H24  0.911227  0.526554  0.251003  0.321839
    H   H25  0.975266  0.630868  0.321002  0.345904
    N   N4   0.136675  0.515032  0.318812  -1.054252
    H   H26  0.198445  0.464548  0.301919  0.390565
    H   H27  0.190459  0.591005  0.333687  0.361552
    N   N5   0.383904  0.799021  0.051547  -0.750307
    H   H28  0.456355  0.848604  0.009341  0.286246
    H   H29  0.371823  0.839919  0.113777  0.296945
    N   N6   0.601037  0.274459  0.745016  -0.599641
    H   H30  0.698547  0.278770  0.751044  0.238173
    H   H31  0.553805  0.193643  0.758285  0.254365
    N   N7   0.643754  0.221820  0.939211  -0.940697
    H   H32  0.583498  0.169799  0.989080  0.335454
    H   H33  0.729168  0.250998  0.973981  0.348775
