# Generated by REPEAT Assigner based on pymatgen
data_DB0-m3_o1_o14_f0_nbo.sym.4_sqe
_audit_creation_date              2022-05-24
_audit_creation_method            REPEAT_Assigner
_cell_length_a                    18.669559
_cell_length_b                    18.969969
_cell_length_c                    18.999368
_cell_angle_alpha                 109.752260
_cell_angle_beta                  109.121803
_cell_angle_gamma                 109.151291
_cell_volume                      5204.383136
_symmetry_space_group_name_H-M    P1
_symmetry_Int_Tables_number       1
loop_
    _symmetry_equiv_pos_site_id
    _symmetry_equiv_pos_as_xyz
    1  x,y,z
loop_
    _atom_site_type_symbol
    _atom_site_label
    _atom_site_fract_x
    _atom_site_fract_y
    _atom_site_fract_z
    _atom_type_partial_charge
    O   O1   0.085280  0.137785  0.539750  -0.677382
    O   O2   0.079884  0.031965  0.429466  -0.680108
    C   C1   0.107996  0.113314  0.481494  0.698084
    O   O3   0.103149  0.044961  0.626870  -0.683689
    O   O4   0.093427  0.936722  0.515055  -0.676637
    C   C2   0.130144  0.991606  0.597137  0.673017
    Zn  Zn1  0.004097  0.061292  0.564239  1.298806
    Zn  Zn2  0.994036  0.923192  0.416452  1.286505
    O   O5   0.917237  0.952786  0.550382  -0.680397
    O   O6   0.913381  0.846642  0.441595  -0.671216
    O   O7   0.905165  0.048234  0.465438  -0.701122
    O   O8   0.894416  0.938611  0.353867  -0.697187
    C   C3   0.888636  0.871685  0.498360  0.607152
    C   C4   0.867652  0.992020  0.383381  0.787140
    C   C5   0.319089  0.105326  0.672892  0.188795
    C   C6   0.395628  0.184386  0.729087  -0.058547
    C   C7   0.441579  0.206731  0.814013  0.270265
    C   C8   0.416863  0.147307  0.839486  -0.499182
    H   H1   0.454674  0.166630  0.905733  0.236398
    C   C9   0.342048  0.067768  0.783329  0.227189
    C   C10  0.286116  0.053557  0.704569  -0.224626
    C   C11  0.199191  0.987940  0.659354  -0.011788
    C   C12  0.175366  0.928065  0.685555  0.222074
    H   H2   0.217449  0.883720  0.770671  0.179265
    C   C13  0.236883  0.933951  0.754907  -0.288254
    C   C14  0.320286  0.003527  0.805231  -0.046972
    C   C15  0.165754  0.181709  0.405846  0.261028
    C   C16  0.229197  0.249528  0.410626  -0.374329
    H   H3   0.223901  0.250571  0.352656  0.188448
    C   C17  0.301540  0.314450  0.488920  0.190493
    C   C18  0.308945  0.313711  0.563054  -0.280522
    H   H4   0.364855  0.364758  0.624700  0.158832
    C   C19  0.243960  0.248825  0.559112  -0.054320
    H   H5   0.250285  0.249396  0.617956  0.122162
    C   C20  0.173557  0.181314  0.480887  -0.094876
    C   C21  0.724472  0.913824  0.248390  0.101993
    C   C22  0.665327  0.916428  0.182813  0.139867
    C   C23  0.671862  0.995187  0.193854  -0.239355
    C   C24  0.738009  0.070595  0.269685  0.229613
    C   C25  0.799196  0.067718  0.331854  -0.317809
    H   H6   0.853141  0.126857  0.388778  0.189702
    C   C26  0.794525  0.990460  0.320842  -0.094751
    C   C27  0.815385  0.727393  0.481699  -0.267190
    H   H7   0.860730  0.711975  0.465542  0.149787
    C   C28  0.751960  0.667839  0.485176  -0.125741
    H   H8   0.747485  0.605826  0.470717  0.143494
    C   C29  0.692203  0.685739  0.503708  -0.035441
    C   C30  0.697936  0.765193  0.521799  0.240737
    C   C31  0.764022  0.825951  0.522232  -0.344395
    H   H9   0.768561  0.887908  0.536337  0.184716
    C   C32  0.821936  0.806946  0.500979  0.197151
    O   O9   0.443629  0.857942  0.909539  -0.709385
    O   O10  0.561225  0.960544  0.919674  -0.658399
    C   C33  0.504378  0.880221  0.888413  0.719437
    O   O11  0.353090  0.951193  0.903587  -0.675190
    O   O12  0.467486  0.049819  0.906842  -0.661286
    C   C34  0.383548  0.002729  0.876176  0.689344
    Zn  Zn3  0.421825  0.932424  0.996063  1.277231
    Zn  Zn4  0.571337  0.067656  0.004509  1.253170
    O   O13  0.432553  0.039587  0.081672  -0.695243
    O   O14  0.549055  0.142146  0.090359  -0.700695
    O   O15  0.525560  0.949304  0.093144  -0.662402
    O   O16  0.640254  0.049678  0.097574  -0.644847
    C   C35  0.488866  0.119999  0.112096  0.725477
    C   C36  0.609473  0.998860  0.125478  0.728506
    O   O17  0.448566  0.594803  0.544256  -0.684895
    O   O18  0.555236  0.590484  0.644362  -0.655363
    C   C37  0.503969  0.622164  0.624055  0.724337
    O   O19  0.348790  0.413435  0.442012  -0.678414
    O   O20  0.452031  0.409625  0.546356  -0.707749
    C   C38  0.370822  0.383155  0.493233  0.660937
    Zn  Zn5  0.429708  0.507353  0.432878  1.277419
    Zn  Zn6  0.564270  0.495936  0.563842  1.278783
    O   O21  0.439766  0.413752  0.352158  -0.650132
    O   O22  0.544218  0.407289  0.452610  -0.656705
    O   O23  0.541841  0.594543  0.451139  -0.673785
    O   O24  0.645111  0.588201  0.552815  -0.682237
    C   C39  0.490821  0.381902  0.372996  0.738076
    C   C40  0.623037  0.619916  0.502886  0.655659
    C   C41  0.586274  0.816571  0.834343  0.139747
    C   C42  0.586899  0.757628  0.766842  0.155003
    C   C43  0.508132  0.690755  0.693766  -0.085422
    C   C44  0.430816  0.686402  0.687013  -0.175408
    H   H10  0.369548  0.634807  0.630609  0.148781
    C   C45  0.430577  0.746927  0.751951  -0.205377
    H   H11  0.369401  0.743667  0.744320  0.164961
    C   C46  0.507631  0.812623  0.825120  -0.046305
    C   C47  0.505165  0.267025  0.178902  -0.063198
    C   C48  0.511190  0.332365  0.246691  0.191255
    C   C49  0.488709  0.315028  0.304102  -0.272173
    C   C50  0.463777  0.234370  0.296298  0.281958
    C   C51  0.463680  0.171889  0.232771  -0.376672
    H   H12  0.447433  0.110004  0.228789  0.199026
    C   C52  0.485604  0.187877  0.175079  0.032437
    C   C53  0.084393  0.855150  0.641273  -0.407365
    H   H13  0.038854  0.850029  0.582883  0.173311
    H   H14  0.085980  0.793837  0.622131  0.094222
    H   H15  0.058806  0.863012  0.686821  0.103696
    C   C54  0.708748  0.829035  0.243710  -0.363088
    H   H16  0.638270  0.786560  0.217114  0.090770
    H   H17  0.732246  0.797604  0.202917  0.117873
    H   H18  0.740884  0.836606  0.308234  0.128690
    C   C55  0.596610  0.835367  0.098800  -0.303552
    H   H19  0.612738  0.782872  0.087427  0.074810
    H   H20  0.532965  0.813266  0.097233  0.109884
    H   H21  0.590987  0.846640  0.044202  0.107109
    C   C56  0.744297  0.155790  0.286138  -0.296847
    H   H22  0.681157  0.152575  0.276561  0.103913
    H   H23  0.794972  0.206116  0.353310  0.060438
    H   H24  0.762804  0.174723  0.242875  0.099390
    C   C57  0.635268  0.787396  0.543226  -0.373803
    H   H25  0.634448  0.777842  0.597393  0.118909
    H   H26  0.654923  0.855727  0.562511  0.092478
    H   H27  0.569010  0.746838  0.486303  0.122487
    C   C58  0.670079  0.881304  0.917511  -0.445912
    H   H28  0.709662  0.850898  0.934106  0.114663
    H   H29  0.707495  0.936274  0.911993  0.138938
    H   H30  0.658983  0.905546  0.972413  0.146808
    C   C59  0.286813  0.066981  0.578235  -0.223330
    H   H31  0.342863  0.081865  0.566378  0.062195
    H   H32  0.249577  0.995839  0.544727  0.076206
    H   H33  0.246912  0.092548  0.550871  0.085770
    C   C60  0.672729  0.769934  0.772299  -0.451390
    H   H34  0.666829  0.739514  0.708268  0.165729
    H   H35  0.719152  0.839169  0.801839  0.108687
    H   H36  0.700349  0.743302  0.810814  0.133801
    C   C61  0.510781  0.278987  0.106360  -0.126717
    H   H37  0.482417  0.319533  0.094570  0.051825
    H   H38  0.579612  0.308715  0.121040  0.081536
    H   H39  0.470706  0.216914  0.045280  0.050156
    C   C62  0.545038  0.422610  0.261382  -0.327404
    H   H40  0.592016  0.469604  0.330487  0.128020
    H   H41  0.581975  0.434811  0.227680  0.065894
    H   H42  0.490132  0.435333  0.239987  0.115243
    C   C63  0.435894  0.213480  0.355319  -0.336695
    H   H43  0.381953  0.226821  0.353683  0.112546
    H   H44  0.412243  0.144370  0.334845  0.071997
    H   H45  0.491611  0.251825  0.421806  0.107463
    C   C64  0.430291  0.246142  0.700288  -0.264996
    H   H46  0.386849  0.224787  0.632849  0.082856
    H   H47  0.437737  0.309194  0.739730  0.086291
    H   H48  0.494347  0.254642  0.707219  0.087039
    C   C65  0.521702  0.292540  0.877929  -0.301290
    H   H49  0.571546  0.301067  0.857281  0.093848
    H   H50  0.505127  0.344648  0.884942  0.076892
    H   H51  0.550187  0.297760  0.941837  0.055698
    C   C66  0.088289  0.112355  0.320378  -0.331734
    H   H52  0.090469  0.128122  0.269758  0.079546
    H   H53  0.088061  0.050353  0.303977  0.103186
    H   H54  0.027644  0.106251  0.321725  0.106173
