# Generated by REPEAT Assigner based on pymatgen
data_DB0-m3_o24_o1470_f0_fsc.sym.17_sqe
_audit_creation_date              2022-05-24
_audit_creation_method            REPEAT_Assigner
_cell_length_a                    8.548833
_cell_length_b                    9.178507
_cell_length_c                    10.762500
_cell_angle_alpha                 97.926245
_cell_angle_beta                  90.008375
_cell_angle_gamma                 90.112436
_cell_volume                      836.415619
_symmetry_space_group_name_H-M    P1
_symmetry_Int_Tables_number       1
loop_
    _symmetry_equiv_pos_site_id
    _symmetry_equiv_pos_as_xyz
    1  x,y,z
loop_
    _atom_site_type_symbol
    _atom_site_label
    _atom_site_fract_x
    _atom_site_fract_y
    _atom_site_fract_z
    _atom_type_partial_charge
    C   C1   0.998361  0.932547  0.309378  -0.047978
    C   C2   0.001638  0.067453  0.690622  -0.047927
    C   C3   0.858219  0.949535  0.249944  -0.265649
    C   C4   0.141781  0.050465  0.750056  -0.265731
    C   C5   0.858314  0.972441  0.125687  0.111036
    C   C6   0.141686  0.027559  0.874313  0.111161
    C   C7   0.708381  0.991837  0.059877  -0.083056
    C   C8   0.291618  0.008163  0.940123  -0.083243
    C   C9   0.723644  0.937170  0.921320  -0.040342
    C   C10  0.276356  0.062830  0.078680  -0.040244
    C   C11  0.137847  0.961283  0.253364  -0.242469
    C   C12  0.862152  0.038717  0.746636  -0.242538
    C   C13  0.136952  0.996862  0.132500  0.058345
    C   C14  0.863047  0.003138  0.867500  0.058414
    C   C15  0.998946  0.988613  0.065651  -0.039244
    C   C16  0.001053  0.011387  0.934349  -0.039360
    H   H1   0.616577  0.925351  0.097972  0.048044
    H   H2   0.383423  0.074648  0.902028  0.048055
    H   H3   0.738919  0.816093  0.909675  0.051085
    H   H4   0.261080  0.183906  0.090325  0.051071
    H   H5   0.384704  0.037853  0.127093  -0.004843
    H   H6   0.615295  0.962147  0.872907  -0.004845
    H   H7   0.324587  0.890239  0.926444  0.094587
    H   H8   0.675412  0.109761  0.073556  0.094574
    H   H9   0.998150  0.914714  0.406463  0.101122
    H   H10  0.001850  0.085285  0.593536  0.101090
    O   O1   0.668921  0.099631  0.368089  -0.700997
    O   O2   0.331079  0.900368  0.631910  -0.701002
    O   O3   0.659369  0.848319  0.368283  -0.746504
    O   O4   0.340631  0.151680  0.631717  -0.746561
    C   C17  0.716435  0.965514  0.327051  0.924427
    C   C18  0.283564  0.034486  0.672949  0.924499
    O   O5   0.668220  0.893776  0.628644  -0.733156
    O   O6   0.331779  0.106223  0.371355  -0.733134
    O   O7   0.668321  0.145283  0.628416  -0.765514
    O   O8   0.331679  0.854717  0.371584  -0.765543
    C   C19  0.721777  0.026038  0.668314  0.961991
    C   C20  0.278222  0.973962  0.331685  0.961989
    Zn  Zn1  0.496840  0.837739  0.502434  0.975863
    Zn  Zn2  0.503160  0.162260  0.497566  0.975826
    C   C21  0.418793  0.536361  0.410171  -0.142773
    C   C22  0.581206  0.463638  0.589829  -0.142769
    C   C23  0.365192  0.443668  0.507535  -0.127025
    C   C24  0.634807  0.556331  0.492464  -0.127248
    H   H11  0.248057  0.393848  0.516001  0.123163
    H   H12  0.751943  0.606152  0.483998  0.123210
    H   H13  0.349833  0.567937  0.330850  0.125063
    H   H14  0.650166  0.432063  0.669150  0.125068
    N   N1   0.507125  0.353433  0.496568  0.304996
    N   N2   0.492874  0.646567  0.503432  0.305047
    C   C25  0.559825  0.439814  0.400977  0.307094
    C   C26  0.440175  0.560186  0.599023  0.307010
    F   F1   0.626747  0.372702  0.290932  -0.247086
    F   F2   0.373252  0.627297  0.709068  -0.247053
