# Generated by REPEAT Assigner based on pymatgen
data_DB0-m3_o150_o22_f0_fsc.sym.23
_audit_creation_date              2022-05-24
_audit_creation_method            REPEAT_Assigner
_cell_length_a                    9.140247
_cell_length_b                    8.537618
_cell_length_c                    15.110755
_cell_angle_alpha                 90.000000
_cell_angle_beta                  91.005807
_cell_angle_gamma                 90.000000
_cell_volume                      1179.000186
_symmetry_space_group_name_H-M    P1
_symmetry_Int_Tables_number       1
loop_
    _symmetry_equiv_pos_site_id
    _symmetry_equiv_pos_as_xyz
    1  x,y,z
loop_
    _atom_site_type_symbol
    _atom_site_label
    _atom_site_fract_x
    _atom_site_fract_y
    _atom_site_fract_z
    _atom_type_partial_charge
    H   H1   0.049614  0.002725  0.563166  0.129393
    H   H2   0.952424  0.001370  0.437074  0.132591
    C   C1   0.006333  0.141491  0.675301  -0.234787
    C   C2   0.993271  0.141003  0.324937  -0.232461
    C   C3   0.988503  0.142095  0.765709  0.342688
    C   C4   0.009806  0.141858  0.234470  0.335737
    C   C5   0.987263  0.000887  0.811431  -0.327444
    C   C6   0.011472  0.001089  0.188487  -0.321364
    C   C7   0.989452  0.860517  0.765079  0.362297
    C   C8   0.010603  0.860256  0.234585  0.358896
    C   C9   0.007280  0.862110  0.674709  -0.258764
    C   C10  0.993910  0.861609  0.325089  -0.253415
    C   C11  0.025534  0.002133  0.632176  0.001554
    C   C12  0.975627  0.001347  0.367949  -0.005197
    C   C13  0.906577  0.103053  0.955847  -0.203467
    C   C14  0.091268  0.898004  0.044088  -0.210622
    H   H3   0.830268  0.180574  0.922472  0.146414
    H   H4   0.167631  0.820550  0.077472  0.148594
    C   C15  0.915321  0.104268  0.047025  -0.189453
    C   C16  0.082541  0.896803  0.952906  -0.181104
    H   H5   0.845077  0.182222  0.083252  0.135249
    H   H6   0.152882  0.818936  0.916695  0.131769
    C   C17  0.007723  0.001976  0.091565  0.266681
    C   C18  0.990277  0.999243  0.908357  0.263248
    O   O1   0.128535  0.670902  0.588703  -0.663230
    O   O2   0.871900  0.670734  0.410969  -0.660426
    O   O3   0.876309  0.665552  0.594315  -0.557024
    O   O4   0.124162  0.664606  0.405353  -0.561120
    C   C19  0.004294  0.720189  0.620691  0.722909
    C   C20  0.996293  0.719435  0.378873  0.719795
    O   O5   0.872581  0.333670  0.410073  -0.588298
    O   O6   0.127803  0.333817  0.590216  -0.581472
    O   O7   0.124597  0.336411  0.405892  -0.610470
    O   O8   0.875849  0.337325  0.594405  -0.613863
    C   C21  0.996686  0.283301  0.378606  0.703007
    C   C22  0.003590  0.283984  0.621794  0.694846
    Zn  Zn1  0.836270  0.501355  0.500958  0.914318
    Zn  Zn2  0.164169  0.500990  0.499036  0.909992
    C   C23  0.578603  0.562521  0.418260  -0.197134
    C   C24  0.421687  0.564641  0.581177  -0.202929
    H   H7   0.599780  0.481495  0.362580  0.078270
    H   H8   0.400549  0.485264  0.637621  0.078264
    H   H9   0.623467  0.678956  0.402570  0.131448
    H   H10  0.376776  0.681536  0.595711  0.130205
    C   C25  0.414925  0.588126  0.426367  0.528449
    C   C26  0.585345  0.590147  0.572945  0.543227
    H   H11  0.402972  0.299766  0.421142  0.027760
    H   H12  0.597851  0.302148  0.580524  0.022543
    C   C27  0.581471  0.341665  0.511245  0.287667
    C   C28  0.419417  0.341172  0.490072  0.262529
    N   N1   0.642870  0.498697  0.499868  0.110598
    N   N2   0.357582  0.498352  0.500157  0.132641
    F   F1   0.644275  0.232953  0.456440  -0.235251
    F   F2   0.357148  0.233750  0.545885  -0.233121
    F   F3   0.984819  0.280502  0.809460  -0.166400
    F   F4   0.024036  0.279889  0.191187  -0.168619
    F   F5   0.974738  0.722131  0.807941  -0.173445
    F   F6   0.013607  0.721511  0.191146  -0.170977
    F   F7   0.389611  0.746141  0.439146  -0.243753
    F   F8   0.610757  0.747817  0.558996  -0.246272
    F   F9   0.349056  0.540960  0.347641  -0.229954
    F   F10  0.650928  0.544790  0.652103  -0.231748
