# Generated by REPEAT Assigner based on pymatgen
data_DB0-m3_o17_o22_f0_nbo.sym.4
_audit_creation_date              2022-05-24
_audit_creation_method            REPEAT_Assigner
_cell_length_a                    36.881322
_cell_length_b                    30.156394
_cell_length_c                    21.519444
_cell_angle_alpha                 90.000000
_cell_angle_beta                  54.683723
_cell_angle_gamma                 90.000000
_cell_volume                      19529.581487
_symmetry_space_group_name_H-M    P1
_symmetry_Int_Tables_number       1
loop_
    _symmetry_equiv_pos_site_id
    _symmetry_equiv_pos_as_xyz
    1  x,y,z
loop_
    _atom_site_type_symbol
    _atom_site_label
    _atom_site_fract_x
    _atom_site_fract_y
    _atom_site_fract_z
    _atom_type_partial_charge
    O   O1    0.934123  0.536040  0.562844  -0.739765
    O   O2    0.066563  0.537725  0.433862  -0.728467
    O   O3    0.434123  0.036040  0.562844  -0.739755
    O   O4    0.566563  0.037725  0.433862  -0.728473
    O   O5    0.933522  0.459509  0.568083  -0.722214
    O   O6    0.066115  0.461136  0.435437  -0.743164
    O   O7    0.433522  0.959509  0.568083  -0.722212
    O   O8    0.566115  0.961136  0.435437  -0.743154
    C   C1    0.913174  0.497920  0.585678  0.795221
    C   C2    0.086989  0.499339  0.414404  0.807992
    C   C3    0.413174  0.997920  0.585678  0.795220
    C   C4    0.586989  0.999339  0.414404  0.808005
    O   O9    0.001955  0.537807  0.405411  -0.694441
    O   O10   0.000569  0.535866  0.591978  -0.716569
    O   O11   0.501955  0.037807  0.405411  -0.694429
    O   O12   0.500569  0.035866  0.591978  -0.716580
    O   O13   0.998422  0.461329  0.409252  -0.695497
    O   O14   0.999384  0.459329  0.593629  -0.674385
    O   O15   0.498422  0.961329  0.409252  -0.695502
    O   O16   0.499384  0.959329  0.593629  -0.674373
    C   C5    0.999973  0.499529  0.378531  0.444336
    C   C6    0.999933  0.497682  0.621866  0.448978
    C   C7    0.499973  0.999529  0.378531  0.444320
    C   C8    0.499933  0.997682  0.621866  0.448956
    Zn  Zn1   0.000192  0.548815  0.499972  1.346861
    Zn  Zn2   0.500192  0.048815  0.499972  1.346855
    Zn  Zn3   0.999947  0.448356  0.500155  1.337525
    Zn  Zn4   0.499947  0.948356  0.500155  1.337514
    C   C9    0.961600  0.527975  0.323746  -0.106835
    C   C10   0.041360  0.520912  0.673576  -0.102491
    C   C11   0.461600  0.027975  0.323746  -0.106795
    C   C12   0.541360  0.020912  0.673576  -0.102373
    H   H1    0.963047  0.561618  0.342966  0.018633
    H   H2    0.041289  0.556229  0.659303  0.006739
    H   H3    0.463047  0.061618  0.342966  0.018622
    H   H4    0.541289  0.056229  0.659303  0.006727
    H   H5    0.929571  0.512253  0.368300  0.012556
    H   H6    0.071123  0.504398  0.624394  0.021187
    H   H7    0.429571  0.012253  0.368300  0.012545
    H   H8    0.571123  0.004398  0.624394  0.021164
    C   C13   0.964625  0.532126  0.250772  -0.099437
    C   C14   0.042931  0.518313  0.742238  -0.086299
    C   C15   0.464625  0.032126  0.250772  -0.099475
    C   C16   0.542931  0.018313  0.742238  -0.086414
    H   H9    0.931645  0.524232  0.263360  0.013584
    H   H10   0.070859  0.496393  0.728270  0.002768
    H   H11   0.431645  0.024232  0.263360  0.013592
    H   H12   0.570860  0.996393  0.728269  0.002801
    H   H13   0.973593  0.566648  0.229685  -0.019794
    H   H14   0.048521  0.552011  0.755825  -0.007861
    H   H15   0.473593  0.066648  0.229685  -0.019794
    H   H16   0.548521  0.052011  0.755825  -0.007854
    H   H17   0.045377  0.554370  0.253760  -0.011908
    H   H18   0.958947  0.557429  0.734430  0.000373
    H   H19   0.545377  0.054370  0.253760  -0.011918
    H   H20   0.458947  0.057429  0.734430  0.000372
    H   H21   0.054739  0.547063  0.141533  0.027130
    H   H22   0.965419  0.562408  0.831216  -0.005431
    H   H23   0.554739  0.047063  0.141533  0.027137
    H   H24   0.465419  0.062408  0.831216  -0.005431
    C   C17   0.043119  0.518844  0.243076  -0.013981
    C   C18   0.959397  0.523578  0.754059  -0.001429
    C   C19   0.543119  0.018844  0.243076  -0.013944
    C   C20   0.459397  0.023578  0.754059  -0.001437
    C   C21   0.994360  0.452746  0.289878  -0.168022
    C   C22   0.997910  0.451121  0.718546  -0.248228
    C   C23   0.494360  0.952746  0.289878  -0.168028
    C   C24   0.497910  0.951121  0.718546  -0.248191
    C   C25   0.999722  0.499644  0.309435  0.519652
    C   C26   0.999674  0.498171  0.691463  0.523804
    C   C27   0.499722  0.999644  0.309435  0.519650
    C   C28   0.499674  0.998171  0.691463  0.523794
    H   H25   0.023951  0.432632  0.272841  0.014245
    H   H26   0.968518  0.433401  0.728927  0.046966
    H   H27   0.523951  0.932632  0.272841  0.014246
    H   H28   0.468518  0.933401  0.728927  0.046958
    H   H29   0.964141  0.437098  0.339580  0.032478
    H   H30   0.028592  0.433000  0.675052  0.036613
    H   H31   0.464141  0.937098  0.339580  0.032484
    H   H32   0.528592  0.933000  0.675052  0.036612
    C   C29   0.999882  0.500541  0.191401  0.534559
    C   C30   0.999336  0.499735  0.809671  0.505275
    C   C31   0.499882  0.000541  0.191401  0.534569
    C   C32   0.499336  0.999735  0.809671  0.505276
    C   C33   0.045100  0.514568  0.171133  -0.206161
    C   C34   0.960932  0.527193  0.822589  -0.189524
    C   C35   0.545100  0.014568  0.171133  -0.206198
    C   C36   0.460932  0.027193  0.822589  -0.189504
    C   C37   0.989679  0.454164  0.224431  -0.058596
    C   C38   0.994269  0.452390  0.792354  0.001908
    C   C39   0.489679  0.954164  0.224431  -0.058608
    C   C40   0.494269  0.952390  0.792354  0.001782
    H   H33   0.955239  0.445025  0.245445  -0.005923
    H   H34   0.020663  0.431383  0.786847  -0.004408
    H   H35   0.455239  0.945025  0.245445  -0.005920
    H   H36   0.520663  0.931383  0.786847  -0.004380
    H   H37   0.013085  0.430158  0.179968  0.012309
    H   H38   0.961372  0.439353  0.839272  -0.006221
    H   H39   0.513085  0.930158  0.179968  0.012314
    H   H40   0.461372  0.939353  0.839272  -0.006166
    H   H41   0.071444  0.500703  0.236000  -0.010746
    H   H42   0.928727  0.505874  0.770282  -0.028628
    H   H43   0.571444  0.000703  0.236000  -0.010751
    H   H44   0.428727  0.005874  0.770282  -0.028626
    H   H45   0.070445  0.489323  0.133784  0.032754
    H   H46   0.928782  0.515155  0.873078  0.043685
    H   H47   0.570445  0.989323  0.133784  0.032766
    H   H48   0.428782  0.015155  0.873078  0.043679
    C   C41   0.658551  0.476297  0.882756  -0.393142
    C   C42   0.341517  0.474864  0.119269  -0.390150
    C   C43   0.158551  0.976297  0.882756  -0.393153
    C   C44   0.841517  0.974864  0.119269  -0.390044
    C   C45   0.635430  0.500780  0.862301  0.178626
    C   C46   0.364716  0.500865  0.137796  0.168695
    C   C47   0.135430  0.000780  0.862301  0.178695
    C   C48   0.864716  0.000865  0.137796  0.168522
    C   C49   0.658232  0.524581  0.795259  -0.351679
    C   C50   0.342001  0.526280  0.203037  -0.345364
    C   C51   0.158232  0.024581  0.795259  -0.351704
    C   C52   0.842001  0.026280  0.203037  -0.345151
    C   C53   0.704112  0.524922  0.749975  0.295509
    C   C54   0.296131  0.526699  0.248367  0.287715
    C   C55   0.204112  0.024922  0.749975  0.295516
    C   C56   0.796131  0.026699  0.248367  0.287332
    C   C57   0.727193  0.499713  0.769580  -0.143363
    C   C58   0.272961  0.500029  0.230738  -0.133276
    C   C59   0.227193  0.999713  0.769580  -0.143366
    C   C60   0.772961  0.000029  0.230738  -0.133038
    C   C61   0.704316  0.474865  0.835531  0.295801
    C   C62   0.295747  0.473587  0.166677  0.290152
    C   C63   0.204316  0.974865  0.835531  0.295779
    C   C64   0.795747  0.973587  0.166677  0.290080
    C   C65   0.726826  0.550653  0.685234  -0.436531
    C   C66   0.273523  0.553987  0.311146  -0.432283
    C   C67   0.226826  0.050653  0.685234  -0.436516
    C   C68   0.773523  0.053987  0.311146  -0.431961
    C   C69   0.772717  0.551837  0.640059  0.279725
    C   C70   0.227642  0.555297  0.356257  0.264537
    C   C71   0.272717  0.051837  0.640059  0.279708
    C   C72   0.727642  0.055297  0.356257  0.264425
    C   C73   0.796160  0.525914  0.659165  -0.059501
    C   C74   0.204109  0.527949  0.339146  -0.049911
    C   C75   0.296160  0.025914  0.659165  -0.059501
    C   C76   0.704109  0.027949  0.339146  -0.049887
    C   C77   0.773065  0.499383  0.723464  0.072057
    C   C78   0.227091  0.499857  0.276911  0.066683
    C   C79   0.273065  0.999383  0.723464  0.072061
    C   C80   0.727091  0.999857  0.276911  0.066565
    C   C81   0.795787  0.472449  0.742018  0.212949
    C   C82   0.204257  0.471547  0.260444  0.207332
    C   C83   0.295787  0.972449  0.742018  0.212949
    C   C84   0.704257  0.971547  0.260444  0.207389
    C   C85   0.772822  0.446945  0.807160  -0.249984
    C   C86   0.227132  0.444456  0.197267  -0.244636
    C   C87   0.272822  0.946945  0.807160  -0.249989
    C   C88   0.727132  0.944456  0.197267  -0.244677
    C   C89   0.727163  0.448591  0.854401  -0.222178
    C   C90   0.272799  0.445892  0.149873  -0.220919
    C   C91   0.227163  0.948591  0.854401  -0.222159
    C   C92   0.772799  0.945892  0.149873  -0.220917
    C   C93   0.842285  0.526044  0.615247  -0.177983
    C   C94   0.157998  0.528227  0.382984  -0.180384
    C   C95   0.342285  0.026044  0.615247  -0.177974
    C   C96   0.657998  0.028227  0.382984  -0.180353
    C   C97   0.864709  0.498299  0.633133  0.025122
    C   C98   0.135449  0.499198  0.367201  0.024974
    C   C99   0.364709  0.998299  0.633133  0.025113
    C   C100  0.635449  0.999198  0.367201  0.024961
    C   C101  0.841504  0.471018  0.695733  -0.303523
    C   C102  0.158524  0.470368  0.306788  -0.298323
    C   C103  0.341504  0.971018  0.695733  -0.303520
    C   C104  0.658524  0.970368  0.306788  -0.298326
    H   H49   0.640752  0.457110  0.934739  0.176144
    H   H50   0.359255  0.454424  0.068730  0.177937
    H   H51   0.140752  0.957110  0.934739  0.176153
    H   H52   0.859255  0.954424  0.068730  0.177900
    H   H53   0.640154  0.544246  0.779646  0.160354
    H   H54   0.360144  0.547113  0.217101  0.160750
    H   H55   0.140154  0.044246  0.779646  0.160348
    H   H56   0.860144  0.047113  0.217101  0.160706
    H   H57   0.708351  0.570399  0.670551  0.184331
    H   H58   0.292074  0.574857  0.324277  0.183799
    H   H59   0.208351  0.070399  0.670551  0.184331
    H   H60   0.792074  0.074857  0.324277  0.183728
    H   H61   0.861776  0.546508  0.565163  0.126490
    H   H62   0.138598  0.549909  0.431410  0.124197
    H   H63   0.361776  0.046508  0.565163  0.126488
    H   H64   0.638598  0.049909  0.431410  0.124187
    H   H65   0.859241  0.449742  0.710077  0.168554
    H   H66   0.140688  0.448080  0.294044  0.165061
    H   H67   0.359241  0.949742  0.710077  0.168554
    H   H68   0.640688  0.948080  0.294043  0.165056
    H   H69   0.790524  0.425982  0.821974  0.148047
    H   H70   0.209352  0.422408  0.184066  0.146106
    H   H71   0.290524  0.925982  0.821974  0.148046
    H   H72   0.709352  0.922408  0.184066  0.146115
    H   H73   0.709424  0.428896  0.905818  0.131279
    H   H74   0.290464  0.424946  0.099956  0.129708
    H   H75   0.209424  0.928896  0.905818  0.131273
    H   H76   0.790464  0.924946  0.099956  0.129718
    O   O17   0.962634  0.566630  0.035108  -0.723896
    O   O18   0.039382  0.566992  0.962783  -0.703238
    O   O19   0.462634  0.066630  0.035108  -0.723866
    O   O20   0.539382  0.066992  0.962783  -0.703222
    C   C105  0.000961  0.587447  0.998940  0.777488
    C   C106  0.500961  0.087447  0.998940  0.777387
    O   O21   0.962224  0.499341  0.129595  -0.686234
    O   O22   0.037195  0.501510  0.871305  -0.683367
    O   O23   0.462224  0.999341  0.129595  -0.686225
    O   O24   0.537195  0.001510  0.871305  -0.683336
    O   O25   0.038828  0.502337  0.054947  -0.670840
    O   O26   0.960581  0.499532  0.945994  -0.678992
    O   O27   0.538828  0.002337  0.054947  -0.670839
    O   O28   0.460581  0.999532  0.945994  -0.679003
    C   C107  0.000304  0.500889  0.121563  0.394516
    C   C108  0.999060  0.500519  0.879384  0.400649
    C   C109  0.500304  0.000889  0.121563  0.394502
    C   C110  0.499060  0.000519  0.879384  0.400655
    Zn  Zn5   0.949434  0.500697  0.049824  1.333753
    Zn  Zn6   0.049996  0.500645  0.951096  1.325078
    Zn  Zn7   0.449434  0.000697  0.049824  1.333748
    Zn  Zn8   0.549996  0.000645  0.951096  1.325066
    O   O29   0.960116  0.434395  0.037328  -0.704734
    O   O30   0.036773  0.434782  0.966593  -0.717678
    O   O31   0.460116  0.934395  0.037328  -0.704724
    O   O32   0.536773  0.934782  0.966593  -0.717668
    C   C111  0.998526  0.413958  0.002033  0.770872
    C   C112  0.498526  0.913958  0.002033  0.770875
    O   O33   0.498469  0.435386  0.946583  -0.677656
    O   O34   0.501676  0.435609  0.050514  -0.694694
    O   O35   0.998469  0.935386  0.946583  -0.677641
    O   O36   0.001676  0.935609  0.050514  -0.694688
    C   C113  0.500090  0.414730  0.998597  0.663777
    C   C114  0.000090  0.914730  0.998597  0.663753
    O   O37   0.565049  0.501473  0.881038  -0.708086
    O   O38   0.435083  0.503369  0.118920  -0.708356
    O   O39   0.065049  0.001473  0.881038  -0.708069
    O   O40   0.935083  0.003369  0.118920  -0.708378
    O   O41   0.567504  0.501844  0.985839  -0.696218
    O   O42   0.432629  0.499834  0.014224  -0.696058
    O   O43   0.067504  0.001844  0.985839  -0.696214
    O   O44   0.932629  0.999834  0.014224  -0.696051
    C   C115  0.586948  0.501595  0.912091  0.696959
    C   C116  0.413192  0.501577  0.087917  0.699812
    C   C117  0.086948  0.001595  0.912091  0.696885
    C   C118  0.913192  0.001577  0.087917  0.699889
    Zn  Zn9   0.498653  0.501695  0.931076  1.308430
    Zn  Zn10  0.501448  0.501562  0.068960  1.308882
    Zn  Zn11  0.998653  0.001695  0.931076  1.308406
    Zn  Zn12  0.001448  0.001562  0.068960  1.308891
    O   O45   0.496963  0.567591  0.951002  -0.708612
    O   O46   0.503112  0.567814  0.051956  -0.693257
    O   O47   0.996963  0.067591  0.951002  -0.708593
    O   O48   0.003112  0.067814  0.051956  -0.693278
    C   C119  0.499965  0.588336  0.001493  0.697374
    C   C120  0.999965  0.088336  0.001493  0.697481
    C   C121  0.495842  0.342831  0.948090  -0.383102
    C   C122  0.504328  0.343068  0.049700  -0.382401
    C   C123  0.995842  0.842831  0.948090  -0.383127
    C   C124  0.004328  0.843068  0.049700  -0.382429
    C   C125  0.500087  0.366106  0.998795  0.185841
    C   C126  0.000087  0.866106  0.998795  0.185882
    C   C127  0.504500  0.297315  0.049532  0.290207
    C   C128  0.495837  0.297076  0.948455  0.290605
    C   C129  0.004500  0.797315  0.049532  0.290241
    C   C130  0.995837  0.797076  0.948455  0.290619
    C   C131  0.500238  0.274041  0.999014  -0.077728
    C   C132  0.000239  0.774041  0.999014  -0.077759
    C   C133  0.509032  0.274896  0.100156  -0.318073
    C   C134  0.491382  0.274413  0.897935  -0.318244
    C   C135  0.009032  0.774896  0.100156  -0.318084
    C   C136  0.991382  0.774413  0.897935  -0.318253
    C   C137  0.009421  0.729369  0.100534  -0.059427
    C   C138  0.991465  0.728880  0.897413  -0.061616
    C   C139  0.509421  0.229369  0.100534  -0.059447
    C   C140  0.491465  0.228880  0.897413  -0.061619
    C   C141  0.005162  0.705299  0.049912  -0.065939
    C   C142  0.996175  0.705060  0.947725  -0.057991
    C   C143  0.505162  0.205299  0.049912  -0.065871
    C   C144  0.496175  0.205060  0.947725  -0.057982
    C   C145  0.000457  0.728010  0.998963  0.095503
    C   C146  0.500457  0.228010  0.998963  0.095460
    C   C147  0.005494  0.659090  0.049963  0.116892
    C   C148  0.996770  0.658861  0.947014  0.099332
    C   C149  0.505494  0.159090  0.049963  0.116803
    C   C150  0.496770  0.158861  0.947014  0.099331
    C   C151  0.000944  0.636014  0.998787  -0.187358
    C   C152  0.500944  0.136014  0.998787  -0.187293
    H   H77   0.492340  0.360131  0.907879  0.170232
    H   H78   0.507780  0.360555  0.089822  0.172014
    H   H79   0.992340  0.860131  0.907879  0.170231
    H   H80   0.007780  0.860555  0.089822  0.172018
    H   H81   0.512399  0.292889  0.140000  0.149394
    H   H82   0.487766  0.292214  0.858222  0.150626
    H   H83   0.012399  0.792889  0.140000  0.149395
    H   H84   0.987766  0.792214  0.858222  0.150632
    H   H85   0.013146  0.713919  0.141700  0.103456
    H   H86   0.987635  0.713210  0.856516  0.102856
    H   H87   0.513146  0.213919  0.141700  0.103462
    H   H88   0.487635  0.213210  0.856516  0.102858
    C   C153  0.526107  0.659858  0.016775  -0.393602
    C   C154  0.473287  0.659516  0.986286  -0.381125
    C   C155  0.026107  0.159858  0.016775  -0.393537
    C   C156  0.973287  0.159516  0.986286  -0.381030
    C   C157  0.499795  0.636764  0.001496  0.207036
    C   C158  0.999795  0.136764  0.001496  0.206877
    C   C159  0.472266  0.705252  0.988244  0.234447
    C   C160  0.526725  0.705600  0.014976  0.244975
    C   C161  0.972266  0.205252  0.988244  0.234472
    C   C162  0.026725  0.205600  0.014976  0.244980
    C   C163  0.499392  0.728298  0.001656  -0.033873
    C   C164  0.999392  0.228298  0.001656  -0.033878
    C   C165  0.444086  0.727983  0.976905  -0.220449
    C   C166  0.554696  0.728686  0.026410  -0.225531
    C   C167  0.944086  0.227983  0.976905  -0.220584
    C   C168  0.054696  0.228686  0.026410  -0.225558
    C   C169  0.942793  0.273650  0.979574  -0.252013
    C   C170  0.055568  0.274361  0.023939  -0.245070
    C   C171  0.442793  0.773650  0.979574  -0.252145
    C   C172  0.555568  0.774361  0.023939  -0.245070
    C   C173  0.970463  0.296733  0.991720  0.245755
    C   C174  0.027683  0.297093  0.011902  0.237455
    C   C175  0.470463  0.796733  0.991720  0.245820
    C   C176  0.527683  0.797093  0.011902  0.237442
    C   C177  0.999180  0.274042  0.001759  -0.022789
    C   C178  0.499180  0.774042  0.001759  -0.022811
    C   C179  0.969476  0.342467  0.993736  -0.354579
    C   C180  0.028241  0.342835  0.010095  -0.359784
    C   C181  0.469476  0.842467  0.993736  -0.354570
    C   C182  0.528241  0.842835  0.010095  -0.359757
    C   C183  0.998749  0.365554  0.001971  0.113398
    C   C184  0.498749  0.865554  0.001971  0.113359
    H   H89   0.547338  0.642107  0.027710  0.172392
    H   H90   0.452200  0.641494  0.975318  0.168832
    H   H91   0.047338  0.142107  0.027710  0.172370
    H   H92   0.952200  0.141494  0.975318  0.168776
    H   H93   0.422595  0.710144  0.966663  0.142149
    H   H94   0.576347  0.711123  0.036581  0.143155
    H   H95   0.922595  0.210144  0.966663  0.142212
    H   H96   0.076347  0.211123  0.036581  0.143164
    H   H97   0.920325  0.291213  0.971344  0.152267
    H   H98   0.077872  0.292203  0.032247  0.149258
    H   H99   0.420325  0.791212  0.971344  0.152316
    H   H100  0.577872  0.792203  0.032247  0.149254
    H   H101  0.946778  0.360247  0.986318  0.163736
    H   H102  0.050779  0.360903  0.017570  0.171456
    H   H103  0.446778  0.860247  0.986318  0.163724
    H   H104  0.550779  0.860903  0.017570  0.171456
    C   C185  0.795832  0.580836  0.571063  -0.365408
    H   H105  0.817299  0.560410  0.519183  0.103732
    H   H106  0.771268  0.598340  0.565910  0.096209
    H   H107  0.816058  0.606080  0.575631  0.104167
    C   C186  0.204640  0.586011  0.423021  -0.335040
    H   H108  0.183092  0.566797  0.476378  0.095681
    H   H109  0.229271  0.604457  0.426842  0.088727
    H   H110  0.184517  0.610419  0.416590  0.097771
    C   C187  0.295832  0.080836  0.571063  -0.365400
    H   H111  0.317299  0.060410  0.519183  0.103732
    H   H112  0.271268  0.098340  0.565910  0.096206
    H   H113  0.316058  0.106080  0.575631  0.104166
    C   C188  0.704640  0.086011  0.423021  -0.335054
    H   H114  0.683092  0.066797  0.476378  0.095688
    H   H115  0.729271  0.104457  0.426842  0.088719
    H   H116  0.684517  0.110419  0.416590  0.097791
    C   C189  0.010570  0.634672  0.105539  -0.295701
    H   H117  0.010549  0.598236  0.101437  0.171357
    H   H118  0.042639  0.643862  0.095672  0.084534
    H   H119  0.982660  0.643452  0.164531  0.084201
    C   C190  0.993821  0.634172  0.889291  -0.271128
    H   H120  0.996650  0.597858  0.890727  0.173487
    H   H121  0.961419  0.641241  0.898902  0.082475
    H   H122  0.021390  0.644683  0.831096  0.075551
    C   C191  0.510570  0.134672  0.105539  -0.295637
    H   H123  0.510549  0.098236  0.101437  0.171386
    H   H124  0.542639  0.143862  0.095672  0.084513
    H   H125  0.482660  0.143452  0.164531  0.084182
    C   C192  0.493821  0.134172  0.889291  -0.271147
    H   H126  0.496650  0.097858  0.890727  0.173515
    H   H127  0.461419  0.141241  0.898902  0.082476
    H   H128  0.521390  0.144683  0.831096  0.075553
