# Generated by REPEAT Assigner based on pymatgen
data_DB0-m3_o11_o12_f0_pcu.sym.8
_audit_creation_date              2022-05-24
_audit_creation_method            REPEAT_Assigner
_cell_length_a                    11.221892
_cell_length_b                    11.125027
_cell_length_c                    9.934592
_cell_angle_alpha                 89.997335
_cell_angle_beta                  101.958461
_cell_angle_gamma                 89.995136
_cell_volume                      1213.356332
_symmetry_space_group_name_H-M    P1
_symmetry_Int_Tables_number       1
loop_
    _symmetry_equiv_pos_site_id
    _symmetry_equiv_pos_as_xyz
    1  x,y,z
loop_
    _atom_site_type_symbol
    _atom_site_label
    _atom_site_fract_x
    _atom_site_fract_y
    _atom_site_fract_z
    _atom_type_partial_charge
    O   O1   0.494625  0.322093  0.617284  -0.708436
    O   O2   0.494734  0.320022  0.385233  -0.667972
    C   C1   0.491272  0.265063  0.501146  0.789895
    O   O3   0.322392  0.509682  0.571329  -0.701051
    O   O4   0.320763  0.506869  0.338817  -0.695016
    C   C2   0.264792  0.510266  0.442288  0.830285
    Zn  Zn1  0.503348  0.501511  0.652501  1.078863
    Zn  Zn2  0.502257  0.498255  0.345731  1.054996
    O   O5   0.513831  0.679508  0.614045  -0.640154
    O   O6   0.510451  0.677968  0.380398  -0.626051
    O   O7   0.684961  0.491274  0.659682  -0.628867
    O   O8   0.683211  0.491518  0.426587  -0.654821
    C   C3   0.514911  0.734554  0.497614  0.745680
    C   C4   0.740867  0.489411  0.555648  0.770291
    H   H1   0.883588  0.505919  0.377279  0.067537
    H   H2   0.116208  0.495410  0.617526  0.153678
    C   C5   0.131315  0.511355  0.410695  -0.086625
    C   C6   0.068423  0.502141  0.511236  -0.158998
    H   H3   0.924376  0.483674  0.690195  0.183862
    C   C7   0.874517  0.489028  0.584539  -0.393421
    C   C8   0.934404  0.499006  0.481996  0.114931
    C   C9   0.490923  0.934747  0.392389  -0.019416
    C   C10  0.527037  0.865570  0.503087  -0.322361
    H   H4   0.458878  0.893183  0.292808  0.112884
    H   H5   0.567901  0.904828  0.601387  0.178689
    C   C11  0.502649  0.066953  0.398760  -0.071755
    C   C12  0.477572  0.134072  0.501779  -0.093605
    H   H6   0.529533  0.111019  0.312447  0.111713
    C   C13  0.573483  0.570329  0.944341  0.013011
    N   N1   0.502613  0.506040  0.853702  -0.210351
    H   H7   0.428439  0.468353  0.882891  0.250520
    C   C14  0.558501  0.577397  0.088957  0.228714
    N   N2   0.504863  0.494914  0.145031  -0.275123
    H   H8   0.599297  0.652775  0.150789  0.057085
    H   H9   0.482365  0.416940  0.090468  0.255074
    Cl  Cl1  0.057932  0.519833  0.236535  -0.080827
    Cl  Cl2  0.412683  0.073226  0.633500  -0.057624
    Cl  Cl3  0.686434  0.659855  0.896267  0.094768
