# Generated by REPEAT Assigner based on pymatgen
data_DB0-m29_o81_o143_f0_pts.sym.30
_audit_creation_date              2022-05-24
_audit_creation_method            REPEAT_Assigner
_cell_length_a                    16.056656
_cell_length_b                    16.849112
_cell_length_c                    11.205690
_cell_angle_alpha                 108.180171
_cell_angle_beta                  87.937116
_cell_angle_gamma                 109.028696
_cell_volume                      2715.563131
_symmetry_space_group_name_H-M    P1
_symmetry_Int_Tables_number       1
loop_
    _symmetry_equiv_pos_site_id
    _symmetry_equiv_pos_as_xyz
    1  x,y,z
loop_
    _atom_site_type_symbol
    _atom_site_label
    _atom_site_fract_x
    _atom_site_fract_y
    _atom_site_fract_z
    _atom_type_partial_charge
    C   C1   0.874472  0.972103  0.818560  -0.247613
    C   C2   0.277826  0.984418  0.905897  -0.067259
    C   C3   0.193716  0.973772  0.862599  -0.165900
    C   C4   0.130218  0.987856  0.945896  0.130013
    C   C5   0.047501  0.979303  0.901552  -0.229180
    C   C6   0.983249  0.995684  0.984426  0.007741
    C   C7   0.790651  0.962759  0.779848  -0.035639
    C   C8   0.727929  0.971066  0.865932  -0.013166
    C   C9   0.898317  0.988994  0.944274  0.162668
    C   C10  0.835592  0.999663  0.031949  0.059734
    C   C11  0.749226  0.987561  0.992321  -0.060286
    C   C12  0.296266  0.007357  0.035048  0.103225
    C   C13  0.232564  0.021263  0.116969  -0.257778
    C   C14  0.149998  0.011811  0.072749  0.232927
    C   C15  0.087427  0.026957  0.155577  -0.275794
    C   C16  0.004811  0.018777  0.112020  0.196602
    C   C17  0.944508  0.035130  0.198096  -0.203004
    C   C18  0.860928  0.025741  0.159119  -0.106597
    H   H1   0.918965  0.964240  0.745571  0.153041
    H   H2   0.177587  0.956231  0.762930  0.141540
    H   H3   0.036282  0.958649  0.801053  0.169973
    H   H4   0.248446  0.040779  0.217128  0.157409
    H   H5   0.103309  0.045718  0.255605  0.161038
    H   H6   0.962396  0.055302  0.297781  0.158219
    H   H7   0.818002  0.042402  0.231833  0.149784
    O   O1   0.619932  0.024548  0.073887  -0.559585
    C   C19  0.678792  0.986898  0.080925  0.541995
    O   O2   0.488931  0.819096  0.086694  -0.415069
    O   O3   0.670669  0.942622  0.160827  -0.500583
    O   O4   0.509349  0.918654  0.282257  -0.501479
    C   C20  0.493870  0.836776  0.209404  0.516075
    Fe  Fe1  0.526204  0.006027  0.191826  1.475987
    O   O5   0.410074  0.958588  0.090268  -0.581532
    O   O6   0.431170  0.106161  0.152892  -0.512426
    C   C21  0.383378  0.024545  0.090832  0.630924
    O   O7   0.561377  0.126031  0.322832  -0.621831
    O   O8   0.437597  0.054388  0.401348  -0.506223
    C   C22  0.505424  0.126036  0.411359  0.688144
    O   O9   0.450721  0.870749  0.585130  -0.622875
    O   O10  0.573424  0.929967  0.494943  -0.446242
    C   C23  0.500572  0.864026  0.489505  0.754361
    O   O11  0.629351  0.026674  0.785711  -0.648402
    O   O12  0.572623  0.891493  0.813433  -0.518536
    C   C24  0.639977  0.963167  0.821678  0.757583
    O   O13  0.328494  0.971509  0.697561  -0.514410
    O   O14  0.520584  0.078344  0.620300  -0.524647
    C   C25  0.500211  0.147882  0.687064  0.588402
    O   O15  0.426304  0.985389  0.849341  -0.526679
    C   C26  0.346105  0.978111  0.814415  0.649022
    O   O16  0.479709  0.155376  0.803524  -0.521512
    Fe  Fe2  0.505831  0.991343  0.710865  1.438171
    C   C27  0.508821  0.209434  0.506752  0.027311
    C   C28  0.510529  0.278456  0.464108  -0.233096
    H   H8   0.514368  0.269773  0.364630  0.192927
    C   C29  0.503830  0.356296  0.545536  0.147985
    C   C30  0.499365  0.366335  0.672332  -0.160928
    H   H9   0.493180  0.426282  0.737985  0.126654
    C   C31  0.498779  0.298289  0.716267  -0.099655
    H   H10  0.494423  0.308152  0.815976  0.132086
    C   C32  0.502456  0.218771  0.634568  -0.043804
    C   C33  0.542553  0.513889  0.559846  -0.111787
    C   C34  0.536481  0.578959  0.513912  -0.135615
    C   C35  0.484396  0.557185  0.404928  0.079119
    C   C36  0.439115  0.468967  0.342228  -0.142339
    C   C37  0.445917  0.403869  0.387604  -0.098972
    C   C38  0.497689  0.425839  0.496720  0.026297
    C   C39  0.477246  0.614123  0.227458  -0.119453
    H   H11  0.477074  0.551822  0.161008  0.123039
    C   C40  0.479946  0.682286  0.182470  -0.141069
    H   H12  0.479680  0.669920  0.081900  0.138144
    C   C41  0.486880  0.765527  0.263959  0.013642
    C   C42  0.486856  0.777957  0.393394  -0.056297
    C   C43  0.481066  0.708267  0.436813  -0.105650
    H   H13  0.481517  0.719500  0.537121  0.137069
    C   C44  0.479298  0.627013  0.355344  0.049549
    H   H14  0.584838  0.532624  0.643869  0.104161
    H   H15  0.575168  0.646901  0.562969  0.119936
    H   H16  0.396416  0.449840  0.258532  0.112778
    H   H17  0.408256  0.335612  0.338276  0.095160
    C   C45  0.768048  0.935849  0.644095  0.715039
    O   O17  0.821769  0.966367  0.576597  -0.520270
    O   O18  0.690802  0.866877  0.589535  -0.625922
    H   H18  0.690329  0.850444  0.494587  0.413629
