data_DB0-m3_o11_o29_f0_pcu.sym.105_repeat
_audit_creation_date              2024-02-20
_audit_creation_method            'Materials Studio'
_symmetry_space_group_name_H-M    'P1'
_symmetry_Int_Tables_number       1
_symmetry_cell_setting            triclinic
loop_
_symmetry_equiv_pos_as_xyz
  x,y,z
_cell_length_a                    27.6035
_cell_length_b                    11.1246
_cell_length_c                    9.9355
_cell_angle_alpha                 89.9974
_cell_angle_beta                  89.9930
_cell_angle_gamma                 89.9936
loop_
_atom_site_label
_atom_site_type_symbol
_atom_site_fract_x
_atom_site_fract_y
_atom_site_fract_z
_atom_site_U_iso_or_equiv
_atom_site_adp_type
_atom_site_occupancy
O1     O     0.50888   0.31439   0.60894   0.00000  Uiso   1.00
O2     O     0.50402   0.31675   0.37735   0.00000  Uiso   1.00
C1     C     0.50786   0.25965   0.49254   0.00000  Uiso   1.00
O3     O     0.43199   0.47968   0.62699   0.00000  Uiso   1.00
O4     O     0.42776   0.48622   0.39550   0.00000  Uiso   1.00
C2     C     0.40720   0.47874   0.51414   0.00000  Uiso   1.00
Zn1    Zn    0.50471   0.49202   0.65148   0.00000  Uiso   1.00
Zn2    Zn    0.49878   0.49634   0.34569   0.00000  Uiso   1.00
O5     O     0.49872   0.67137   0.62016   0.00000  Uiso   1.00
O6     O     0.49570   0.67443   0.38761   0.00000  Uiso   1.00
O7     O     0.57570   0.50512   0.60204   0.00000  Uiso   1.00
O8     O     0.57156   0.50736   0.36983   0.00000  Uiso   1.00
C3     C     0.49568   0.72876   0.50494   0.00000  Uiso   1.00
C4     C     0.59623   0.50954   0.48296   0.00000  Uiso   1.00
C5     C     0.17656   0.38231   0.50158   0.00000  Uiso   1.00
O9     O     0.20029   0.27762   0.48711   0.00000  Uiso   1.00
N1     N     0.20187   0.48468   0.51855   0.00000  Uiso   1.00
C6     C     0.17877   0.59076   0.53060   0.00000  Uiso   1.00
C7     C     0.27903   0.53986   0.41911   0.00000  Uiso   1.00
C8     C     0.32889   0.53685   0.41830   0.00000  Uiso   1.00
C9     C     0.32835   0.41794   0.61866   0.00000  Uiso   1.00
C10    C     0.27831   0.41991   0.61793   0.00000  Uiso   1.00
C11    C     0.25353   0.48165   0.51896   0.00000  Uiso   1.00
C12    C     0.10213   0.49265   0.50673   0.00000  Uiso   1.00
C13    C     0.12647   0.38517   0.49474   0.00000  Uiso   1.00
C14    C     0.10065   0.28093   0.47607   0.00000  Uiso   1.00
C15    C     0.12872   0.59591   0.52566   0.00000  Uiso   1.00
C16    C     0.35401   0.47742   0.51860   0.00000  Uiso   1.00
H1     H     0.25856   0.37315   0.69595   0.00000  Uiso   1.00
H2     H     0.11861   0.19485   0.46918   0.00000  Uiso   1.00
C17    C     0.64929   0.51532   0.47713   0.00000  Uiso   1.00
C18    C     0.97550   0.39857   0.45719   0.00000  Uiso   1.00
C19    C     0.97718   0.60814   0.51861   0.00000  Uiso   1.00
C20    C     0.95140   0.50544   0.48427   0.00000  Uiso   1.00
C21    C     0.94844   0.30032   0.41336   0.00000  Uiso   1.00
C22    C     0.89888   0.30639   0.40402   0.00000  Uiso   1.00
C23    C     0.87491   0.41027   0.43805   0.00000  Uiso   1.00
C24    C     0.90107   0.50952   0.47746   0.00000  Uiso   1.00
C25    C     0.87630   0.61269   0.51077   0.00000  Uiso   1.00
C26    C     0.82620   0.61476   0.50642   0.00000  Uiso   1.00
N2     N     0.80130   0.51654   0.46789   0.00000  Uiso   1.00
C27    C     0.82483   0.41517   0.43297   0.00000  Uiso   1.00
C28    C     0.72550   0.53377   0.59027   0.00000  Uiso   1.00
C29    C     0.67563   0.53165   0.59412   0.00000  Uiso   1.00
C30    C     0.67349   0.50160   0.35614   0.00000  Uiso   1.00
C31    C     0.72349   0.50225   0.35286   0.00000  Uiso   1.00
C32    C     0.74964   0.51824   0.46998   0.00000  Uiso   1.00
O10    O     0.79931   0.31733   0.39741   0.00000  Uiso   1.00
C33    C     0.02585   0.39257   0.47330   0.00000  Uiso   1.00
C34    C     0.05181   0.49691   0.49934   0.00000  Uiso   1.00
C35    C     0.02791   0.60552   0.51776   0.00000  Uiso   1.00
C36    C     0.05108   0.28425   0.46543   0.00000  Uiso   1.00
H3     H     0.65775   0.54277   0.69005   0.00000  Uiso   1.00
H4     H     0.74567   0.54522   0.68267   0.00000  Uiso   1.00
H5     H     0.87945   0.22781   0.36986   0.00000  Uiso   1.00
H6     H     0.96429   0.21698   0.38089   0.00000  Uiso   1.00
H7     H     0.03373   0.19827   0.45519   0.00000  Uiso   1.00
O11    O     0.20463   0.69169   0.54954   0.00000  Uiso   1.00
C37    C     0.10523   0.70426   0.53756   0.00000  Uiso   1.00
H8     H     0.34806   0.58387   0.33940   0.00000  Uiso   1.00
H9     H     0.25999   0.58721   0.34019   0.00000  Uiso   1.00
H10    H     0.12512   0.78719   0.54968   0.00000  Uiso   1.00
C38    C     0.95134   0.71093   0.55445   0.00000  Uiso   1.00
C39    C     0.90165   0.71282   0.55058   0.00000  Uiso   1.00
O12    O     0.80208   0.71556   0.53912   0.00000  Uiso   1.00
C40    C     0.05558   0.70932   0.53378   0.00000  Uiso   1.00
H11    H     0.96807   0.79173   0.59115   0.00000  Uiso   1.00
H12    H     0.65376   0.48822   0.26341   0.00000  Uiso   1.00
H13    H     0.88321   0.79438   0.57994   0.00000  Uiso   1.00
H14    H     0.74211   0.49055   0.25802   0.00000  Uiso   1.00
H15    H     0.04036   0.79809   0.53928   0.00000  Uiso   1.00
C41    C     0.49901   0.92675   0.39892   0.00000  Uiso   1.00
C42    C     0.49097   0.85995   0.50946   0.00000  Uiso   1.00
H16    H     0.50701   0.88215   0.30457   0.00000  Uiso   1.00
C43    C     0.49558   0.05937   0.39529   0.00000  Uiso   1.00
C44    C     0.51237   0.12856   0.49468   0.00000  Uiso   1.00
H17    H     0.48145   0.10119   0.30492   0.00000  Uiso   1.00
H18    H     0.52950   0.08913   0.58207   0.00000  Uiso   1.00
C45    C     0.51462   0.58226   0.92617   0.00000  Uiso   1.00
N3     N     0.50985   0.48830   0.85229   0.00000  Uiso   1.00
H19    H     0.51813   0.66987   0.87962   0.00000  Uiso   1.00
H20    H     0.51287   0.40741   0.90174   0.00000  Uiso   1.00
C46    C     0.52133   0.57086   0.07307   0.00000  Uiso   1.00
N4     N     0.49438   0.50166   0.14484   0.00000  Uiso   1.00
H21    H     0.54943   0.62342   0.12142   0.00000  Uiso   1.00
C47    C     0.35259   0.34803   0.71981   0.00000  Uiso   1.00
N5     N     0.37204   0.29134   0.80113   0.00000  Uiso   1.00
C48    C     0.47399   0.91194   0.63356   0.00000  Uiso   1.00
N6     N     0.46026   0.95338   0.73334   0.00000  Uiso   1.00
C49    C     0.45026   0.47065   0.08788   0.00000  Uiso   1.00
N7     N     0.41339   0.44489   0.04062   0.00000  Uiso   1.00
