# Generated by REPEAT Assigner based on pymatgen
data_DB0-m3_o96_o21_f0_fsc.sym.28
_audit_creation_date              2022-05-24
_audit_creation_method            REPEAT_Assigner
_cell_length_a                    11.739657
_cell_length_b                    13.221960
_cell_length_c                    16.133631
_cell_angle_alpha                 90.001005
_cell_angle_beta                  85.555226
_cell_angle_gamma                 94.354515
_cell_volume                      2489.500662
_symmetry_space_group_name_H-M    P1
_symmetry_Int_Tables_number       1
loop_
    _symmetry_equiv_pos_site_id
    _symmetry_equiv_pos_as_xyz
    1  x,y,z
loop_
    _atom_site_type_symbol
    _atom_site_label
    _atom_site_fract_x
    _atom_site_fract_y
    _atom_site_fract_z
    _atom_type_partial_charge
    C   C1   0.944077  0.816250  0.217506  -0.029030
    C   C2   0.056447  0.181439  0.781914  0.116609
    C   C3   0.892076  0.753828  0.162602  0.032228
    C   C4   0.108736  0.243712  0.836779  -0.007859
    C   C5   0.895898  0.805433  0.088311  0.363022
    C   C6   0.104666  0.192143  0.911096  0.338975
    N   N1   0.945212  0.900271  0.097137  -0.525109
    N   N2   0.054970  0.097430  0.902310  -0.485720
    C   C7   0.973071  0.907429  0.177090  0.386848
    C   C8   0.027092  0.090335  0.822358  0.268945
    C   C9   0.865173  0.763002  0.017157  -0.412153
    C   C10  0.135528  0.234531  0.982232  -0.414918
    C   C11  0.896531  0.805777  0.933608  0.165411
    C   C12  0.103964  0.191871  0.065788  0.176842
    C   C13  0.909396  0.749036  0.862078  0.015577
    C   C14  0.091331  0.248658  0.137310  0.020112
    C   C15  0.946018  0.813829  0.798306  0.103244
    C   C16  0.054429  0.183950  0.201081  0.113892
    C   C17  0.953353  0.910482  0.832484  0.140387
    C   C18  0.046715  0.087304  0.166917  0.118212
    N   N3   0.921657  0.904514  0.914882  -0.177747
    N   N4   0.078455  0.093188  0.084525  -0.170932
    C   C19  0.982754  0.006226  0.786860  -0.385565
    C   C20  0.017216  0.991608  0.212586  -0.402703
    H   H1   0.828588  0.685632  0.019337  0.167236
    H   H2   0.172393  0.311814  0.980025  0.165051
    H   H3   0.972289  0.006515  0.720792  0.183620
    H   H4   0.027672  0.991348  0.278654  0.180233
    H   H5   0.910509  0.964668  0.955512  0.268387
    H   H6   0.089477  0.033004  0.043909  0.261991
    C   C21  0.109835  0.351140  0.149268  -0.169875
    C   C22  0.891394  0.646510  0.850132  -0.170047
    C   C23  0.090945  0.387659  0.228870  -0.119241
    C   C24  0.910492  0.610026  0.770541  -0.157897
    C   C25  0.050423  0.323678  0.294816  0.033857
    C   C26  0.950708  0.674094  0.704583  0.058360
    C   C27  0.030901  0.219566  0.281263  -0.246896
    C   C28  0.969717  0.778263  0.718122  -0.245926
    C   C29  0.968540  0.782031  0.294351  -0.249782
    C   C30  0.032142  0.215734  0.705063  -0.310578
    C   C31  0.933245  0.682329  0.314586  0.112894
    C   C32  0.067960  0.315310  0.684762  0.084414
    C   C33  0.872664  0.621318  0.260345  -0.013847
    C   C34  0.128919  0.376111  0.738929  -0.102284
    C   C35  0.853288  0.655921  0.182845  -0.262100
    C   C36  0.148070  0.341469  0.816462  -0.197823
    H   H7   0.139335  0.402684  0.098883  0.127368
    H   H8   0.862135  0.594896  0.900520  0.127451
    H   H9   0.000274  0.168564  0.331860  0.138801
    H   H10  0.999992  0.829347  0.667500  0.124110
    H   H11  0.016088  0.829138  0.336462  0.129601
    H   H12  0.984299  0.168794  0.663009  0.130954
    H   H13  0.846183  0.543239  0.276400  0.089152
    H   H14  0.155778  0.454109  0.722841  0.101546
    H   H15  0.811083  0.605494  0.140250  0.133480
    H   H16  0.190543  0.391758  0.859020  0.121376
    H   H17  0.105517  0.468173  0.239477  0.111088
    H   H18  0.896285  0.529479  0.759939  0.130709
    O   O1   0.927909  0.371787  0.413029  -0.650499
    O   O2   0.073316  0.625989  0.586386  -0.707779
    O   O3   0.117723  0.431748  0.400640  -0.599584
    O   O4   0.883403  0.566031  0.598761  -0.665196
    C   C37  0.032236  0.371988  0.376632  0.688489
    C   C38  0.968934  0.625796  0.622760  0.766151
    O   O5   0.068431  0.633534  0.407633  -0.645666
    O   O6   0.932783  0.364244  0.591786  -0.636010
    O   O7   0.878579  0.573594  0.425999  -0.539331
    O   O8   0.122593  0.424154  0.573412  -0.598240
    C   C39  0.960771  0.634301  0.390532  0.584571
    C   C40  0.040419  0.363465  0.608886  0.655521
    Zn  Zn1  0.123519  0.537619  0.490370  1.104947
    Zn  Zn2  0.877672  0.460136  0.509045  1.039621
    N   N5   0.730130  0.423979  0.518324  -0.198630
    N   N6   0.271092  0.573646  0.481063  -0.195184
    C   C41  0.513702  0.447783  0.508839  -0.016179
    C   C42  0.485701  0.541013  0.488651  -0.055804
    C   C43  0.367713  0.562706  0.483586  0.180428
    C   C44  0.632937  0.431450  0.515076  0.174304
    C   C45  0.576012  0.623458  0.474166  0.596211
    O   O9   0.626620  0.632814  0.405372  -0.448092
    C   C46  0.605254  0.695342  0.540468  -0.132815
    C   C47  0.688615  0.773977  0.523626  0.013949
    C   C48  0.717724  0.841241  0.585205  -0.186690
    C   C49  0.664045  0.830583  0.664007  0.039562
    C   C50  0.581137  0.752507  0.681304  -0.106435
    C   C51  0.551683  0.684977  0.619971  -0.099218
    H   H19  0.732158  0.783849  0.462325  0.084623
    H   H20  0.782983  0.902395  0.571625  0.125907
    H   H21  0.687122  0.883288  0.712245  0.056227
    H   H22  0.539160  0.743992  0.743218  0.105436
    H   H23  0.486790  0.624308  0.635761  0.090718
    C   C52  0.427067  0.360923  0.520063  0.459542
    O   O10  0.351698  0.349769  0.472173  -0.402952
    C   C53  0.436145  0.281866  0.582996  -0.062074
    C   C54  0.388582  0.184583  0.570708  -0.053855
    C   C55  0.394895  0.109970  0.629531  -0.090616
    C   C56  0.447509  0.132194  0.701428  -0.080083
    C   C57  0.493215  0.229327  0.714782  -0.081792
    C   C58  0.487292  0.304113  0.656030  -0.084766
    H   H24  0.347340  0.165516  0.514553  0.105704
    H   H25  0.358424  0.033891  0.619211  0.095491
    H   H26  0.452189  0.073678  0.747568  0.105088
    H   H27  0.533209  0.247126  0.771683  0.102099
    H   H28  0.521067  0.380299  0.668876  0.078949
