# Generated by REPEAT Assigner based on pymatgen
data_DB0-m9_o13_o27_f0_sra.sym.11_sqe
_audit_creation_date              2022-05-24
_audit_creation_method            REPEAT_Assigner
_cell_length_a                    6.322220
_cell_length_b                    21.662026
_cell_length_c                    22.958180
_cell_angle_alpha                 113.188363
_cell_angle_beta                  89.320771
_cell_angle_gamma                 90.730077
_cell_volume                      2889.855699
_symmetry_space_group_name_H-M    P1
_symmetry_Int_Tables_number       1
loop_
    _symmetry_equiv_pos_site_id
    _symmetry_equiv_pos_as_xyz
    1  x,y,z
loop_
    _atom_site_type_symbol
    _atom_site_label
    _atom_site_fract_x
    _atom_site_fract_y
    _atom_site_fract_z
    _atom_type_partial_charge
    O  O1   0.459403  0.463745  0.412529  -0.610097
    O  O2   0.827248  0.480094  0.576697  -0.568056
    O  O3   0.040874  0.580434  0.557617  -0.423263
    C  C1   0.652779  0.445628  0.569027  0.574175
    O  O4   0.739503  0.417684  0.445646  -0.496799
    O  O5   0.960237  0.518728  0.427106  -0.514143
    C  C2   0.617514  0.421586  0.400254  0.680745
    O  O6   0.535875  0.433329  0.518792  -0.396544
    O  O7   0.645719  0.553407  0.515122  -0.584809
    V  V1   0.917906  0.493950  0.500156  1.381565
    O  O8   0.244933  0.576859  0.487824  -0.424461
    C  C3   0.127955  0.558128  0.435610  0.599670
    O  O9   0.328386  0.546090  0.594255  -0.565826
    C  C4   0.159560  0.582226  0.604635  0.628969
    V  V2   0.418526  0.510219  0.504564  1.337858
    O  O10  0.142272  0.450509  0.487448  -0.605018
    C  C5   0.049423  0.862638  0.839608  -0.026878
    C  C6   0.154060  0.640317  0.664469  -0.059964
    C  C7   0.307388  0.700791  0.765980  -0.296371
    C  C8   0.297932  0.644351  0.710535  -0.022381
    C  C9   0.018761  0.692646  0.673704  -0.246521
    C  C10  0.029495  0.749407  0.729003  0.218117
    C  C11  0.174036  0.753553  0.775071  0.253638
    C  C12  0.184744  0.810312  0.830374  -0.272671
    C  C13  0.905583  0.858605  0.793535  -0.036631
    C  C14  0.896151  0.802167  0.738090  -0.282234
    H  H1   0.295637  0.813115  0.866831  0.140280
    H  H2   0.798050  0.899559  0.801347  0.088911
    H  H3   0.420712  0.703966  0.801964  0.156082
    H  H4   0.782836  0.798990  0.702104  0.152032
    H  H5   0.405457  0.603395  0.702724  0.083957
    H  H6   0.907849  0.689844  0.637252  0.143141
    C  C15  0.216423  0.918256  0.154162  -0.106325
    H  H7   0.328494  0.959009  0.163058  0.093789
    C  C16  0.221563  0.880419  0.190236  0.106709
    H  H8   0.337235  0.891583  0.227386  0.010673
    C  C17  0.080541  0.828061  0.178739  -0.473073
    C  C18  0.932956  0.813879  0.131144  0.197762
    H  H9   0.822180  0.772752  0.122003  0.011034
    C  C19  0.927729  0.851948  0.094894  -0.246336
    H  H10  0.813304  0.840534  0.057385  0.128355
    C  C20  0.070369  0.904139  0.106403  0.089772
    N  N1   0.955899  0.736192  0.206417  -0.350594
    N  N2   0.967013  0.699972  0.241101  -0.306202
    C  C21  0.113103  0.714704  0.286911  0.906995
    N  N3   0.247982  0.766431  0.297461  -0.362106
    N  N4   0.236874  0.802649  0.262775  -0.293894
    C  C22  0.090768  0.787921  0.216970  0.857468
    C  C23  0.270647  0.688821  0.372809  0.153366
    H  H11  0.381324  0.729979  0.381989  0.026238
    C  C24  0.275698  0.650785  0.409086  -0.237129
    H  H12  0.389888  0.662251  0.446662  0.139697
    C  C25  0.133124  0.598571  0.397542  -0.065792
    C  C26  0.987302  0.584355  0.349703  0.396250
    C  C27  0.982413  0.622172  0.313603  -0.058280
    H  H13  0.866948  0.610962  0.276393  0.051083
    C  C28  0.123287  0.674577  0.325152  -0.479470
    C  C29  0.471786  0.357673  0.596285  -0.254915
    H  H14  0.357055  0.349870  0.559454  0.135790
    C  C30  0.461710  0.319470  0.632475  0.220271
    H  H15  0.338609  0.281895  0.623952  0.001834
    C  C31  0.609741  0.328926  0.679174  -0.486791
    C  C32  0.766398  0.376760  0.689841  0.130495
    H  H16  0.882471  0.384246  0.726258  0.003653
    C  C33  0.776480  0.414690  0.653844  -0.121985
    H  H17  0.900912  0.451800  0.662077  0.098106
    C  C34  0.630184  0.405269  0.606960  0.069666
    N  N5   0.751724  0.298640  0.762115  -0.286379
    N  N6   0.749023  0.262140  0.796705  -0.357325
    C  C35  0.598796  0.214698  0.787082  0.866095
    N  N7   0.451471  0.204569  0.742293  -0.290222
    N  N8   0.454171  0.241069  0.707703  -0.349775
    C  C36  0.604399  0.288509  0.717324  0.854740
    C  C37  0.436824  0.126415  0.814516  0.122740
    H  H18  0.320780  0.118939  0.778094  0.005271
    C  C38  0.426742  0.088452  0.850481  -0.112320
    H  H19  0.302346  0.051326  0.842220  0.098497
    C  C39  0.573006  0.097856  0.897370  0.081973
    C  C40  0.731370  0.145470  0.908082  -0.251065
    H  H20  0.846074  0.153255  0.944917  0.126589
    C  C41  0.741448  0.183704  0.871921  0.219020
    H  H21  0.864529  0.221290  0.880470  0.004957
    C  C42  0.593452  0.174263  0.825216  -0.492334
    C  C43  0.604231  0.139213  0.163713  -0.038354
    C  C44  0.598722  0.363740  0.340502  0.137709
    C  C45  0.419342  0.310863  0.241870  -0.227857
    C  C46  0.453793  0.366183  0.297043  -0.195520
    C  C47  0.710269  0.305906  0.328868  -0.364746
    C  C48  0.674352  0.250279  0.273820  0.297333
    C  C49  0.528625  0.252678  0.230392  0.180881
    C  C50  0.492700  0.197050  0.175345  -0.243616
    C  C51  0.749162  0.136771  0.207174  -0.025928
    C  C52  0.783632  0.192094  0.262345  -0.306433
    H  H22  0.381124  0.199338  0.140949  0.139457
    H  H23  0.838121  0.091449  0.197460  0.085264
    H  H24  0.305130  0.312875  0.208005  0.137568
    H  H25  0.897843  0.190083  0.296211  0.155553
    H  H26  0.364829  0.411505  0.306762  0.173454
    H  H27  0.821844  0.303619  0.363265  0.152896
    O  O11  0.667243  0.069690  0.985497  -0.357583
    O  O12  0.463420  0.085263  0.058573  -0.433583
    O  O13  0.242763  0.984184  0.077023  -0.531942
    C  C53  0.585431  0.081366  0.103961  0.582054
    O  O14  0.376018  0.022911  0.927500  -0.548767
    O  O15  0.162349  0.922501  0.946491  -0.357872
    C  C54  0.550406  0.057440  0.935254  0.511727
    O  O16  0.743509  0.039199  0.091686  -0.518689
    O  O17  0.557428  0.949560  0.989053  -0.580523
    V  V3   0.285181  0.008989  0.003994  1.318549
    O  O18  0.874966  0.956838  0.909799  -0.539401
    C  C55  0.043818  0.920720  0.899447  0.567942
    O  O19  0.958129  0.926027  0.016254  -0.419853
    C  C56  0.075308  0.944675  0.068425  0.516141
    V  V4   0.784586  0.992650  0.999468  1.309239
    O  O20  0.060769  0.052402  0.016678  -0.577821
    O  O21  0.845766  0.532832  0.338430  -0.360198
    C  C57  0.946439  0.476978  0.293941  0.202837
    H  H28  0.120264  0.483931  0.299300  -0.052120
    H  H29  0.900856  0.471072  0.245516  0.002191
    H  H30  0.899017  0.431444  0.301924  -0.023039
