# Generated by REPEAT Assigner based on pymatgen
data_DB0-m3_o6_o11_f0_pcu.sym.4_sqe
_audit_creation_date              2022-05-24
_audit_creation_method            REPEAT_Assigner
_cell_length_a                    16.156904
_cell_length_b                    14.996163
_cell_length_c                    11.186143
_cell_angle_alpha                 90.000000
_cell_angle_beta                  89.990925
_cell_angle_gamma                 90.000000
_cell_volume                      2710.308139
_symmetry_space_group_name_H-M    P1
_symmetry_Int_Tables_number       1
loop_
    _symmetry_equiv_pos_site_id
    _symmetry_equiv_pos_as_xyz
    1  x,y,z
loop_
    _atom_site_type_symbol
    _atom_site_label
    _atom_site_fract_x
    _atom_site_fract_y
    _atom_site_fract_z
    _atom_type_partial_charge
    O   O1   0.376747  0.574494  0.495140  -0.670031
    O   O2   0.623291  0.574072  0.504716  -0.664149
    O   O3   0.376413  0.420564  0.495431  -0.673950
    O   O4   0.623000  0.420140  0.504361  -0.658707
    C   C1   0.338127  0.497635  0.493965  0.897164
    C   C2   0.661597  0.497025  0.505824  0.866217
    O   O5   0.503441  0.574118  0.321709  -0.692609
    O   O6   0.496614  0.574186  0.678145  -0.693897
    O   O7   0.502888  0.420518  0.322056  -0.614896
    O   O8   0.496522  0.420591  0.677777  -0.612057
    C   C3   0.503497  0.497048  0.265530  0.833404
    C   C4   0.496229  0.497114  0.734326  0.834828
    Zn  Zn1  0.500055  0.598724  0.499919  1.109987
    Zn  Zn2  0.499671  0.395942  0.499923  1.000677
    C   C5   0.509579  0.427469  0.935594  0.235586
    C   C6   0.489849  0.427506  0.064292  0.237233
    C   C7   0.488985  0.497216  0.865911  -0.504725
    C   C8   0.510719  0.497150  0.133963  -0.506613
    H   H1   0.461674  0.555723  0.906885  0.172087
    H   H2   0.538240  0.555544  0.092996  0.173575
    C   C9   0.956301  0.578955  0.502263  0.156121
    C   C10  0.042323  0.579925  0.498256  0.149615
    C   C11  0.914216  0.497811  0.503781  -0.253515
    C   C12  0.085557  0.499791  0.496901  -0.258228
    C   C13  0.957738  0.417493  0.502067  0.106289
    C   C14  0.044044  0.419019  0.498982  0.104699
    C   C15  0.825065  0.497139  0.505553  0.216446
    C   C16  0.174675  0.498768  0.494641  0.249187
    C   C17  0.249307  0.498006  0.493656  -0.423965
    C   C18  0.750414  0.496912  0.506250  -0.388879
    C   C19  0.448969  0.950267  0.421286  0.073577
    C   C20  0.550941  0.950460  0.578507  0.073637
    C   C21  0.500040  0.905223  0.499883  -0.120800
    C   C22  0.551070  0.043427  0.579089  0.063973
    C   C23  0.448479  0.043233  0.420769  0.066218
    C   C24  0.499675  0.089374  0.499961  -0.126738
    C   C25  0.500180  0.809262  0.499882  0.293358
    C   C26  0.499537  0.185392  0.499966  0.257485
    N   N1   0.499477  0.262576  0.499966  -0.186348
    N   N2   0.500247  0.732091  0.499881  -0.232829
    C   C27  0.553266  0.346750  0.887783  -0.306114
    H   H3   0.576869  0.306034  0.963152  0.054644
    H   H4   0.510155  0.304878  0.834878  0.107443
    H   H5   0.607354  0.367169  0.833159  0.111240
    C   C28  0.445870  0.346978  0.112138  -0.322398
    H   H6   0.422053  0.306393  0.036792  0.057801
    H   H7   0.488849  0.304890  0.164968  0.111978
    H   H8   0.391899  0.367634  0.166849  0.120594
    C   C29  0.087146  0.668013  0.495610  -0.302964
    H   H9   0.155218  0.662242  0.490897  0.099440
    H   H10  0.067839  0.706685  0.415885  0.083714
    H   H11  0.072900  0.706404  0.577769  0.086987
    C   C30  0.910291  0.666406  0.504556  -0.290556
    H   H12  0.842281  0.660165  0.509610  0.099047
    H   H13  0.929312  0.705603  0.583954  0.079233
    H   H14  0.924033  0.704724  0.422157  0.082323
    C   C31  0.912604  0.329592  0.503272  -0.186796
    H   H15  0.931161  0.291089  0.583586  0.061918
    H   H16  0.844449  0.334661  0.505818  0.062907
    H   H17  0.928423  0.291549  0.421330  0.062078
    C   C32  0.095653  0.335411  0.497703  -0.154183
    H   H18  0.059762  0.272811  0.498773  0.040828
    H   H19  0.134230  0.334001  0.415647  0.056806
    H   H20  0.136368  0.334189  0.577574  0.057574
    C   C33  0.393013  0.092671  0.335200  -0.170955
    H   H21  0.396699  0.166098  0.340797  0.072018
    H   H22  0.409622  0.074432  0.242128  0.078438
    H   H23  0.327619  0.074465  0.353047  0.079891
    C   C34  0.606376  0.093078  0.664653  -0.164160
    H   H24  0.602476  0.166492  0.659048  0.071578
    H   H25  0.589822  0.074783  0.757724  0.076084
    H   H26  0.671827  0.075110  0.646810  0.077877
    C   C35  0.395819  0.895101  0.339232  -0.165928
    H   H27  0.356205  0.934184  0.278292  0.069413
    H   H28  0.435864  0.852391  0.282510  0.078113
    H   H29  0.354109  0.852244  0.393182  0.076868
    C   C36  0.604288  0.895501  0.660544  -0.163227
    H   H30  0.643811  0.934736  0.721433  0.069048
    H   H31  0.564389  0.852668  0.717313  0.077663
    H   H32  0.646105  0.852771  0.606584  0.075307
