# Generated by REPEAT Assigner based on pymatgen
data_DB0-m9_o5_o11_f0_sra.sym.40
_audit_creation_date              2022-05-24
_audit_creation_method            REPEAT_Assigner
_cell_length_a                    14.247684
_cell_length_b                    6.324122
_cell_length_c                    12.472487
_cell_angle_alpha                 90.000000
_cell_angle_beta                  99.797699
_cell_angle_gamma                 90.000000
_cell_volume                      1107.430929
_symmetry_space_group_name_H-M    P1
_symmetry_Int_Tables_number       1
loop_
    _symmetry_equiv_pos_site_id
    _symmetry_equiv_pos_as_xyz
    1  x,y,z
loop_
    _atom_site_type_symbol
    _atom_site_label
    _atom_site_fract_x
    _atom_site_fract_y
    _atom_site_fract_z
    _atom_type_partial_charge
    O  O1   0.442723  0.667367  0.370293  -0.615485
    O  O2   0.942722  0.331438  0.870296  -0.615265
    O  O3   0.554225  0.866771  0.374685  0.005933
    O  O4   0.054224  0.132035  0.874688  0.006315
    O  O5   0.636549  0.085827  0.557333  -0.504016
    O  O6   0.136548  0.912980  0.057336  -0.504512
    C  C1   0.631678  0.748932  0.403648  0.416118
    C  C2   0.131678  0.249871  0.903651  0.417634
    O  O7   0.372542  0.956809  0.426150  -0.643665
    O  O8   0.872541  0.041994  0.926152  -0.641924
    O  O9   0.455248  0.169165  0.608354  -0.390515
    O  O10  0.955247  0.829639  0.108357  -0.388833
    C  C3   0.366627  0.780552  0.371939  0.871790
    C  C4   0.866626  0.218249  0.871940  0.870005
    O  O11  0.631532  0.580536  0.466315  -0.559288
    O  O12  0.131531  0.418267  0.966318  -0.561285
    O  O13  0.512386  0.772786  0.580018  -0.585611
    O  O14  0.012384  0.226018  0.080020  -0.587109
    V  V1   0.504415  0.045842  0.483219  1.246850
    V  V2   0.004414  0.952963  0.983222  1.243624
    O  O15  0.378804  0.462773  0.535059  -0.642400
    O  O16  0.878803  0.536034  0.035061  -0.642930
    C  C5   0.379154  0.288234  0.590101  0.752251
    C  C6   0.879154  0.710573  0.090103  0.749013
    O  O17  0.568041  0.368565  0.632172  -0.484270
    O  O18  0.068040  0.630240  0.132174  -0.486747
    C  C7   0.643562  0.252742  0.621599  0.726048
    C  C8   0.143562  0.746062  0.121600  0.729510
    V  V3   0.506222  0.546084  0.509535  1.339210
    V  V4   0.006220  0.452720  0.009538  1.348216
    O  O19  0.501653  0.270604  0.413095  -0.416521
    O  O20  0.001653  0.728201  0.913097  -0.417775
    C  C9   0.721910  0.250853  0.710341  -0.183766
    C  C10  0.221910  0.747948  0.210341  -0.186145
    C  C11  0.787894  0.240271  0.784497  -0.149950
    C  C12  0.287895  0.758529  0.284497  -0.148851
    C  C13  0.291745  0.085407  0.706382  -0.105406
    C  C14  0.791748  0.913405  0.206386  -0.107120
    C  C15  0.308008  0.268955  0.661028  -0.312037
    C  C16  0.808004  0.729859  0.161025  -0.309001
    H  H1   0.327939  0.943190  0.687070  0.122420
    H  H2   0.827950  0.055619  0.187083  0.122591
    H  H3   0.265498  0.405899  0.673635  0.172242
    H  H4   0.765488  0.592921  0.173625  0.171972
    C  C17  0.219853  0.076243  0.777314  0.096007
    C  C18  0.719858  0.922566  0.277319  0.095434
    C  C19  0.203757  0.247776  0.833230  -0.305956
    C  C20  0.703757  0.751027  0.333227  -0.304254
    H  H5   0.247077  0.387521  0.829529  0.171910
    H  H6   0.747075  0.611281  0.329521  0.170930
    C  C21  0.167909  0.875477  0.788862  0.014336
    C  C22  0.064808  0.904671  0.745070  -0.041183
    C  C23  0.005075  0.742898  0.743601  -0.574306
    H  H7   0.177316  0.829892  0.875902  0.008617
    H  H8   0.196771  0.749080  0.742114  0.067980
    H  H9   0.038638  0.056895  0.712999  0.056958
    H  H10  0.031450  0.589757  0.774138  0.237914
    H  H11  0.930111  0.763699  0.711162  0.206693
    C  C24  0.667916  0.123328  0.288875  0.014828
    C  C25  0.564818  0.094144  0.245068  -0.040189
    C  C26  0.505088  0.255923  0.243596  -0.575608
    H  H12  0.696786  0.249732  0.242139  0.067776
    H  H13  0.677315  0.168888  0.375918  0.008914
    H  H14  0.538647  0.941923  0.212992  0.056599
    H  H15  0.531464  0.409058  0.274142  0.238397
    H  H16  0.430126  0.235132  0.211150  0.206887
