# Generated by REPEAT Assigner based on pymatgen
data_DB0-m2_o6_o25_f0_nbo.sym.158
_audit_creation_date              2022-05-24
_audit_creation_method            REPEAT_Assigner
_cell_length_a                    27.672358
_cell_length_b                    27.655005
_cell_length_c                    27.768471
_cell_angle_alpha                 109.280734
_cell_angle_beta                  109.723096
_cell_angle_gamma                 109.224823
_cell_volume                      16395.710168
_symmetry_space_group_name_H-M    P1
_symmetry_Int_Tables_number       1
loop_
    _symmetry_equiv_pos_site_id
    _symmetry_equiv_pos_as_xyz
    1  x,y,z
loop_
    _atom_site_type_symbol
    _atom_site_label
    _atom_site_fract_x
    _atom_site_fract_y
    _atom_site_fract_z
    _atom_type_partial_charge
    O   O1    0.933092  0.975376  0.528901  -0.591473
    O   O2    0.935185  0.901542  0.461099  -0.600593
    C   C1    0.914747  0.919609  0.495520  0.754802
    O   O3    0.933304  0.032805  0.468135  -0.591535
    O   O4    0.935368  0.962253  0.396802  -0.617415
    C   C2    0.915018  0.997597  0.412996  0.734576
    Cu  Cu1   0.995803  0.039792  0.534406  1.018849
    Cu  Cu2   0.994154  0.954391  0.452006  1.026026
    O   O5    0.054814  0.092641  0.525350  -0.612919
    O   O6    0.056866  0.018795  0.457510  -0.598605
    O   O7    0.054586  0.031929  0.589608  -0.607358
    O   O8    0.056685  0.961401  0.518278  -0.608964
    C   C3    0.075286  0.074561  0.490958  0.789505
    C   C4    0.075040  0.996695  0.573425  0.827690
    C   C5    0.701436  0.984862  0.252890  -0.020564
    C   C6    0.729624  0.947665  0.238818  -0.210226
    H   H1    0.714731  0.902650  0.232956  0.086674
    H   H2    0.722545  0.935018  0.148214  0.167702
    C   C7    0.870870  0.998229  0.368125  -0.024325
    C   C8    0.617921  0.997615  0.124493  -0.002543
    C   C9    0.761426  0.038314  0.300701  -0.193402
    C   C10   0.789589  0.001291  0.285732  0.791144
    C   C11   0.765621  0.055324  0.254802  -0.118973
    C   C12   0.705706  0.002230  0.207855  0.881409
    C   C13   0.794281  0.018743  0.240838  -0.049541
    C   C14   0.734044  0.965292  0.193218  -0.379262
    C   C15   0.834090  0.999340  0.330665  -0.486540
    C   C16   0.657044  0.999327  0.162377  -0.482795
    H   H3    0.774608  0.069672  0.345981  0.069721
    C   C17   0.756617  0.706039  0.505749  -0.148409
    H   H4    0.761847  0.669605  0.507822  0.125441
    C   C18   0.708071  0.709808  0.505138  0.185153
    C   C19   0.700942  0.756313  0.503000  -0.118348
    C   C20   0.742337  0.798673  0.500393  -0.118755
    C   C21   0.791427  0.795150  0.501749  0.277862
    C   C22   0.798986  0.749084  0.505135  -0.187583
    C   C23   0.664131  0.664102  0.505014  -0.079617
    C   C24   0.834280  0.839287  0.499212  -0.180964
    C   C25   0.870736  0.876106  0.497376  -0.121873
    C   C26   0.627051  0.625945  0.504940  -0.187077
    H   H5    0.242427  0.976992  0.651830  0.094917
    C   C27   0.285922  0.985045  0.736225  -0.187362
    C   C28   0.286475  0.996313  0.788892  0.233066
    C   C29   0.244425  0.007801  0.798036  -0.107040
    C   C30   0.201095  0.007181  0.754108  -0.116467
    C   C31   0.200745  0.996001  0.701733  0.148388
    C   C32   0.243276  0.985623  0.693097  -0.074610
    C   C33   0.330981  0.996812  0.834696  -0.144751
    C   C34   0.156881  0.996472  0.656375  0.027417
    C   C35   0.119641  0.996625  0.618407  -0.273447
    C   C36   0.368263  0.996957  0.872922  -0.151144
    H   H6    0.168521  0.161115  0.403133  0.158439
    C   C37   0.251009  0.240514  0.446964  -0.045571
    C   C38   0.298318  0.287262  0.501057  0.249628
    C   C39   0.301513  0.289332  0.552370  -0.229201
    H   H7    0.338954  0.325791  0.594296  0.141602
    C   C40   0.257861  0.244912  0.550381  -0.091133
    C   C41   0.209530  0.199286  0.496341  0.279269
    C   C42   0.206243  0.197295  0.445037  -0.272472
    C   C43   0.343301  0.335171  0.504611  -0.094981
    C   C44   0.161240  0.154956  0.492965  -0.105650
    C   C45   0.121506  0.118099  0.491380  -0.171233
    C   C46   0.380725  0.374600  0.506394  -0.176248
    O   O9    0.456133  0.023706  0.057733  -0.614227
    O   O10   0.528160  0.094367  0.056489  -0.610276
    C   C47   0.494260  0.078747  0.078216  0.826905
    O   O11   0.517466  0.959915  0.058627  -0.605601
    O   O12   0.589539  0.034074  0.060933  -0.600669
    C   C48   0.572903  0.997112  0.079375  0.690843
    Cu  Cu3   0.451116  0.956167  0.999335  1.021831
    Cu  Cu4   0.534516  0.037805  0.997976  1.012333
    O   O13   0.454250  0.899594  0.937574  -0.589492
    O   O14   0.526489  0.970255  0.936568  -0.601622
    O   O15   0.395989  0.959949  0.936472  -0.594764
    O   O16   0.468270  0.034070  0.938611  -0.581506
    C   C49   0.492092  0.915205  0.919800  0.782462
    C   C50   0.412800  0.997061  0.918109  0.772976
    O   O17   0.468658  0.441654  0.409107  -0.590874
    O   O18   0.538173  0.438340  0.480849  -0.617409
    C   C51   0.503219  0.420431  0.425510  0.809551
    O   O19   0.527110  0.559570  0.467551  -0.581722
    O   O20   0.600018  0.563057  0.542657  -0.609697
    C   C52   0.582771  0.580795  0.504984  0.771696
    Cu  Cu5   0.461692  0.500546  0.464595  1.008929
    Cu  Cu6   0.546014  0.500677  0.547437  1.027707
    O   O21   0.469488  0.562831  0.531171  -0.609040
    O   O22   0.539056  0.559576  0.602939  -0.593740
    O   O23   0.407695  0.438159  0.469372  -0.599108
    O   O24   0.480608  0.441681  0.544520  -0.600125
    C   C53   0.504336  0.580643  0.586479  0.767496
    C   C54   0.424957  0.420520  0.507141  0.782173
    H   H8    0.474871  0.246892  0.157696  0.146158
    C   C55   0.487352  0.291346  0.243627  -0.270097
    H   H9    0.476413  0.323230  0.236070  0.158259
    C   C56   0.501508  0.293113  0.296958  0.327014
    C   C57   0.515251  0.252317  0.306545  -0.204259
    H   H10   0.526664  0.254254  0.348658  0.125964
    C   C58   0.515721  0.210057  0.263115  -0.064052
    C   C59   0.500840  0.208052  0.209295  0.199096
    C   C60   0.486749  0.248702  0.199793  -0.140076
    C   C61   0.502236  0.337725  0.342563  -0.052356
    C   C62   0.497492  0.162535  0.162103  -0.083996
    C   C63   0.495503  0.124284  0.123312  -0.194556
    C   C64   0.502790  0.375417  0.380579  -0.240143
    C   C65   0.551504  0.757616  0.756378  -0.166166
    C   C66   0.500509  0.705208  0.712178  0.219199
    C   C67   0.447230  0.694130  0.710139  -0.141173
    C   C68   0.444683  0.736003  0.751864  -0.113719
    C   C69   0.495568  0.788424  0.795995  0.171293
    C   C70   0.549123  0.799090  0.798799  -0.104687
    C   C71   0.502713  0.661757  0.668293  -0.145877
    C   C72   0.492977  0.832279  0.839068  -0.110432
    C   C73   0.491971  0.869804  0.875660  -0.185313
    C   C74   0.503833  0.624913  0.631134  -0.140374
    C   C75   0.735267  0.848057  0.497712  0.253491
    C   C76   0.739984  0.890400  0.545486  -0.164325
    C   C77   0.731799  0.936047  0.542398  0.048837
    Cl  Cl1   0.737333  0.989352  0.602932  -0.090389
    C   C78   0.719075  0.939632  0.491645  -0.070432
    C   C79   0.714486  0.897498  0.443919  -0.189406
    C   C80   0.722471  0.851716  0.446894  -0.098860
    H   H11   0.749966  0.887743  0.585359  0.090397
    H   H12   0.712592  0.975411  0.489225  0.110151
    H   H13   0.704343  0.900206  0.404058  0.132161
    H   H14   0.718157  0.818346  0.409159  0.093875
    C   C81   0.330419  0.973419  0.725679  0.244319
    C   C82   0.363879  0.007409  0.709896  -0.110514
    C   C83   0.405455  0.996493  0.699287  -0.001647
    Cl  Cl2   0.448393  0.040386  0.680225  -0.087654
    C   C84   0.413334  0.951167  0.703790  -0.027733
    C   C85   0.379298  0.916455  0.718490  -0.153356
    C   C86   0.337688  0.927309  0.729047  -0.212988
    H   H15   0.358260  0.043297  0.706650  0.100044
    H   H16   0.445956  0.942650  0.695485  0.092312
    H   H17   0.385082  0.880584  0.721547  0.122942
    H   H18   0.310540  0.899350  0.739647  0.182046
    C   C87   0.244960  0.018787  0.853544  0.238421
    C   C88   0.200389  0.978028  0.854181  -0.164337
    C   C89   0.200416  0.988582  0.906276  0.054068
    Cl  Cl3   0.143657  0.936849  0.906802  -0.094569
    C   C90   0.245080  0.039812  0.957913  -0.054693
    C   C91   0.289656  0.080600  0.957414  -0.187018
    C   C92   0.289537  0.070195  0.905287  -0.104693
    H   H19   0.165423  0.937700  0.813811  0.097388
    H   H20   0.245108  0.048037  0.998778  0.094848
    H   H21   0.324619  0.120833  0.997877  0.135900
    H   H22   0.324263  0.102488  0.904927  0.096967
    C   C93   0.157426  0.021113  0.763820  0.279505
    C   C94   0.098757  0.977903  0.733184  -0.188263
    C   C95   0.057897  0.991154  0.742911  0.136636
    Cl  Cl4   0.983584  0.936354  0.704275  -0.140705
    C   C96   0.075536  0.047523  0.783228  -0.131873
    C   C97   0.134062  0.090721  0.813812  -0.111795
    C   C98   0.174952  0.077561  0.804092  -0.231077
    H   H23   0.084865  0.933547  0.701836  0.111341
    H   H24   0.043460  0.057846  0.790860  0.119012
    H   H25   0.147895  0.134939  0.845399  0.134540
    H   H26   0.220792  0.111583  0.827986  0.114692
    C   C99   0.246869  0.236890  0.391699  0.165649
    C   C100  0.291975  0.238297  0.380040  -0.129234
    C   C101  0.287701  0.234959  0.328014  0.094094
    Cl  Cl5   0.345635  0.238166  0.314237  -0.107246
    C   C102  0.237883  0.229074  0.286880  -0.106219
    C   C103  0.192232  0.226268  0.297704  -0.119121
    C   C104  0.196600  0.229965  0.349889  -0.186273
    H   H27   0.330761  0.241770  0.411499  0.100148
    H   H28   0.234496  0.226385  0.246042  0.107483
    H   H29   0.153040  0.221401  0.265337  0.131297
    H   H30   0.160827  0.228374  0.358233  0.127358
    C   C105  0.262658  0.247679  0.605570  0.211953
    C   C106  0.260106  0.201242  0.615409  -0.143597
    C   C107  0.264409  0.204188  0.667330  0.099098
    Cl  Cl6   0.259794  0.144661  0.678893  -0.112696
    C   C108  0.272350  0.253941  0.710116  -0.116422
    C   C109  0.276264  0.300854  0.701062  -0.103030
    C   C110  0.271644  0.297844  0.649016  -0.222388
    H   H31   0.254933  0.162433  0.582573  0.104055
    H   H32   0.275767  0.256276  0.750853  0.110626
    H   H33   0.282718  0.339977  0.734717  0.125061
    H   H34   0.274097  0.334604  0.642062  0.139071
    C   C111  0.647268  0.962810  0.257701  0.014867
    C   C112  0.648759  0.989072  0.310426  -0.112087
    C   C113  0.598830  0.966650  0.314619  0.090424
    Cl  Cl7   0.601338  0.999333  0.381865  -0.100752
    C   C114  0.547038  0.918537  0.266055  -0.108340
    C   C115  0.545386  0.892296  0.213417  -0.125997
    C   C116  0.595516  0.914090  0.209383  -0.113265
    H   H35   0.688854  0.026726  0.349026  0.083500
    H   H36   0.507847  0.901179  0.269352  0.108973
    H   H37   0.504890  0.854299  0.175393  0.130054
    H   H38   0.594133  0.892762  0.168186  0.098220
    C   C117  0.530399  0.167041  0.274172  0.216613
    C   C118  0.575868  0.160454  0.268233  -0.247198
    C   C119  0.588787  0.119422  0.278233  0.227636
    Cl  Cl8   0.645743  0.110493  0.269806  -0.160773
    C   C120  0.556908  0.085406  0.294940  -0.231305
    C   C121  0.512493  0.092751  0.302221  -0.083514
    C   C122  0.499428  0.133667  0.292129  -0.177551
    H   H39   0.601643  0.187516  0.255909  0.130573
    H   H40   0.566920  0.053178  0.302580  0.157408
    H   H41   0.487702  0.066213  0.315608  0.117141
    H   H42   0.464048  0.138662  0.297274  0.117847
    C   C123  0.602774  0.854680  0.846272  0.337997
    C   C124  0.624962  0.865834  0.903739  -0.179617
    C   C125  0.675336  0.918185  0.948565  0.205598
    Cl  Cl9   0.702806  0.932350  0.021405  -0.176050
    C   C126  0.703969  0.959375  0.936046  -0.305312
    C   C127  0.682091  0.948252  0.878693  -0.020876
    C   C128  0.631489  0.896048  0.833864  -0.280424
    H   H43   0.602844  0.833445  0.913655  0.094014
    H   H44   0.743518  0.000419  0.971193  0.211442
    H   H45   0.704508  0.980584  0.868886  0.116271
    H   H46   0.614214  0.887683  0.789013  0.117454
    C   C129  0.607929  0.768060  0.759004  0.320771
    C   C130  0.650715  0.769441  0.803995  -0.198860
    C   C131  0.704234  0.780220  0.807017  0.067523
    Cl  Cl10  0.758496  0.782274  0.864355  -0.089437
    C   C132  0.715073  0.789493  0.765004  -0.073983
    C   C133  0.672386  0.788066  0.719992  -0.168403
    C   C134  0.618889  0.777404  0.716990  -0.172105
    H   H47   0.642305  0.762061  0.836937  0.101837
    H   H48   0.757078  0.797985  0.767410  0.103894
    H   H49   0.680976  0.795581  0.687214  0.136529
    H   H50   0.585683  0.776841  0.681958  0.113329
    C   C135  0.393440  0.638676  0.662863  0.277761
    C   C136  0.350292  0.638739  0.619581  -0.162853
    C   C137  0.299286  0.586629  0.575416  0.061656
    Cl  Cl11  0.244528  0.587008  0.520848  -0.090915
    C   C138  0.291389  0.534275  0.574218  -0.085784
    C   C139  0.334473  0.534067  0.617320  -0.161527
    C   C140  0.385382  0.586212  0.661678  -0.144084
    H   H51   0.356471  0.679674  0.620225  0.085881
    H   H52   0.251398  0.493396  0.539517  0.108602
    H   H53   0.328257  0.493032  0.616437  0.131324
    H   H54   0.418893  0.586012  0.695709  0.104397
    C   C141  0.388743  0.723873  0.750927  0.310252
    C   C142  0.359126  0.751819  0.733324  -0.166226
    C   C143  0.305408  0.738722  0.730639  0.108550
    Cl  Cl12  0.267096  0.773018  0.706947  -0.129042
    C   C144  0.281437  0.698051  0.745929  -0.136093
    C   C145  0.311087  0.670293  0.763746  -0.096794
    C   C146  0.364630  0.683097  0.766127  -0.259262
    H   H55   0.377597  0.783265  0.720745  0.117653
    H   H56   0.239269  0.687766  0.743733  0.124290
    H   H57   0.292227  0.638289  0.775595  0.131838
    H   H58   0.387692  0.661059  0.779799  0.125193
    C   C147  0.843563  0.039456  0.228482  0.019595
    C   C148  0.832026  0.046756  0.179721  0.005020
    C   C149  0.876186  0.066666  0.167033  0.024481
    Cl  Cl13  0.860766  0.075560  0.104985  -0.120161
    C   C150  0.932416  0.079778  0.203253  -0.057708
    C   C151  0.944402  0.073127  0.252267  -0.149460
    C   C152  0.900216  0.053108  0.264980  -0.163044
    H   H59   0.788208  0.037225  0.151374  0.067805
    H   H60   0.967152  0.095555  0.193426  0.097735
    H   H61   0.988643  0.083865  0.280997  0.124301
    H   H62   0.911151  0.049254  0.304057  0.133539
    C   C153  0.793283  0.118442  0.269495  0.078220
    C   C154  0.848430  0.157975  0.319043  -0.085220
    C   C155  0.876284  0.216298  0.333740  0.030161
    Cl  Cl14  0.946398  0.265706  0.396372  -0.102386
    C   C156  0.849135  0.235639  0.299051  -0.053097
    C   C157  0.794235  0.196468  0.249485  -0.203602
    C   C158  0.766403  0.138021  0.234555  -0.102412
    H   H63   0.870327  0.143215  0.346410  0.075402
    H   H64   0.870977  0.281399  0.310535  0.105561
    H   H65   0.773025  0.211512  0.222006  0.144156
    H   H66   0.723996  0.108427  0.195102  0.118939
    C   C159  0.851016  0.744805  0.507430  0.354862
    C   C160  0.843812  0.694374  0.466163  -0.223758
    C   C161  0.892521  0.689675  0.468459  0.075379
    Cl  Cl15  0.883113  0.625977  0.415455  -0.095947
    C   C162  0.948593  0.735073  0.512375  -0.078721
    C   C163  0.955954  0.785038  0.554301  -0.061357
    C   C164  0.907282  0.789736  0.552048  -0.341479
    H   H67   0.799999  0.658713  0.431394  0.121757
    H   H68   0.986748  0.731336  0.514136  0.096229
    H   H69   0.999873  0.820461  0.589109  0.099539
    H   H70   0.913351  0.828591  0.585605  0.213773
    C   C165  0.648951  0.759566  0.502099  0.246296
    C   C166  0.606243  0.752461  0.452442  -0.147773
    C   C167  0.557935  0.756685  0.452224  0.041127
    Cl  Cl16  0.504191  0.748256  0.389372  -0.095037
    C   C168  0.551988  0.767654  0.501475  -0.029941
    C   C169  0.594455  0.774536  0.551036  -0.224147
    C   C170  0.642923  0.770618  0.551386  -0.117695
    H   H71   0.610619  0.743612  0.413653  0.090060
    H   H72   0.514065  0.770930  0.501255  0.093522
    H   H73   0.589887  0.783269  0.589706  0.150110
    H   H74   0.676513  0.776652  0.590477  0.106206
