# Generated by REPEAT Assigner based on pymatgen
data_DB0-m2_o21_nom
_audit_creation_date              2022-05-24
_audit_creation_method            REPEAT_Assigner
_cell_length_a                    38.898880
_cell_length_b                    38.884858
_cell_length_c                    45.273609
_cell_angle_alpha                 90.001408
_cell_angle_beta                  89.997794
_cell_angle_gamma                 119.987731
_cell_volume                      59312.610286
_symmetry_space_group_name_H-M    P1
_symmetry_Int_Tables_number       1
loop_
    _symmetry_equiv_pos_site_id
    _symmetry_equiv_pos_as_xyz
    1  x,y,z
loop_
    _atom_site_type_symbol
    _atom_site_label
    _atom_site_fract_x
    _atom_site_fract_y
    _atom_site_fract_z
    _atom_type_partial_charge
    C   C1    0.024670  0.507626  0.554609  0.860959
    C   C2    0.396402  0.771303  0.113058  0.848403
    C   C3    0.581996  0.363299  0.631624  0.003536
    C   C4    0.527069  0.419561  0.638453  -0.018913
    C   C5    0.599902  0.345366  0.629491  -0.228259
    C   C6    0.698223  0.443668  0.203751  -0.265805
    C   C7    0.670978  0.493021  0.198025  -0.114417
    C   C8    0.633416  0.485145  0.198600  0.030916
    C   C9    0.624062  0.516544  0.194875  -0.039245
    C   C10   0.680316  0.461610  0.201728  0.044131
    C   C11   0.605857  0.534172  0.192693  -0.200300
    C   C12   0.698184  0.341452  0.296277  -0.220284
    C   C13   0.331330  0.771359  0.053434  0.812353
    C   C14   0.662354  0.265848  0.310397  -0.117954
    C   C15   0.641876  0.234180  0.293124  -0.048459
    C   C16   0.623925  0.194417  0.305156  0.010767
    C   C17   0.680275  0.305610  0.298371  0.037604
    C   C18   0.605703  0.158589  0.307378  -0.215012
    C   C19   0.960518  0.571931  0.084540  -0.230899
    C   C20   0.931263  0.552698  0.138154  -0.014120
    C   C21   0.895359  0.543733  0.147950  -0.144658
    C   C22   0.884787  0.534043  0.178709  0.052717
    C   C23   0.941874  0.562459  0.107407  0.009607
    C   C24   0.386934  0.880306  0.052609  0.840811
    C   C25   0.866736  0.525359  0.201835  -0.254739
    C   C26   0.481990  0.658836  0.368506  -0.259800
    C   C27   0.489021  0.634864  0.315704  -0.122569
    C   C28   0.520548  0.635155  0.303772  0.021662
    C   C29   0.518927  0.620606  0.274078  -0.036586
    C   C30   0.490671  0.649416  0.345399  0.038920
    C   C31   0.528350  0.611349  0.251224  -0.196860
    C   C32   0.490642  0.928299  0.359356  -0.217532
    C   C33   0.442630  0.851083  0.359249  -0.081896
    C   C34   0.448346  0.822643  0.370596  -0.076322
    C   C35   0.603674  0.374942  0.886810  0.799786
    C   C36   0.417957  0.781268  0.368308  0.043885
    C   C37   0.473011  0.892464  0.361525  0.014071
    C   C38   0.400020  0.745419  0.370336  -0.212112
    C   C39   0.432287  0.515213  0.582113  -0.210843
    C   C40   0.416278  0.527644  0.528153  -0.013011
    C   C41   0.401146  0.549962  0.518999  -0.140443
    C   C42   0.394326  0.552922  0.487909  0.051124
    C   C43   0.423067  0.524634  0.559243  -0.007593
    C   C44   0.384906  0.561574  0.464791  -0.277032
    C   C45   0.301827  0.745521  0.796268  -0.203827
    C   C46   0.668716  0.439992  0.946485  0.806052
    C   C47   0.351787  0.822178  0.799700  -0.062845
    C   C48   0.344202  0.851748  0.803755  -0.095550
    C   C49   0.376166  0.892554  0.805175  0.000891
    C   C50   0.319829  0.781370  0.798299  0.009048
    C   C51   0.394462  0.928387  0.807344  -0.204684
    C   C52   0.301883  0.643375  0.703677  -0.246989
    C   C53   0.351657  0.616369  0.701259  -0.030745
    C   C54   0.344322  0.579702  0.695234  -0.047958
    C   C55   0.376131  0.570585  0.694811  -0.016145
    C   C56   0.319855  0.625496  0.701661  0.004062
    C   C57   0.613026  0.493251  0.947417  0.862705
    C   C58   0.394402  0.553021  0.692653  -0.206734
    C   C59   0.039507  0.611493  0.915438  -0.211168
    C   C60   0.074944  0.618550  0.864555  0.001663
    C   C61   0.098562  0.651475  0.849339  -0.115104
    C   C62   0.115277  0.649369  0.821288  0.018058
    C   C63   0.058173  0.620653  0.892582  -0.030710
    C   C64   0.133331  0.658681  0.798163  -0.202369
    C   C65   0.481674  0.910053  0.131549  -0.217246
    C   C66   0.513051  0.951008  0.179985  -0.087872
    C   C67   0.496315  0.962385  0.200641  -0.037434
    C   C68   0.550448  0.430656  0.885896  0.837673
    C   C69   0.518903  0.985274  0.225952  0.010334
    C   C70   0.490486  0.928161  0.154654  0.020642
    C   C71   0.528439  0.003975  0.248796  -0.225500
    C   C72   0.384592  0.910151  0.035203  -0.230835
    C   C73   0.403023  0.938511  0.981223  -0.140437
    C   C74   0.413902  0.975021  0.971646  -0.016884
    C   C75   0.422860  0.985307  0.940774  0.011385
    C   C76   0.394040  0.928243  0.012094  0.043645
    C   C77   0.432110  0.003966  0.917911  -0.237177
    C   C78   0.600043  0.341530  0.870318  -0.217871
    C   C79   0.603563  0.315566  0.613052  0.833441
    C   C80   0.558290  0.263849  0.875178  -0.061075
    C   C81   0.550844  0.236317  0.854669  -0.120790
    C   C82   0.527073  0.194477  0.861566  0.058059
    C   C83   0.582085  0.305683  0.868277  0.042415
    C   C84   0.509459  0.158641  0.859414  -0.241051
    C   C85   0.471657  0.475682  0.751240  -0.221266
    C   C86   0.503752  0.460445  0.796848  -0.083980
    C   C87   0.486950  0.443717  0.822575  -0.027085
    C   C88   0.509522  0.437707  0.845366  0.010434
    C   C89   0.481167  0.466456  0.774067  0.017718
    C   C90   0.668662  0.315488  0.553446  0.813327
    C   C91   0.518319  0.428342  0.868447  -0.236765
    C   C92   0.297941  0.741586  0.036938  -0.218562
    C   C93   0.220600  0.711579  0.038530  -0.074393
    C   C94   0.192451  0.679632  0.024565  -0.084955
    C   C95   0.150940  0.667521  0.028174  0.020565
    C   C96   0.262104  0.723673  0.034913  0.028568
    C   C97   0.115118  0.649311  0.026013  -0.212315
    C   C98   0.702116  0.443604  0.962963  -0.220615
    C   C99   0.779151  0.492671  0.964275  -0.102593
    C   C100  0.807901  0.485454  0.972511  -0.054361
    C   C101  0.613040  0.206552  0.552621  0.823114
    C   C102  0.849107  0.516576  0.971809  -0.011040
    C   C103  0.737952  0.461542  0.964991  0.059810
    C   C104  0.884927  0.534208  0.973987  -0.198659
    C   C105  0.926127  0.458308  0.517287  0.849519
    C   C106  0.550380  0.206627  0.614069  0.849528
    C   C107  0.836914  0.493210  0.219270  0.850803
    C   C108  0.836879  0.430497  0.280744  0.842680
    C   C109  0.727972  0.374873  0.279811  0.809945
    C   C110  0.728004  0.440015  0.220209  0.862082
    C   C111  0.396427  0.712012  0.386809  0.807482
    C   C112  0.449806  0.656452  0.385925  0.850057
    C   C113  0.387183  0.593713  0.447360  0.852083
    C   C114  0.331337  0.646807  0.446407  0.815752
    C   C115  0.163200  0.593735  0.719222  0.849328
    C   C116  0.975283  0.482999  0.445404  0.859857
    C   C117  0.272101  0.647006  0.720152  0.859301
    C   C118  0.272062  0.712094  0.779794  0.816678
    C   C119  0.163153  0.656364  0.780719  0.831953
    C   C120  0.560456  0.068127  0.387964  0.859219
    C   C121  0.511241  0.969556  0.350629  0.854268
    C   C122  0.535821  0.018757  0.278749  0.852070
    C   C123  0.585072  0.117327  0.316093  0.851931
    C   C124  0.439551  0.018782  0.887967  0.873238
    C   C125  0.488869  0.117389  0.850671  0.870733
    C   C126  0.464431  0.068233  0.778772  0.850988
    C   C127  0.073836  0.532279  0.482727  0.845174
    C   C128  0.415081  0.969642  0.816078  0.834033
    C   C129  0.464280  0.483079  0.721285  0.816721
    C   C130  0.415031  0.532389  0.683936  0.799588
    C   C131  0.439657  0.507801  0.612065  0.803722
    C   C132  0.488874  0.458453  0.649413  0.788270
    C   C133  0.975318  0.579349  0.054593  0.868860
    C   C134  0.926170  0.554815  0.982714  0.840127
    C   C135  0.024718  0.604094  0.945389  0.862713
    C   C136  0.073877  0.628673  0.017280  0.831253
    C   C137  0.884887  0.437642  0.526022  -0.225191
    C   C138  0.535770  0.603954  0.221279  0.809091
    C   C139  0.807247  0.401886  0.521441  -0.116458
    C   C140  0.779714  0.380646  0.541652  -0.048553
    C   C141  0.737902  0.363157  0.534907  0.012618
    C   C142  0.849065  0.419405  0.528180  0.046477
    C   C143  0.702068  0.345246  0.536954  -0.218345
    C   C144  0.960491  0.475627  0.415455  -0.223382
    C   C145  0.920767  0.444377  0.366526  -0.064604
    C   C146  0.905695  0.459483  0.347410  -0.049430
    C   C147  0.884729  0.437517  0.321304  0.006403
    C   C148  0.941791  0.466354  0.392615  0.006994
    C   C149  0.511168  0.628495  0.149391  0.795387
    C   C150  0.866669  0.428121  0.298183  -0.212970
    C   C151  0.297874  0.643092  0.462860  -0.226468
    C   C152  0.220742  0.614258  0.461966  -0.106085
    C   C153  0.192194  0.581397  0.474742  -0.084181
    C   C154  0.150898  0.570455  0.471825  0.000859
    C   C155  0.262039  0.625220  0.464906  0.058011
    C   C156  0.115078  0.552917  0.473997  -0.200652
    C   C157  0.039449  0.515008  0.584561  -0.245231
    C   C158  0.089265  0.535017  0.629035  -0.114791
    C   C159  0.084239  0.542426  0.657014  -0.040711
    C   C160  0.560515  0.579254  0.112082  0.804626
    C   C161  0.115300  0.552895  0.678673  0.009910
    C   C162  0.058173  0.524478  0.607391  0.056051
    C   C163  0.133410  0.561582  0.701772  -0.238687
    C   C164  0.490518  0.649101  0.140661  -0.212562
    C   C165  0.452929  0.687060  0.126206  -0.022069
    C   C166  0.438008  0.703891  0.143835  -0.093411
    C   C167  0.418000  0.723602  0.131617  0.012941
    C   C168  0.472909  0.667319  0.138425  -0.008646
    C   C169  0.400063  0.741505  0.129500  -0.244818
    C   C170  0.615330  0.525391  0.964863  -0.284086
    C   C171  0.585176  0.554748  0.183965  0.790616
    C   C172  0.599122  0.537089  0.019060  -0.137625
    C   C173  0.583890  0.559331  0.028186  -0.020537
    C   C174  0.577142  0.562410  0.059274  -0.001047
    C   C175  0.605901  0.534061  0.987971  0.053294
    C   C176  0.567917  0.571850  0.082134  -0.214658
    C   C177  0.615392  0.176711  0.535216  -0.202625
    C   C178  0.588647  0.143630  0.483355  -0.089077
    C   C179  0.594435  0.116630  0.469511  -0.031366
    C   C180  0.577105  0.101595  0.440770  -0.001883
    C   C181  0.605971  0.158629  0.512103  0.013748
    C   C182  0.449556  0.880248  0.114084  0.831304
    C   C183  0.567827  0.082916  0.417916  -0.221344
    C   C184  0.518240  0.176832  0.631524  -0.222311
    C   C185  0.510948  0.138668  0.681146  -0.049983
    C   C186  0.479968  0.121886  0.699496  -0.053997
    C   C187  0.481312  0.101727  0.725977  -0.002814
    C   C188  0.509562  0.158773  0.654648  -0.005351
    C   C189  0.471878  0.083033  0.748824  -0.214327
    C   C190  0.509478  0.437796  0.640695  -0.203918
    C   C191  0.543940  0.396708  0.626510  -0.017829
    C   C192  0.565103  0.386130  0.643569  -0.080833
    Cu  Cu1   0.999954  0.529056  0.500027  1.095193
    Cu  Cu2   0.583896  0.261035  0.563803  1.085321
    Cu  Cu3   0.782452  0.459679  0.269497  1.079019
    Cu  Cu4   0.782424  0.409619  0.230522  1.059669
    Cu  Cu5   0.416152  0.677299  0.436125  1.084771
    Cu  Cu6   0.366219  0.627219  0.397127  1.088168
    Cu  Cu7   0.217629  0.677332  0.730498  1.057982
    Cu  Cu8   0.217656  0.627279  0.769450  1.090686
    Cu  Cu9   0.514386  0.043437  0.333351  1.081949
    Cu  Cu10  0.581899  0.043443  0.333364  1.106498
    Cu  Cu11  0.485736  0.043510  0.833407  1.089085
    Cu  Cu12  0.000008  0.461556  0.499984  1.094935
    Cu  Cu13  0.418233  0.043522  0.833336  1.100500
    Cu  Cu14  0.485718  0.529185  0.666682  1.113626
    Cu  Cu15  0.418214  0.461683  0.666667  1.134045
    Cu  Cu16  0.000020  0.625496  0.000001  1.103655
    Cu  Cu17  0.000030  0.557967  0.999983  1.085029
    Cu  Cu18  0.581887  0.625393  0.166677  1.132894
    Cu  Cu19  0.514439  0.557836  0.166688  1.112352
    Cu  Cu20  0.366005  0.825741  0.102782  1.052006
    Cu  Cu21  0.416093  0.825841  0.063811  1.082551
    Cu  Cu22  0.634008  0.459746  0.897188  1.087522
    Cu  Cu23  0.583941  0.409659  0.936120  1.089730
    Cu  Cu24  0.633940  0.261109  0.602793  1.052316
    H   H1    0.788757  0.376445  0.563373  0.169416
    H   H2    0.450045  0.688173  0.102461  0.188114
    H   H3    0.576498  0.575296  0.012130  0.176201
    H   H4    0.606520  0.521119  0.035108  0.205642
    H   H5    0.612321  0.105819  0.479915  0.168749
    H   H6    0.570763  0.154450  0.472962  0.182407
    H   H7    0.453474  0.123345  0.694504  0.176760
    H   H8    0.537449  0.137214  0.686128  0.171600
    H   H9    0.569705  0.394742  0.666637  0.177041
    H   H10   0.539339  0.388095  0.603442  0.188168
    H   H11   0.609627  0.454877  0.201887  0.148846
    H   H12   0.798192  0.406081  0.499722  0.183428
    H   H13   0.694774  0.523286  0.194739  0.197240
    H   H14   0.638637  0.238280  0.269815  0.174931
    H   H15   0.665593  0.261750  0.333706  0.181427
    H   H16   0.873874  0.543733  0.132705  0.192699
    H   H17   0.952744  0.552699  0.153405  0.164394
    H   H18   0.547696  0.646419  0.316465  0.153952
    H   H19   0.461864  0.623602  0.303021  0.201169
    H   H20   0.476059  0.830609  0.381654  0.178097
    H   H21   0.414912  0.843104  0.348193  0.172970
    H   H22   0.393862  0.566047  0.535025  0.206427
    H   H23   0.909209  0.488544  0.351466  0.173397
    H   H24   0.423555  0.511564  0.512119  0.173666
    H   H25   0.313754  0.845133  0.806019  0.186103
    H   H26   0.382236  0.828792  0.797437  0.183621
    H   H27   0.314197  0.556479  0.690594  0.179306
    H   H28   0.381782  0.639592  0.705898  0.168168
    H   H29   0.105284  0.680128  0.858075  0.189375
    H   H30   0.068219  0.589896  0.855816  0.166302
    H   H31   0.465455  0.954410  0.198434  0.166316
    H   H32   0.543911  0.958987  0.182193  0.180303
    H   H33   0.416043  0.997236  0.987166  0.167543
    H   H34   0.917249  0.415316  0.362461  0.174413
    H   H35   0.400877  0.916284  0.965712  0.194172
    H   H36   0.562745  0.245388  0.832587  0.179398
    H   H37   0.546393  0.254789  0.897263  0.170931
    H   H38   0.456036  0.434523  0.826452  0.159910
    H   H39   0.534667  0.469641  0.792968  0.188874
    H   H40   0.200767  0.662546  0.010351  0.178994
    H   H41   0.212298  0.728673  0.052747  0.176409
    H   H42   0.800310  0.455940  0.979817  0.167698
    H   H43   0.786731  0.522181  0.956967  0.186713
    H   H44   0.200019  0.562687  0.487462  0.180207
    H   H45   0.212919  0.632970  0.449247  0.195437
    H   H46   0.056564  0.540554  0.663606  0.167199
    H   H47   0.116939  0.536884  0.622444  0.183848
    H   H48   0.440890  0.702777  0.167580  0.183947
    O   O1    0.018262  0.533768  0.541025  -0.645456
    O   O2    0.509666  0.571405  0.207685  -0.639385
    O   O3    0.549760  0.648590  0.153549  -0.643554
    O   O4    0.491141  0.589887  0.153561  -0.621946
    O   O5    0.586629  0.611804  0.125674  -0.626650
    O   O6    0.528008  0.553096  0.125686  -0.633281
    O   O7    0.605188  0.593354  0.179798  -0.651835
    O   O8    0.546581  0.534639  0.179809  -0.627636
    O   O9    0.412970  0.866493  0.123114  -0.648846
    O   O10   0.456946  0.866909  0.089544  -0.602649
    O   O11   0.373267  0.784642  0.122674  -0.602991
    O   O12   0.018310  0.475109  0.540993  -0.659364
    O   O13   0.416650  0.785066  0.088538  -0.692490
    O   O14   0.324770  0.785022  0.077978  -0.630241
    O   O15   0.367817  0.784771  0.043845  -0.612175
    O   O16   0.366179  0.866867  0.077124  -0.643100
    O   O17   0.409823  0.866621  0.043552  -0.659374
    O   O18   0.626788  0.411439  0.877232  -0.628835
    O   O19   0.583420  0.368391  0.911333  -0.646658
    O   O20   0.675263  0.460259  0.921965  -0.645144
    O   O21   0.632232  0.416874  0.956066  -0.636212
    O   O22   0.633787  0.500630  0.922899  -0.606186
    O   O23   0.944630  0.496920  0.513140  -0.650816
    O   O24   0.590165  0.456655  0.956439  -0.665705
    O   O25   0.587031  0.453531  0.876875  -0.671712
    O   O26   0.543073  0.409883  0.910411  -0.609075
    O   O27   0.626680  0.302213  0.622679  -0.603267
    O   O28   0.583333  0.301815  0.588524  -0.696010
    O   O29   0.675199  0.301822  0.577998  -0.630916
    O   O30   0.632185  0.302089  0.543841  -0.609327
    O   O31   0.633780  0.219983  0.577143  -0.645663
    O   O32   0.590163  0.220246  0.543555  -0.655751
    O   O33   0.586957  0.220365  0.623114  -0.644185
    O   O34   0.944689  0.438265  0.513109  -0.632213
    O   O35   0.543015  0.219975  0.589524  -0.611740
    O   O36   0.823540  0.500574  0.243801  -0.615247
    O   O37   0.823184  0.456621  0.210222  -0.648509
    O   O38   0.823185  0.453388  0.289791  -0.659579
    O   O39   0.823488  0.409761  0.256214  -0.641847
    O   O40   0.741364  0.411363  0.289420  -0.610678
    O   O41   0.741672  0.368337  0.255277  -0.635215
    O   O42   0.741723  0.460251  0.244740  -0.684281
    O   O43   0.741363  0.416890  0.210599  -0.605289
    O   O44   0.416642  0.718562  0.411352  -0.644480
    O   O45   0.981653  0.515517  0.459022  -0.663558
    O   O46   0.373383  0.675519  0.377199  -0.636050
    O   O47   0.457109  0.677188  0.410453  -0.609764
    O   O48   0.413247  0.633546  0.376868  -0.672808
    O   O49   0.409975  0.630305  0.456416  -0.660924
    O   O50   0.366465  0.586337  0.422822  -0.602599
    O   O51   0.367790  0.669963  0.456031  -0.637488
    O   O52   0.324874  0.626587  0.421871  -0.643741
    O   O53   0.176893  0.630325  0.710192  -0.646470
    O   O54   0.176591  0.586373  0.743745  -0.615570
    O   O55   0.258715  0.670115  0.710558  -0.609912
    O   O56   0.981688  0.456851  0.458984  -0.650215
    O   O57   0.258400  0.626758  0.744680  -0.687521
    O   O58   0.258348  0.718624  0.755266  -0.629034
    O   O59   0.258706  0.675604  0.789389  -0.614494
    O   O60   0.176535  0.677126  0.756198  -0.643645
    O   O61   0.176883  0.633499  0.789750  -0.665417
    O   O62   0.527940  0.061739  0.374356  -0.656195
    O   O63   0.586605  0.061745  0.374372  -0.654705
    O   O64   0.491166  0.988089  0.346460  -0.628735
    O   O65   0.549835  0.988106  0.346476  -0.661376
    O   O66   0.509678  0.025142  0.292345  -0.643512
    O   O67   0.055284  0.552335  0.486905  -0.633888
    O   O68   0.568338  0.025139  0.292356  -0.666051
    O   O69   0.546473  0.098788  0.320243  -0.649875
    O   O70   0.605132  0.098782  0.320258  -0.630573
    O   O71   0.472095  0.025179  0.874398  -0.656433
    O   O72   0.413434  0.025180  0.874340  -0.656753
    O   O73   0.508946  0.098852  0.846532  -0.634761
    O   O74   0.450283  0.098850  0.846476  -0.659803
    O   O75   0.490542  0.061834  0.792403  -0.642828
    O   O76   0.431887  0.061847  0.792339  -0.667087
    O   O77   0.453670  0.988172  0.820271  -0.653900
    O   O78   0.055322  0.493670  0.486873  -0.657240
    O   O79   0.395017  0.988189  0.820215  -0.624779
    O   O80   0.490428  0.515603  0.707688  -0.642582
    O   O81   0.431762  0.456944  0.707679  -0.627186
    O   O82   0.453629  0.552447  0.679783  -0.629730
    O   O83   0.394970  0.493783  0.679773  -0.660226
    O   O84   0.472174  0.533929  0.625674  -0.633070
    O   O85   0.413506  0.475273  0.625659  -0.624968
    O   O86   0.508946  0.497062  0.653575  -0.620504
    O   O87   0.450278  0.438404  0.653565  -0.645226
    O   O88   0.981702  0.611890  0.041003  -0.663942
    O   O89   0.568280  0.630115  0.207678  -0.629145
    O   O90   0.981715  0.553214  0.040984  -0.647653
    O   O91   0.944705  0.593420  0.986883  -0.659430
    O   O92   0.944702  0.534735  0.986869  -0.625424
    O   O93   0.018333  0.630240  0.958995  -0.651323
    O   O94   0.018332  0.571556  0.958982  -0.664352
    O   O95   0.055333  0.648736  0.013124  -0.627990
    O   O96   0.055354  0.590065  0.013108  -0.644506
