# Generated by REPEAT Assigner based on pymatgen
data_DB0-m3_o16_o28_f0_pcu.sym.14
_audit_creation_date              2022-05-24
_audit_creation_method            REPEAT_Assigner
_cell_length_a                    12.519055
_cell_length_b                    13.692406
_cell_length_c                    23.428790
_cell_angle_alpha                 90.003181
_cell_angle_beta                  102.162586
_cell_angle_gamma                 86.652187
_cell_volume                      3918.914615
_symmetry_space_group_name_H-M    P1
_symmetry_Int_Tables_number       1
loop_
    _symmetry_equiv_pos_site_id
    _symmetry_equiv_pos_as_xyz
    1  x,y,z
loop_
    _atom_site_type_symbol
    _atom_site_label
    _atom_site_fract_x
    _atom_site_fract_y
    _atom_site_fract_z
    _atom_type_partial_charge
    O   O1   0.373119  0.626553  0.491412  -0.704018
    O   O2   0.557301  0.656414  0.514035  -0.637917
    C   C1   0.453159  0.686946  0.501734  0.771482
    O   O3   0.413476  0.476943  0.576253  -0.636687
    O   O4   0.598223  0.505751  0.598008  -0.635741
    C   C2   0.506062  0.488816  0.613765  0.713643
    Zn  Zn1  0.384345  0.478480  0.487807  1.058904
    Zn  Zn2  0.626466  0.518562  0.516388  1.048415
    O   O5   0.454343  0.340711  0.492203  -0.711044
    O   O6   0.636740  0.370443  0.513357  -0.725308
    O   O7   0.413207  0.492704  0.406366  -0.622463
    O   O8   0.595488  0.522931  0.427942  -0.667890
    C   C3   0.557637  0.310375  0.502517  0.831889
    C   C4   0.504269  0.510429  0.390329  0.704345
    C   C5   0.470599  0.432153  0.117980  0.449012
    N   N1   0.505749  0.511674  0.148749  -0.166739
    C   C6   0.540958  0.587644  0.122564  0.453398
    C   C7   0.541173  0.585154  0.063537  -0.105558
    C   C8   0.505476  0.504463  0.031643  0.086097
    C   C9   0.470038  0.427393  0.058947  -0.100665
    C   C10  0.576290  0.662849  0.036118  -0.059547
    C   C11  0.575698  0.659360  0.977254  -0.059819
    C   C12  0.540282  0.578032  0.945379  -0.109970
    C   C13  0.505229  0.500838  0.972738  0.107468
    C   C14  0.469926  0.420007  0.940899  -0.113894
    C   C15  0.434751  0.342321  0.968308  -0.060577
    C   C16  0.434680  0.346053  0.027087  -0.058471
    C   C17  0.539228  0.573473  0.886274  0.458668
    N   N2   0.504970  0.493563  0.855562  -0.184409
    C   C18  0.470657  0.417257  0.881941  0.462131
    O   O9   0.438087  0.356446  0.145214  -0.488865
    O   O10  0.573753  0.666832  0.153830  -0.484552
    H   H1   0.604583  0.727162  0.060025  0.130568
    H   H2   0.603612  0.721055  0.956919  0.131111
    O   O11  0.570252  0.649856  0.858964  -0.484688
    O   O12  0.439404  0.337347  0.850999  -0.481996
    H   H3   0.406675  0.277912  0.944438  0.130475
    H   H4   0.406557  0.284448  0.047402  0.130953
    C   C19  0.602087  0.496587  0.775865  -0.191486
    H   H5   0.678181  0.502956  0.807190  0.136750
    C   C20  0.602451  0.495287  0.717082  -0.033209
    H   H6   0.679263  0.501376  0.703657  0.095546
    C   C21  0.505967  0.486695  0.676374  -0.113075
    C   C22  0.409329  0.478563  0.695274  -0.034579
    H   H7   0.332670  0.472281  0.664449  0.085819
    C   C23  0.409147  0.480255  0.754129  -0.192674
    H   H8   0.332738  0.475759  0.768262  0.135559
    C   C24  0.505419  0.489746  0.794683  0.242234
    C   C25  0.407800  0.514374  0.228083  -0.190039
    H   H9   0.331230  0.513496  0.196508  0.129128
    C   C26  0.407345  0.514705  0.286854  -0.046677
    H   H10  0.329996  0.514790  0.300207  0.103526
    C   C27  0.504545  0.515121  0.327788  -0.084943
    C   C28  0.602115  0.518041  0.309171  -0.061282
    H   H11  0.679321  0.518357  0.340212  0.102523
    C   C29  0.602371  0.518169  0.250310  -0.192755
    H   H12  0.679260  0.518389  0.236259  0.132165
    C   C30  0.505314  0.515275  0.209570  0.249961
    C   C31  0.705850  0.078282  0.474932  -0.240810
    H   H13  0.743679  0.227253  0.480533  0.109081
    H   H14  0.725737  0.895533  0.448827  0.131509
    H   H15  0.781862  0.055736  0.462487  0.118059
    C   C32  0.585547  0.205515  0.498172  -0.127560
    C   C33  0.326187  0.818374  0.520405  -0.052829
    C   C34  0.297236  0.914351  0.528920  -0.140676
    C   C35  0.364837  0.986665  0.521723  -0.141271
    C   C36  0.462346  0.964690  0.503388  0.021169
    C   C37  0.489912  0.866778  0.492831  0.235542
    C   C38  0.533393  0.037691  0.495777  0.012610
    C   C39  0.630655  0.010440  0.479236  0.242563
    C   C40  0.652753  0.915424  0.464963  -0.232736
    C   C41  0.581772  0.845064  0.469733  -0.259308
    C   C42  0.510672  0.137419  0.503649  -0.122746
    C   C43  0.684508  0.175229  0.485409  -0.087265
    C   C44  0.423290  0.792786  0.503782  -0.218059
    H   H16  0.435247  0.165714  0.513824  0.100131
    H   H17  0.273287  0.763172  0.529140  0.099022
    H   H18  0.337079  0.059260  0.531345  0.124462
    H   H19  0.221898  0.933096  0.543058  0.103839
    H   H20  0.600462  0.773850  0.453729  0.166475
    C   C45  0.077228  0.361740  0.419276  -0.364937
    H   H21  0.872748  0.334286  0.403582  0.114253
    H   H22  0.046077  0.306272  0.388460  0.179514
    N   N3   0.225061  0.449778  0.468479  -0.175051
    C   C46  0.816032  0.611691  0.576136  0.071314
    C   C47  0.923121  0.636642  0.590960  -0.164648
    C   C48  0.000515  0.594252  0.563300  -0.075785
    C   C49  0.970523  0.525485  0.520210  0.031264
    C   C50  0.860613  0.502143  0.506690  0.192801
    C   C51  0.045945  0.479005  0.490065  -0.062375
    C   C52  0.008273  0.410113  0.448948  0.293270
    C   C53  0.901159  0.387940  0.436271  -0.200124
    C   C54  0.828378  0.433985  0.464236  -0.143606
    C   C55  0.157607  0.497321  0.499205  -0.060619
    C   C56  0.184823  0.382315  0.428131  0.223660
    N   N4   0.785357  0.545288  0.534506  -0.175136
    H   H23  0.193557  0.549377  0.530811  0.175858
    H   H24  0.756259  0.646097  0.598102  0.119417
    H   H25  0.082765  0.616867  0.576911  0.123740
    H   H26  0.946633  0.690138  0.624506  0.129037
    H   H27  0.746215  0.413828  0.451528  0.194597
    C   C57  0.251515  0.325157  0.392060  0.067835
    C   C58  0.206861  0.346091  0.327541  -0.226376
    H   H28  0.135452  0.302176  0.310888  0.035487
    H   H29  0.182093  0.424992  0.320749  0.061827
    H   H30  0.271400  0.326013  0.302974  0.082820
    H   H31  0.337377  0.341790  0.401631  0.055759
    H   H32  0.247705  0.245919  0.400666  0.014770
