# Generated by REPEAT Assigner based on pymatgen
data_DB0-m3_o146_o20_f0_fsc.sym.112
_audit_creation_date              2022-05-24
_audit_creation_method            REPEAT_Assigner
_cell_length_a                    15.297843
_cell_length_b                    11.859020
_cell_length_c                    12.816881
_cell_angle_alpha                 90.182657
_cell_angle_beta                  90.000000
_cell_angle_gamma                 90.000000
_cell_volume                      2325.193578
_symmetry_space_group_name_H-M    P1
_symmetry_Int_Tables_number       1
loop_
    _symmetry_equiv_pos_site_id
    _symmetry_equiv_pos_as_xyz
    1  x,y,z
loop_
    _atom_site_type_symbol
    _atom_site_label
    _atom_site_fract_x
    _atom_site_fract_y
    _atom_site_fract_z
    _atom_type_partial_charge
    C   C1   0.307662  0.741380  0.004509  -0.180490
    C   C2   0.693066  0.259515  0.995709  -0.198372
    C   C3   0.079529  0.944528  0.009801  0.020889
    C   C4   0.920919  0.055747  0.989538  0.011615
    C   C5   0.180775  0.811512  0.094034  -0.185531
    C   C6   0.819804  0.189356  0.905855  -0.215151
    H   H1   0.138208  0.809488  0.161335  0.111494
    H   H2   0.862231  0.191371  0.838436  0.108074
    C   C7   0.289061  0.813025  0.921200  0.154267
    C   C8   0.712503  0.189091  0.079565  0.130278
    C   C9   0.253756  0.743555  0.091335  -0.097459
    C   C10  0.746755  0.257195  0.908688  -0.064162
    H   H3   0.265815  0.688511  0.156783  0.123628
    H   H4   0.734370  0.311954  0.843124  0.123232
    C   C11  0.161394  0.880356  0.010910  0.222690
    C   C12  0.839135  0.120120  0.988717  0.254014
    C   C13  0.215666  0.880700  0.924952  -0.265787
    C   C14  0.784992  0.119744  0.074784  -0.248846
    H   H5   0.199792  0.932775  0.858542  0.101493
    H   H6   0.800491  0.066738  0.140686  0.092358
    C   C15  0.301510  0.270262  0.992755  -0.121313
    C   C16  0.698821  0.730162  0.007217  -0.070004
    C   C17  0.078010  0.059447  0.990351  -0.013300
    C   C18  0.922432  0.940816  0.009020  -0.007064
    C   C19  0.178398  0.191433  0.902969  -0.175405
    C   C20  0.822258  0.808670  0.096592  -0.141901
    H   H7   0.137720  0.187181  0.834093  0.101198
    H   H8   0.863144  0.812722  0.165299  0.096994
    C   C21  0.280737  0.206702  0.079526  -0.010155
    C   C22  0.719347  0.793922  0.920485  -0.079977
    H   H9   0.319425  0.212668  0.149874  0.081892
    H   H10  0.680416  0.788175  0.850306  0.112417
    C   C23  0.250591  0.261081  0.903953  -0.105069
    C   C24  0.750019  0.739091  0.095805  -0.129498
    H   H11  0.264777  0.310923  0.835582  0.126339
    H   H12  0.736010  0.689077  0.164122  0.122113
    C   C25  0.158083  0.127383  0.989285  0.249294
    C   C26  0.842342  0.872905  0.010306  0.233181
    C   C27  0.209804  0.134823  0.077378  -0.226431
    C   C28  0.790323  0.865734  0.922447  -0.229586
    H   H13  0.193215  0.087105  0.146321  0.099718
    H   H14  0.806693  0.913594  0.853516  0.106858
    C   C29  0.001710  0.886505  0.019847  -0.211253
    C   C30  0.998747  0.113748  0.979483  -0.203201
    H   H15  0.002806  0.796191  0.030924  0.102245
    H   H16  0.997682  0.204076  0.968491  0.107264
    O   O1   0.596535  0.609610  0.092731  -0.671278
    O   O2   0.403790  0.390824  0.907345  -0.665190
    O   O3   0.594298  0.619372  0.913144  -0.655332
    O   O4   0.406052  0.381014  0.086926  -0.641345
    C   C31  0.625703  0.650179  0.004215  0.753229
    C   C32  0.374627  0.350241  0.995846  0.717204
    O   O5   0.594281  0.384526  0.909207  -0.648033
    O   O6   0.406050  0.615864  0.090879  -0.652392
    O   O7   0.589907  0.376035  0.088294  -0.550781
    O   O8   0.410459  0.624419  0.911770  -0.597183
    C   C33  0.621103  0.342213  0.998145  0.685895
    C   C34  0.379248  0.658168  0.001943  0.752262
    Zn  Zn1  0.501737  0.502374  0.884426  1.057602
    Zn  Zn2  0.498600  0.498033  0.115650  1.038186
    N   N1   0.502150  0.505233  0.747454  -0.164532
    N   N2   0.498196  0.495159  0.252623  -0.162014
    C   C35  0.501567  0.503836  0.657187  0.300825
    C   C36  0.498802  0.496508  0.342889  0.300591
    C   C37  0.500635  0.501339  0.547037  0.000666
    C   C38  0.499756  0.498954  0.453040  0.001319
    C   C39  0.343290  0.818803  0.827102  0.077783
    C   C40  0.425587  0.867162  0.829948  0.090092
    Cl  Cl1  0.466962  0.924415  0.946027  -0.121288
    C   C41  0.475140  0.872886  0.740210  -0.110188
    C   C42  0.442606  0.831387  0.647444  0.103703
    Cl  Cl2  0.505871  0.838296  0.533795  -0.115593
    C   C43  0.359989  0.785234  0.644015  -0.114134
    C   C44  0.310230  0.779576  0.733525  -0.182111
    H   H17  0.539493  0.910453  0.742549  0.105320
    H   H18  0.334203  0.753401  0.571132  0.099828
    H   H19  0.245527  0.743047  0.730480  0.131409
    C   C45  0.656595  0.181367  0.172147  0.143853
    C   C46  0.685703  0.219922  0.268083  -0.015575
    Cl  Cl3  0.787956  0.285379  0.280441  -0.081611
    C   C47  0.632700  0.210714  0.354696  -0.072581
    C   C48  0.550976  0.162647  0.346133  0.060468
    Cl  Cl4  0.483737  0.151849  0.456200  -0.113330
    C   C49  0.522042  0.123658  0.250811  -0.035013
    C   C50  0.574768  0.132930  0.164028  -0.231917
    H   H20  0.655127  0.241868  0.429392  0.081304
    H   H21  0.457969  0.085894  0.244067  0.101943
    H   H22  0.551942  0.102130  0.089455  0.184348
