# Generated by REPEAT Assigner based on pymatgen
data_DB0-m3_o47_o23_f0_fsc.sym.122_sqe
_audit_creation_date              2022-05-24
_audit_creation_method            REPEAT_Assigner
_cell_length_a                    8.558867
_cell_length_b                    11.071327
_cell_length_c                    14.166635
_cell_angle_alpha                 90.573008
_cell_angle_beta                  92.685610
_cell_angle_gamma                 80.596542
_cell_volume                      1322.905168
_symmetry_space_group_name_H-M    P1
_symmetry_Int_Tables_number       1
loop_
    _symmetry_equiv_pos_site_id
    _symmetry_equiv_pos_as_xyz
    1  x,y,z
loop_
    _atom_site_type_symbol
    _atom_site_label
    _atom_site_fract_x
    _atom_site_fract_y
    _atom_site_fract_z
    _atom_type_partial_charge
    C   C1   0.089928  0.748726  0.977575  -0.086450
    C   C2   0.970511  0.679896  0.966642  -0.126282
    C   C3   0.815169  0.731881  0.977659  -0.066325
    C   C4   0.773399  0.854787  0.990903  -0.350201
    C   C5   0.887817  0.927585  0.993472  0.362036
    C   C6   0.046780  0.875156  0.989633  0.061213
    C   C7   0.840734  0.052490  0.002619  -0.435754
    C   C8   0.952210  0.128254  0.008689  0.100198
    C   C9   0.111172  0.075825  0.004848  0.340410
    C   C10  0.158256  0.950921  0.995699  -0.412808
    C   C11  0.909063  0.254683  0.020756  -0.152427
    C   C12  0.028482  0.323511  0.031696  -0.135967
    C   C13  0.183822  0.271529  0.020672  -0.058445
    C   C14  0.225590  0.148624  0.007418  -0.341005
    H   H1   0.000538  0.582706  0.955768  0.122522
    H   H2   0.650394  0.893573  0.998996  0.154394
    H   H3   0.998455  0.420700  0.042576  0.130645
    H   H4   0.348594  0.109837  0.999321  0.149463
    H   H5   0.282488  0.913073  0.992023  0.171219
    H   H6   0.716501  0.090338  0.006296  0.165057
    O   O1   0.349999  0.400122  0.090356  -0.757524
    O   O2   0.350114  0.367151  0.929049  -0.719568
    C   C15  0.302629  0.348541  0.013378  0.911293
    O   O3   0.308203  0.619704  0.907763  -0.673936
    O   O4   0.319801  0.651834  0.068593  -0.713550
    C   C16  0.254040  0.679041  0.983780  0.804766
    O   O5   0.648992  0.603288  0.907977  -0.736809
    O   O6   0.648876  0.636260  0.069282  -0.733519
    C   C17  0.696361  0.654870  0.984954  0.914368
    O   O7   0.690788  0.383707  0.090567  -0.764496
    O   O8   0.679190  0.351577  0.929740  -0.698364
    C   C18  0.744952  0.324369  0.014552  0.889168
    Zn  Zn1  0.494961  0.484305  0.894703  1.057876
    Zn  Zn2  0.504030  0.519106  0.103629  1.127351
    C   C19  0.581884  0.372369  0.544376  -0.145646
    C   C20  0.582256  0.593539  0.565862  -0.057681
    C   C21  0.611133  0.593402  0.461200  -0.212787
    H   H7   0.674303  0.347468  0.405305  0.049422
    H   H8   0.709828  0.361845  0.565384  0.046112
    H   H9   0.509769  0.681704  0.585634  0.035448
    H   H10  0.697513  0.582421  0.606621  0.060468
    H   H11  0.736660  0.554798  0.449475  0.041604
    H   H12  0.584653  0.688411  0.433841  0.076608
    N   N1   0.510384  0.534540  0.227099  0.022464
    C   C22  0.495464  0.488576  0.587385  0.567282
    C   C23  0.560095  0.381917  0.437827  -0.096538
    C   C24  0.504208  0.514789  0.410977  0.704153
    C   C25  0.336297  0.553438  0.442011  -0.184097
    C   C26  0.328434  0.514543  0.543618  -0.147329
    C   C27  0.508473  0.528056  0.308495  -0.272973
    C   C28  0.490781  0.475340  0.689847  -0.238044
    N   N2   0.488618  0.468870  0.771233  0.029854
    H   H13  0.274236  0.430269  0.545657  0.088821
    H   H14  0.252744  0.509226  0.396589  0.078426
    H   H15  0.533078  0.291988  0.569051  0.063883
    H   H16  0.469948  0.326283  0.412339  0.021395
    H   H17  0.303713  0.654341  0.436499  0.049165
    C   C29  0.232407  0.612076  0.595930  0.347022
    N   N3   0.156493  0.689188  0.637284  -0.425583
