# Generated by REPEAT Assigner based on pymatgen
data_DB0-m9_o18_o23_f0_sra.sym.27
_audit_creation_date              2022-05-24
_audit_creation_method            REPEAT_Assigner
_cell_length_a                    6.698218
_cell_length_b                    19.965049
_cell_length_c                    23.448177
_cell_angle_alpha                 91.237539
_cell_angle_beta                  90.713518
_cell_angle_gamma                 89.153984
_cell_volume                      3134.426400
_symmetry_space_group_name_H-M    P1
_symmetry_Int_Tables_number       1
loop_
    _symmetry_equiv_pos_site_id
    _symmetry_equiv_pos_as_xyz
    1  x,y,z
loop_
    _atom_site_type_symbol
    _atom_site_label
    _atom_site_fract_x
    _atom_site_fract_y
    _atom_site_fract_z
    _atom_type_partial_charge
    O  O1   0.656539  0.416747  0.467027  -0.558999
    O  O2   0.308295  0.552303  0.433898  -0.564257
    O  O3   0.152296  0.580590  0.538227  -0.517103
    C  C1   0.480074  0.576634  0.421108  0.737001
    O  O4   0.315688  0.417595  0.453762  -0.576492
    O  O5   0.159713  0.437198  0.559743  -0.558079
    C  C2   0.491739  0.390034  0.449612  0.646084
    O  O6   0.649289  0.559961  0.445142  -0.579138
    O  O7   0.481138  0.507102  0.537918  -0.513505
    V  V1   0.205904  0.496655  0.495321  1.446937
    O  O8   0.819143  0.445386  0.571230  -0.562559
    C  C3   0.993443  0.420450  0.583656  0.709349
    O  O9   0.812574  0.580096  0.551113  -0.559469
    C  C4   0.986892  0.607566  0.555402  0.600733
    V  V2   0.706348  0.500840  0.509738  1.482803
    O  O10  0.978956  0.490405  0.467137  -0.499450
    C  C5   0.740053  0.846892  0.909408  -0.090383
    C  C6   0.007026  0.668712  0.589495  0.005432
    C  C7   0.538549  0.754931  0.880695  -0.280657
    C  C8   0.588024  0.803625  0.920186  -0.026004
    C  C9   0.843286  0.841918  0.859082  -0.185993
    C  C10  0.790815  0.793739  0.818101  0.066574
    C  C11  0.638075  0.750428  0.829834  0.248604
    C  C12  0.886279  0.788228  0.765676  0.008191
    C  C13  0.829627  0.738677  0.726295  0.049348
    C  C14  0.674379  0.696616  0.739127  -0.174330
    C  C15  0.580279  0.702621  0.790529  -0.251236
    C  C16  0.037911  0.831406  0.752086  -0.147731
    C  C17  0.135698  0.824094  0.701230  -0.164732
    C  C18  0.086283  0.773430  0.663509  0.162509
    C  C19  0.931669  0.730913  0.675120  0.070105
    C  C20  0.197820  0.764424  0.614962  -0.178786
    C  C21  0.161784  0.710940  0.578738  -0.124026
    C  C22  0.889125  0.679308  0.636442  -0.201342
    H  H1   0.459417  0.669537  0.800091  0.130855
    H  H2   0.776088  0.642934  0.643360  0.134412
    H  H3   0.256272  0.701573  0.542290  0.109122
    H  H4   0.256312  0.857243  0.691589  0.124673
    H  H5   0.418523  0.721012  0.889009  0.133697
    H  H6   0.505801  0.808592  0.959466  0.090878
    H  H7   0.958323  0.877840  0.852831  0.153371
    H  H8   0.620493  0.658539  0.710108  0.145542
    H  H9   0.086048  0.871239  0.780261  0.144682
    H  H10  0.319828  0.797612  0.606794  0.122000
    C  C23  0.708372  0.252648  0.786766  -0.326399
    C  C24  0.069612  0.237076  0.802132  -0.033705
    C  C25  0.126349  0.277216  0.750678  -0.330301
    H  H11  0.815402  0.352647  0.773809  0.027345
    H  H12  0.678628  0.273900  0.829969  0.092724
    H  H13  0.190240  0.200465  0.812254  -0.010836
    H  H14  0.048224  0.271586  0.839321  0.007037
    H  H15  0.176661  0.327515  0.765169  0.067976
    H  H16  0.248793  0.251274  0.727350  0.132615
    C  C26  0.997832  0.372934  0.629264  -0.055750
    C  C27  0.875498  0.200923  0.789776  0.639854
    C  C28  0.770079  0.308278  0.747760  -0.039788
    C  C29  0.945189  0.284270  0.711945  0.645087
    C  C30  0.894247  0.216350  0.685760  0.033145
    C  C31  0.889089  0.164719  0.732404  0.023236
    C  C32  0.981431  0.332779  0.666839  -0.433248
    C  C33  0.839118  0.153382  0.835620  -0.365460
    C  C34  0.822708  0.115929  0.875180  -0.166935
    H  H17  0.756314  0.132825  0.725727  0.022036
    H  H18  0.744667  0.219917  0.665145  0.029985
    H  H19  0.571698  0.228560  0.769432  0.124510
    H  H20  0.642450  0.322097  0.719597  -0.000126
    C  C35  0.613592  0.698832  0.245254  -0.143524
    C  C36  0.248846  0.690323  0.255029  -0.116582
    C  C37  0.236369  0.730843  0.201090  -0.182207
    H  H21  0.622895  0.733138  0.158659  0.023104
    H  H22  0.605820  0.649415  0.222877  0.016295
    H  H23  0.121161  0.703866  0.282859  0.009446
    H  H24  0.243913  0.636161  0.243659  0.028666
    H  H25  0.268603  0.697848  0.163575  0.026757
    H  H26  0.084393  0.753055  0.196630  0.047500
    C  C38  0.335777  0.871975  0.119578  -0.105292
    C  C39  0.442222  0.705735  0.286600  0.724002
    C  C40  0.596473  0.754334  0.202063  -0.116726
    C  C41  0.389321  0.785852  0.204816  0.711191
    C  C42  0.367541  0.823042  0.261450  -0.131021
    C  C43  0.432416  0.777297  0.309264  -0.162800
    C  C44  0.358689  0.832641  0.157734  -0.436285
    C  C45  0.469074  0.659445  0.334199  -0.452911
    C  C46  0.481209  0.621562  0.373721  -0.092215
    H  H27  0.582261  0.791958  0.325354  0.028246
    H  H28  0.323414  0.781529  0.344419  0.045396
    H  H29  0.462110  0.868189  0.262254  0.045332
    H  H30  0.757846  0.702826  0.268720  0.038459
    H  H31  0.708977  0.793155  0.212195  0.014256
    H  H32  0.209005  0.838252  0.267133  0.030839
    C  C47  0.288124  0.169543  0.084721  0.078492
    C  C48  0.513322  0.329925  0.414342  0.105926
    C  C49  0.101906  0.267891  0.109166  -0.140804
    C  C50  0.145139  0.216765  0.070906  -0.245982
    C  C51  0.386021  0.172721  0.136457  -0.257290
    C  C52  0.338740  0.222600  0.176159  0.096120
    C  C53  0.195427  0.269955  0.161871  0.173605
    C  C54  0.426277  0.224311  0.230368  0.045983
    C  C55  0.366678  0.272837  0.270180  0.006352
    C  C56  0.222102  0.319828  0.254698  -0.168736
    C  C57  0.139247  0.318535  0.200852  -0.243159
    C  C58  0.573938  0.178382  0.245157  -0.135129
    C  C59  0.658909  0.179757  0.298606  -0.162530
    C  C60  0.600126  0.227147  0.338602  -0.040066
    C  C61  0.455050  0.274463  0.324418  0.211489
    C  C62  0.694820  0.229989  0.391510  0.170654
    C  C63  0.657583  0.283279  0.427945  -0.270366
    C  C64  0.407549  0.324569  0.364033  -0.310861
    H  H33  0.025854  0.355151  0.189537  0.134519
    H  H34  0.301392  0.363977  0.355585  0.176464
    H  H35  0.740027  0.288016  0.467726  0.168603
    H  H36  0.779480  0.145059  0.307219  0.149849
    H  H37  0.988255  0.304861  0.098887  0.113741
    H  H38  0.063821  0.212784  0.030885  0.146496
    H  H39  0.487493  0.132127  0.145477  0.173167
    H  H40  0.167808  0.358323  0.283378  0.133023
    H  H41  0.632167  0.141383  0.215708  0.117048
    O  O11  0.133726  0.924137  0.049765  -0.568949
    O  O12  0.489850  0.096912  0.028551  -0.650925
    O  O13  0.673008  0.035226  0.935321  -0.571692
    C  C65  0.310808  0.108942  0.050124  0.666239
    O  O14  0.443566  0.970616  0.077296  -0.535105
    O  O15  0.627464  0.910641  0.986979  -0.623209
    C  C66  0.314332  0.920164  0.074822  0.740577
    O  O16  0.174863  0.063150  0.058350  -0.475300
    O  O17  0.308030  0.992526  0.967017  -0.584851
    V  V3   0.584692  0.004801  0.010448  1.568710
    O  O18  0.938754  0.938617  0.944801  -0.629102
    C  C67  0.773512  0.901607  0.950005  0.734185
    O  O19  0.989836  0.078785  0.956349  -0.628119
    C  C68  0.827282  0.074213  0.924759  0.842815
    V  V4   0.083736  0.999464  0.998311  1.527171
    O  O20  0.810407  0.010204  0.042401  -0.601826
    N  N1   0.068150  0.122962  0.730623  0.532893
    O  O21  0.053608  0.058640  0.722189  -0.401859
    O  O22  0.242938  0.149601  0.737474  -0.315239
    N  N2   0.040309  0.196587  0.643168  0.432130
    O  O23  0.983650  0.186257  0.590523  -0.309930
    O  O24  0.227395  0.189244  0.657375  -0.306940
    N  N3   0.835383  0.179835  0.408743  0.496058
    O  O25  0.945255  0.191111  0.453931  -0.347544
    O  O26  0.822120  0.118952  0.388450  -0.358357
