# Generated by REPEAT Assigner based on pymatgen
data_DB0-m2_o6_o17_f0_pcu.sym.41
_audit_creation_date              2022-05-24
_audit_creation_method            REPEAT_Assigner
_cell_length_a                    16.033639
_cell_length_b                    14.630185
_cell_length_c                    14.975710
_cell_angle_alpha                 90.000000
_cell_angle_beta                  89.999811
_cell_angle_gamma                 90.000000
_cell_volume                      3512.928926
_symmetry_space_group_name_H-M    P1
_symmetry_Int_Tables_number       1
loop_
    _symmetry_equiv_pos_site_id
    _symmetry_equiv_pos_as_xyz
    1  x,y,z
loop_
    _atom_site_type_symbol
    _atom_site_label
    _atom_site_fract_x
    _atom_site_fract_y
    _atom_site_fract_z
    _atom_type_partial_charge
    O   O1   0.382385  0.577058  0.493733  -0.617679
    O   O2   0.627192  0.423099  0.496700  -0.589209
    O   O3   0.624735  0.580336  0.489701  -0.628642
    O   O4   0.384841  0.419935  0.500775  -0.596478
    C   C1   0.344769  0.497859  0.497892  0.831750
    C   C2   0.664791  0.502360  0.492666  0.859522
    O   O5   0.498656  0.578363  0.365165  -0.557608
    O   O6   0.511030  0.421814  0.625359  -0.618234
    O   O7   0.502489  0.579001  0.624632  -0.535648
    O   O8   0.507155  0.421342  0.365797  -0.616344
    C   C3   0.502391  0.499744  0.323775  0.679746
    C   C4   0.507833  0.500737  0.666788  0.655577
    Cu  Cu1  0.503432  0.591554  0.494799  0.872453
    Cu  Cu2  0.506137  0.408661  0.495640  0.951183
    C   C5   0.559409  0.441778  0.811174  -0.299482
    C   C6   0.454854  0.562590  0.179902  -0.275905
    C   C7   0.509235  0.501814  0.764562  0.034513
    C   C8   0.502209  0.499758  0.226227  0.008954
    C   C9   0.460665  0.563722  0.810303  -0.233156
    C   C10  0.551262  0.438589  0.180503  -0.223380
    C   C11  0.458849  0.562703  0.902323  0.248356
    C   C12  0.554561  0.441613  0.088702  0.218424
    C   C13  0.507562  0.501791  0.949325  -0.044072
    C   C14  0.504770  0.501548  0.041695  -0.042713
    C   C15  0.559922  0.442375  0.903977  0.164705
    C   C16  0.452911  0.561396  0.087174  0.187547
    C   C17  0.407165  0.622256  0.947118  -0.265775
    C   C18  0.609380  0.385586  0.044170  -0.269371
    C   C19  0.402273  0.620940  0.038975  -0.166622
    C   C20  0.613020  0.385958  0.952467  -0.147008
    H   H1   0.598814  0.396149  0.773507  0.179724
    H   H2   0.418982  0.611308  0.217816  0.176633
    H   H3   0.421570  0.610995  0.773920  0.127273
    H   H4   0.590171  0.391049  0.216785  0.130480
    H   H5   0.368016  0.668762  0.909862  0.164893
    H   H6   0.650340  0.340784  0.081190  0.153849
    H   H7   0.083706  0.644259  0.496021  0.141809
    H   H8   0.925851  0.355979  0.494965  0.145421
    H   H9   0.930300  0.647134  0.493728  0.143549
    H   H10  0.079255  0.353104  0.497264  0.151828
    C   C21  0.963028  0.582546  0.494484  -0.184026
    C   C22  0.046527  0.417692  0.496532  -0.190595
    C   C23  0.048996  0.580922  0.495836  -0.188759
    C   C24  0.960560  0.419316  0.495178  -0.173644
    C   C25  0.918829  0.501726  0.494111  0.257731
    C   C26  0.090727  0.498511  0.496875  0.271440
    C   C27  0.829382  0.503188  0.493056  -0.075969
    C   C28  0.180176  0.497045  0.497788  -0.095094
    C   C29  0.255311  0.496716  0.498141  -0.247655
    C   C30  0.754248  0.503511  0.492564  -0.272784
    C   C31  0.555931  0.951435  0.549770  -0.123473
    C   C32  0.455080  0.048408  0.433044  -0.154277
    C   C33  0.453047  0.953489  0.433537  -0.173837
    C   C34  0.555580  0.046028  0.551488  -0.155419
    C   C35  0.503964  0.905507  0.491551  0.179208
    C   C36  0.506012  0.094328  0.492650  0.177106
    C   C37  0.502304  0.807310  0.492690  0.006685
    C   C38  0.506940  0.192760  0.494492  0.024215
    N   N1   0.507688  0.271926  0.495907  -0.079429
    N   N2   0.501707  0.728237  0.494154  -0.057644
    C   C39  0.341981  0.682872  0.081412  0.715803
    O   O9   0.342333  0.763745  0.061794  -0.531009
    C   C40  0.272473  0.646323  0.137410  -0.536492
    H   H11  0.276838  0.570832  0.142063  0.101825
    H   H12  0.212052  0.664756  0.106206  0.158547
    H   H13  0.275614  0.676732  0.205166  0.151834
    C   C41  0.676576  0.328777  0.910147  0.735400
    O   O10  0.750123  0.347891  0.918942  -0.530329
    C   C42  0.652669  0.241542  0.866387  -0.527995
    H   H14  0.584068  0.233247  0.870535  0.093904
    H   H15  0.683394  0.183761  0.901220  0.157352
    H   H16  0.672894  0.242877  0.795596  0.148189
    C   C43  0.601007  0.095558  0.621118  0.651406
    O   O11  0.654577  0.151174  0.601310  -0.475600
    C   C44  0.576588  0.083351  0.716334  -0.406082
    H   H17  0.528070  0.029717  0.722172  0.086812
    H   H18  0.550008  0.148354  0.741120  0.152630
    H   H19  0.631960  0.063854  0.756400  0.139868
    C   C45  0.395258  0.902902  0.375606  0.711187
    O   O12  0.422214  0.848316  0.321232  -0.483470
    C   C46  0.303253  0.914120  0.385822  -0.477427
    H   H20  0.289557  0.962478  0.440916  0.108474
    H   H21  0.274961  0.846884  0.401672  0.163141
    H   H22  0.276276  0.940299  0.322638  0.144874
    C   C47  0.404212  0.101054  0.369663  0.700490
    O   O13  0.352937  0.155825  0.397170  -0.486885
    C   C48  0.417023  0.090988  0.271474  -0.451196
    H   H23  0.468284  0.041967  0.258215  0.107720
    H   H24  0.433785  0.158364  0.242691  0.142070
    H   H25  0.358694  0.066202  0.239929  0.145524
    C   C49  0.611585  0.899266  0.608891  0.679668
    O   O14  0.582724  0.843935  0.661401  -0.477418
    C   C50  0.703841  0.911644  0.603754  -0.475978
    H   H26  0.719673  0.960690  0.549907  0.108549
    H   H27  0.733539  0.844907  0.588874  0.167392
    H   H28  0.727456  0.937583  0.668571  0.142580
