# Generated by REPEAT Assigner based on pymatgen
data_DB0-m3_o1_o28_f0_nbo.sym.36_sqe
_audit_creation_date              2022-05-24
_audit_creation_method            REPEAT_Assigner
_cell_length_a                    21.892799
_cell_length_b                    21.892816
_cell_length_c                    46.884447
_cell_angle_alpha                 90.000000
_cell_angle_beta                  90.000000
_cell_angle_gamma                 90.000000
_cell_volume                      22471.481508
_symmetry_space_group_name_H-M    P1
_symmetry_Int_Tables_number       1
loop_
    _symmetry_equiv_pos_site_id
    _symmetry_equiv_pos_as_xyz
    1  x,y,z
loop_
    _atom_site_type_symbol
    _atom_site_label
    _atom_site_fract_x
    _atom_site_fract_y
    _atom_site_fract_z
    _atom_type_partial_charge
    O   O1    0.999719  0.090985  0.024146  -0.621877
    O   O2    0.909420  0.997127  0.024144  -0.621027
    O   O3    0.003222  0.908859  0.025002  -0.609144
    O   O4    0.091547  0.000648  0.025007  -0.611222
    O   O5    0.997715  0.909394  0.975929  -0.618847
    O   O6    0.908821  0.002603  0.975070  -0.610218
    O   O7    0.000019  0.091539  0.975039  -0.611335
    O   O8    0.090967  0.000318  0.975899  -0.621383
    O   O9    0.499720  0.590988  0.524147  -0.621838
    O   O10   0.409422  0.497129  0.524144  -0.620997
    O   O11   0.503224  0.408861  0.525002  -0.609091
    O   O12   0.591548  0.500651  0.525006  -0.611274
    O   O13   0.497717  0.409397  0.475929  -0.618791
    O   O14   0.408822  0.502606  0.475070  -0.610163
    O   O15   0.500020  0.591542  0.475039  -0.611302
    O   O16   0.590969  0.500321  0.475899  -0.621280
    C   C1    0.999759  0.120029  0.999659  0.566067
    C   C2    0.880411  0.999705  0.999676  0.554358
    C   C3    0.000502  0.880416  0.000400  0.550212
    C   C4    0.120024  0.000564  0.000383  0.561883
    C   C5    0.499760  0.620032  0.499659  0.566012
    C   C6    0.380413  0.499707  0.499676  0.554302
    C   C7    0.500503  0.380419  0.500400  0.550145
    C   C8    0.620026  0.500567  0.500382  0.561959
    Zn  Zn1   0.000302  0.000057  0.032289  1.229171
    Zn  Zn2   0.000032  0.000288  0.967770  1.228901
    Zn  Zn3   0.500304  0.500060  0.532289  1.229138
    Zn  Zn4   0.500033  0.500290  0.467770  1.228827
    C   C9    0.219560  0.043380  0.983762  0.047736
    C   C10   0.956287  0.219589  0.983528  0.051214
    C   C11   0.780985  0.956942  0.983151  0.040865
    C   C12   0.042609  0.781024  0.983400  0.040843
    C   C13   0.219869  0.957750  0.016513  0.046587
    C   C14   0.958450  0.780695  0.016941  0.039359
    C   C15   0.780731  0.041132  0.016675  0.034468
    C   C16   0.041949  0.219842  0.016261  0.047261
    C   C17   0.719561  0.543383  0.483762  0.047704
    C   C18   0.456289  0.719592  0.483528  0.051468
    C   C19   0.280986  0.456945  0.483151  0.041009
    C   C20   0.542612  0.281026  0.483400  0.041043
    C   C21   0.719870  0.457754  0.516513  0.046676
    C   C22   0.458451  0.280698  0.516941  0.039461
    C   C23   0.280732  0.541136  0.516675  0.034445
    C   C24   0.541950  0.719845  0.516261  0.047276
    C   C25   0.282779  0.041898  0.983600  -0.262546
    C   C26   0.957602  0.282803  0.983462  -0.261885
    C   C27   0.717775  0.958197  0.983103  -0.255752
    C   C28   0.041181  0.717811  0.983247  -0.258003
    C   C29   0.283072  0.959477  0.016577  -0.257370
    C   C30   0.960139  0.717495  0.016987  -0.252032
    C   C31   0.717528  0.039269  0.016827  -0.247815
    C   C32   0.040054  0.283049  0.016422  -0.256878
    C   C33   0.782780  0.541901  0.483600  -0.262342
    C   C34   0.457604  0.782806  0.483462  -0.262148
    C   C35   0.217777  0.458201  0.483102  -0.255562
    C   C36   0.541183  0.217813  0.483247  -0.258015
    C   C37   0.783073  0.459480  0.516577  -0.257309
    C   C38   0.460141  0.217497  0.516987  -0.252043
    C   C39   0.217529  0.539273  0.516827  -0.248063
    C   C40   0.540055  0.783052  0.516422  -0.256886
    H   H1    0.308831  0.072479  0.970282  0.166641
    H   H2    0.926823  0.308842  0.970236  0.167646
    H   H3    0.691824  0.927907  0.969592  0.169784
    H   H4    0.071276  0.691855  0.969646  0.169086
    H   H5    0.309313  0.928881  0.029809  0.167004
    H   H6    0.930037  0.691330  0.030500  0.168858
    H   H7    0.691363  0.069202  0.030419  0.166205
    H   H8    0.070479  0.309299  0.029735  0.165480
    H   H9    0.808833  0.572483  0.470282  0.166512
    H   H10   0.426825  0.808845  0.470235  0.167667
    H   H11   0.191826  0.427910  0.469591  0.169694
    H   H12   0.571278  0.191858  0.469646  0.169114
    H   H13   0.809314  0.428885  0.529810  0.166962
    H   H14   0.430039  0.191332  0.530500  0.168862
    H   H15   0.191364  0.569206  0.530419  0.166251
    H   H16   0.570480  0.809302  0.529735  0.165445
    C   C41   0.314151  0.000795  0.000088  0.078746
    C   C42   0.998731  0.314153  0.999943  0.076208
    C   C43   0.686402  0.998632  0.999967  0.067185
    C   C44   0.000773  0.686405  0.000113  0.070056
    C   C45   0.814152  0.500799  0.500088  0.078629
    C   C46   0.498733  0.814155  0.499943  0.076253
    C   C47   0.186404  0.498636  0.499967  0.067211
    C   C48   0.500775  0.186407  0.500113  0.069873
    C   C49   0.187387  0.000576  0.000213  -0.116664
    C   C50   0.999337  0.187390  0.999821  -0.121534
    C   C51   0.813122  0.999260  0.999841  -0.100812
    C   C52   0.000528  0.813125  0.000241  -0.101114
    C   C53   0.687388  0.500579  0.500213  -0.116805
    C   C54   0.499338  0.687392  0.499821  -0.121640
    C   C55   0.313124  0.499263  0.499841  -0.100934
    C   C56   0.500529  0.313128  0.500242  -0.101197
    O   O17   0.498460  0.053878  0.042658  -0.686766
    O   O18   0.945499  0.498302  0.042642  -0.685532
    O   O19   0.502299  0.948541  0.042554  -0.702430
    O   O20   0.050835  0.502170  0.042572  -0.703007
    O   O21   0.500989  0.945503  0.957374  -0.688172
    O   O22   0.948615  0.499442  0.957462  -0.703652
    O   O23   0.499307  0.050877  0.957477  -0.704732
    O   O24   0.053988  0.501152  0.957392  -0.688804
    O   O25   0.998462  0.553881  0.542658  -0.686687
    O   O26   0.445501  0.998304  0.542643  -0.685555
    O   O27   0.002301  0.448544  0.542554  -0.702522
    O   O28   0.550837  0.002172  0.542571  -0.703012
    O   O29   0.000989  0.445507  0.457373  -0.688187
    O   O30   0.448615  0.999444  0.457462  -0.703601
    O   O31   0.999307  0.550881  0.457477  -0.704841
    O   O32   0.553989  0.001155  0.457392  -0.688731
    C   C57   0.500468  0.001170  0.055943  0.644545
    C   C58   0.998190  0.500276  0.055944  0.642263
    C   C59   0.500084  0.998233  0.944086  0.650427
    C   C60   0.001279  0.500281  0.944088  0.649965
    C   C61   0.000470  0.501174  0.555943  0.644462
    C   C62   0.498194  0.000278  0.555944  0.642124
    C   C63   0.000083  0.498238  0.444086  0.650457
    C   C64   0.501279  0.000284  0.444088  0.649682
    O   O33   0.409015  0.053809  0.000451  -0.698757
    O   O34   0.945659  0.408999  0.000370  -0.699626
    O   O35   0.591511  0.945625  0.999120  -0.697835
    O   O36   0.053773  0.591531  0.999204  -0.697696
    O   O37   0.409356  0.948321  0.999670  -0.715063
    O   O38   0.948356  0.591155  0.000885  -0.714445
    O   O39   0.591168  0.051039  0.000831  -0.712915
    O   O40   0.051149  0.409377  0.999619  -0.713767
    O   O41   0.909016  0.553813  0.500452  -0.698672
    O   O42   0.445661  0.909002  0.500370  -0.699627
    O   O43   0.091512  0.445629  0.499119  -0.697847
    O   O44   0.553775  0.091533  0.499204  -0.697757
    O   O45   0.909357  0.448324  0.499670  -0.714954
    O   O46   0.448358  0.091157  0.500886  -0.714466
    O   O47   0.091169  0.551043  0.500831  -0.712894
    O   O48   0.551150  0.909379  0.499619  -0.713813
    C   C65   0.380785  0.000991  0.000061  0.722021
    C   C66   0.998489  0.380787  0.999976  0.723353
    C   C67   0.619752  0.998407  0.999987  0.719046
    C   C68   0.000984  0.619755  0.000075  0.719971
    C   C69   0.880786  0.500995  0.500061  0.721943
    C   C70   0.498490  0.880789  0.499976  0.723532
    C   C71   0.119753  0.498410  0.499987  0.719069
    C   C72   0.500986  0.119757  0.500075  0.720212
    Zn  Zn5   0.500335  0.068891  0.999950  1.333158
    Zn  Zn6   0.930543  0.500316  0.999931  1.332328
    Zn  Zn7   0.500212  0.930508  0.000091  1.332205
    Zn  Zn8   0.068926  0.500236  0.000113  1.332601
    Zn  Zn9   0.000336  0.568894  0.499950  1.333151
    Zn  Zn10  0.430545  0.000318  0.499931  1.332331
    Zn  Zn11  0.000213  0.430511  0.500091  1.332243
    Zn  Zn12  0.568928  0.000239  0.500113  1.332636
    C   C73   0.039224  0.462956  0.808960  0.461259
    C   C74   0.536820  0.037285  0.809003  0.463201
    C   C75   0.962599  0.537773  0.809028  0.459067
    C   C76   0.462002  0.960660  0.808984  0.457955
    C   C77   0.034902  0.539257  0.191052  0.458190
    C   C78   0.540185  0.964471  0.191004  0.458098
    C   C79   0.962502  0.460344  0.191025  0.457107
    C   C80   0.461273  0.036873  0.191072  0.456411
    C   C81   0.539221  0.962956  0.308960  0.461341
    C   C82   0.036815  0.537290  0.309003  0.462852
    C   C83   0.462596  0.037773  0.309028  0.459071
    C   C84   0.961998  0.460665  0.308985  0.458030
    C   C85   0.534908  0.039253  0.691052  0.457777
    C   C86   0.040188  0.464471  0.691004  0.457977
    C   C87   0.462508  0.960340  0.691025  0.456912
    C   C88   0.961277  0.536874  0.691072  0.456080
    N   N1    0.000942  0.500337  0.823277  -0.156927
    N   N2    0.499494  0.998875  0.823277  -0.156296
    N   N3    0.998625  0.499893  0.176756  -0.151842
    N   N4    0.500716  0.000719  0.176755  -0.152278
    N   N5    0.500940  0.000337  0.323277  -0.156941
    N   N6    0.999490  0.498880  0.323277  -0.156222
    N   N7    0.498630  0.999890  0.676756  -0.151602
    N   N8    0.000719  0.500720  0.676755  -0.152010
    C   C89   0.961631  0.537916  0.779543  -0.118150
    C   C90   0.461747  0.959955  0.779498  -0.118963
    C   C91   0.040079  0.462941  0.779475  -0.119536
    C   C92   0.536721  0.038403  0.779519  -0.123415
    C   C93   0.961764  0.460017  0.220512  -0.114706
    C   C94   0.461180  0.037691  0.220558  -0.113105
    C   C95   0.035977  0.539186  0.220536  -0.118318
    C   C96   0.540347  0.963477  0.220489  -0.117796
    C   C97   0.461628  0.037916  0.279543  -0.118194
    C   C98   0.961742  0.459959  0.279498  -0.119050
    C   C99   0.540076  0.962941  0.279475  -0.119634
    C   C100  0.036717  0.538408  0.279519  -0.123258
    C   C101  0.461769  0.960013  0.720512  -0.114418
    C   C102  0.961183  0.537691  0.720558  -0.113016
    C   C103  0.535982  0.039182  0.720536  -0.118120
    C   C104  0.040350  0.463477  0.720489  -0.117747
    C   C105  0.000830  0.500465  0.764726  0.102911
    C   C106  0.499144  0.999284  0.764726  0.106724
    C   C107  0.998959  0.499498  0.235306  0.097274
    C   C108  0.500784  0.000542  0.235306  0.097453
    C   C109  0.500827  0.000465  0.264726  0.102983
    C   C110  0.999139  0.499289  0.264726  0.106888
    C   C111  0.498964  0.999494  0.735306  0.097325
    C   C112  0.000786  0.500543  0.735306  0.097447
    C   C113  0.921971  0.575489  0.764776  -0.045951
    C   C114  0.424120  0.920425  0.764685  -0.045157
    C   C115  0.079688  0.425440  0.764638  -0.045437
    C   C116  0.574168  0.078143  0.764730  -0.045233
    C   C117  0.924340  0.420256  0.235302  -0.049600
    C   C118  0.421542  0.075162  0.235394  -0.050103
    C   C119  0.073580  0.578739  0.235349  -0.047444
    C   C120  0.580022  0.925920  0.235256  -0.047579
    C   C121  0.421968  0.075489  0.264776  -0.045898
    C   C122  0.924115  0.420430  0.264685  -0.045240
    C   C123  0.579685  0.925439  0.264638  -0.045408
    C   C124  0.074163  0.578148  0.264729  -0.045200
    C   C125  0.424345  0.920251  0.735302  -0.049887
    C   C126  0.921545  0.575162  0.735394  -0.050031
    C   C127  0.573585  0.078734  0.735349  -0.047426
    C   C128  0.080025  0.425920  0.735256  -0.047586
    O   O49   0.075711  0.424549  0.823441  -0.489766
    O   O50   0.575283  0.073642  0.823521  -0.489565
    O   O51   0.926174  0.576123  0.823575  -0.488709
    O   O52   0.423708  0.924106  0.823492  -0.488526
    O   O53   0.069119  0.579672  0.176555  -0.488289
    O   O54   0.580489  0.930221  0.176458  -0.488386
    O   O55   0.928135  0.420112  0.176496  -0.488390
    O   O56   0.420934  0.071210  0.176592  -0.488396
    O   O57   0.575708  0.924550  0.323441  -0.489787
    O   O58   0.075279  0.573647  0.323521  -0.489468
    O   O59   0.426171  0.076123  0.323575  -0.488705
    O   O60   0.923704  0.424111  0.323493  -0.488531
    O   O61   0.569125  0.079668  0.676555  -0.488210
    O   O62   0.080492  0.430221  0.676458  -0.488371
    O   O63   0.428140  0.920108  0.676496  -0.488383
    O   O64   0.920937  0.571211  0.676592  -0.488296
    H   H17   0.890646  0.605340  0.775849  0.126979
    H   H18   0.394308  0.889004  0.775721  0.126940
    H   H19   0.111048  0.395532  0.775656  0.127232
    H   H20   0.604114  0.109408  0.775784  0.127205
    H   H21   0.894619  0.388778  0.224247  0.128196
    H   H22   0.389971  0.104848  0.224376  0.128646
    H   H23   0.103170  0.610371  0.224313  0.127801
    H   H24   0.611561  0.896294  0.224183  0.127608
    H   H25   0.390643  0.105340  0.275849  0.126972
    H   H26   0.894303  0.389009  0.275722  0.126937
    H   H27   0.611045  0.895532  0.275656  0.127232
    H   H28   0.104109  0.609413  0.275783  0.127189
    H   H29   0.394625  0.888773  0.724247  0.128279
    H   H30   0.889975  0.604848  0.724376  0.128613
    H   H31   0.603175  0.110366  0.724313  0.127803
    H   H32   0.111564  0.396295  0.724183  0.127622
    C   C129  0.491020  0.947267  0.131405  -0.173604
    C   C130  0.052069  0.490460  0.131396  -0.174146
    C   C131  0.510319  0.054489  0.131484  -0.173082
    C   C132  0.944845  0.509749  0.131495  -0.169570
    C   C133  0.487137  0.051619  0.868663  -0.169410
    C   C134  0.054071  0.512871  0.868557  -0.171062
    C   C135  0.512292  0.945618  0.868511  -0.170391
    C   C136  0.948071  0.487710  0.868619  -0.172908
    C   C137  0.991024  0.447269  0.631405  -0.173687
    C   C138  0.552073  0.990458  0.631395  -0.174239
    C   C139  0.010322  0.554490  0.631484  -0.173020
    C   C140  0.444850  0.009747  0.631495  -0.169370
    C   C141  0.987133  0.551624  0.368663  -0.169420
    C   C142  0.554070  0.012873  0.368557  -0.170840
    C   C143  0.012288  0.445622  0.368511  -0.169921
    C   C144  0.448069  0.987711  0.368619  -0.172966
    H   H33   0.482611  0.905077  0.142721  0.143520
    H   H34   0.094258  0.481989  0.142702  0.143768
    H   H35   0.518761  0.096597  0.142861  0.143077
    H   H36   0.902735  0.518122  0.142881  0.142395
    H   H37   0.476351  0.093303  0.857377  0.142162
    H   H38   0.095661  0.523611  0.857187  0.142380
    H   H39   0.522962  0.904056  0.857104  0.142596
    H   H40   0.906416  0.476989  0.857297  0.143088
    H   H41   0.982614  0.405078  0.642720  0.143525
    H   H42   0.594263  0.981987  0.642701  0.143798
    H   H43   0.018764  0.596598  0.642861  0.143056
    H   H44   0.402740  0.018120  0.642881  0.142333
    H   H45   0.976347  0.593307  0.357377  0.142200
    H   H46   0.595659  0.023612  0.357186  0.142328
    H   H47   0.022958  0.404061  0.357104  0.142473
    H   H48   0.406415  0.976990  0.357297  0.143115
    C   C145  0.491391  0.947247  0.102009  -0.069144
    C   C146  0.052092  0.490985  0.102001  -0.069731
    C   C147  0.509838  0.054728  0.102088  -0.067884
    C   C148  0.944609  0.509421  0.102098  -0.072350
    C   C149  0.487700  0.051614  0.898057  -0.073972
    C   C150  0.054306  0.512441  0.897952  -0.072871
    C   C151  0.512016  0.945306  0.897908  -0.073687
    C   C152  0.948000  0.488117  0.898015  -0.072873
    C   C153  0.991395  0.447249  0.602009  -0.068963
    C   C154  0.552096  0.990985  0.602001  -0.069615
    C   C155  0.009841  0.554731  0.602089  -0.067924
    C   C156  0.444613  0.009421  0.602098  -0.072490
    C   C157  0.987698  0.551618  0.398057  -0.074076
    C   C158  0.554306  0.012442  0.397952  -0.073072
    C   C159  0.012014  0.445310  0.397908  -0.074099
    C   C160  0.447999  0.988119  0.398015  -0.072740
    H   H49   0.483522  0.904775  0.090863  0.113892
    H   H50   0.094567  0.483173  0.090850  0.113976
    H   H51   0.517652  0.097285  0.091005  0.112988
    H   H52   0.902054  0.517284  0.091020  0.113920
    H   H53   0.477584  0.093572  0.909231  0.115943
    H   H54   0.096353  0.522609  0.909043  0.115561
    H   H55   0.522236  0.903231  0.908966  0.115692
    H   H56   0.906014  0.477945  0.909156  0.115936
    H   H57   0.983526  0.404777  0.590863  0.113863
    H   H58   0.594571  0.983173  0.590849  0.113941
    H   H59   0.017655  0.597287  0.591005  0.112984
    H   H60   0.402058  0.017284  0.591021  0.113968
    H   H61   0.977582  0.593577  0.409232  0.115992
    H   H62   0.596353  0.022611  0.409043  0.115610
    H   H63   0.022234  0.403236  0.408966  0.115778
    H   H64   0.406014  0.977947  0.409157  0.115886
    C   C161  0.500579  0.001044  0.087190  0.038162
    C   C162  0.998296  0.500244  0.087190  0.042250
    C   C163  0.499933  0.998382  0.912841  0.038055
    C   C164  0.001194  0.500276  0.912842  0.037400
    C   C165  0.000582  0.501047  0.587190  0.038113
    C   C166  0.498300  0.000244  0.587190  0.042321
    C   C167  0.999931  0.498386  0.412841  0.038255
    C   C168  0.501194  0.000278  0.412842  0.037510
    C   C169  0.500689  0.000825  0.146294  0.184935
    C   C170  0.998511  0.500047  0.146295  0.183234
    C   C171  0.499644  0.998701  0.853737  0.185364
    C   C172  0.001029  0.500300  0.853738  0.188658
    C   C173  0.000692  0.500826  0.646294  0.184885
    C   C174  0.498516  0.000044  0.646295  0.183172
    C   C175  0.999640  0.498705  0.353737  0.185211
    C   C176  0.501027  0.000301  0.353738  0.188565
    C   C177  0.187888  0.091670  0.966159  0.373153
    C   C178  0.219484  0.153221  0.968706  -0.414123
    C   C179  0.186747  0.072456  0.935049  -0.309650
    H   H65   0.140589  0.099664  0.973477  0.008078
    H   H66   0.258778  0.156424  0.953874  0.089511
    H   H67   0.235273  0.160392  0.990900  0.084885
    H   H68   0.186485  0.189601  0.962952  0.093940
    H   H69   0.233951  0.067165  0.926844  0.057770
    H   H70   0.162555  0.107650  0.922335  0.070989
    H   H71   0.162597  0.028236  0.932841  0.057594
    C   C180  0.907677  0.187970  0.966103  0.367679
    C   C181  0.846025  0.219085  0.969297  -0.414102
    C   C182  0.925851  0.187669  0.934854  -0.303501
    H   H72   0.900235  0.140445  0.973219  0.010720
    H   H73   0.842049  0.258756  0.954728  0.089336
    H   H74   0.839563  0.234222  0.991640  0.085080
    H   H75   0.809654  0.185995  0.963641  0.094090
    H   H76   0.930521  0.235080  0.926830  0.055273
    H   H77   0.890415  0.163488  0.922283  0.070735
    H   H78   0.970162  0.163877  0.932222  0.055245
    C   C183  0.812735  0.909169  0.965292  0.368238
    C   C184  0.782029  0.847241  0.968142  -0.416306
    C   C185  0.812573  0.928412  0.934187  -0.311518
    H   H79   0.860426  0.901855  0.972197  0.011814
    H   H80   0.742361  0.843430  0.953561  0.089909
    H   H81   0.766915  0.840154  0.990446  0.085831
    H   H82   0.815349  0.811205  0.962311  0.095278
    H   H83   0.765055  0.933208  0.926319  0.058606
    H   H84   0.836717  0.893499  0.921286  0.072036
    H   H85   0.836219  0.972881  0.931845  0.057313
    C   C186  0.090089  0.812831  0.965387  0.371018
    C   C187  0.151891  0.781624  0.967605  -0.416061
    C   C188  0.069854  0.813537  0.934419  -0.313404
    H   H86   0.097967  0.860293  0.972507  0.009549
    H   H87   0.154927  0.742327  0.952767  0.089817
    H   H88   0.159665  0.765866  0.989759  0.086153
    H   H89   0.187950  0.814842  0.961682  0.095366
    H   H90   0.064435  0.766228  0.926365  0.060037
    H   H91   0.104543  0.837696  0.921393  0.071379
    H   H92   0.025496  0.837554  0.932490  0.058385
    C   C189  0.188571  0.908948  0.033948  0.363663
    C   C190  0.220090  0.847499  0.030764  -0.408034
    C   C191  0.188155  0.927144  0.065193  -0.305599
    H   H93   0.141095  0.901187  0.026834  0.013077
    H   H94   0.259782  0.843792  0.045336  0.087368
    H   H95   0.235277  0.841123  0.008423  0.083879
    H   H96   0.187238  0.810915  0.036423  0.092857
    H   H97   0.235536  0.932130  0.073216  0.056234
    H   H98   0.164208  0.891560  0.077771  0.071499
    H   H99   0.164075  0.971301  0.067819  0.056614
    C   C192  0.910480  0.812115  0.034812  0.366030
    C   C193  0.848764  0.780976  0.031983  -0.405032
    C   C194  0.929767  0.812099  0.065911  -0.313195
    H   H100  0.902822  0.859751  0.027905  0.012384
    H   H101  0.845251  0.741289  0.046570  0.086146
    H   H102  0.841750  0.765800  0.009684  0.083359
    H   H103  0.812504  0.814045  0.037822  0.092441
    H   H104  0.934911  0.764618  0.073780  0.058957
    H   H105  0.894702  0.835999  0.078821  0.072684
    H   H106  0.974071  0.836060  0.068238  0.058256
    C   C195  0.812212  0.088845  0.034679  0.374614
    C   C196  0.780581  0.150429  0.032449  -0.408117
    C   C197  0.813058  0.068640  0.065650  -0.314862
    H   H107  0.859618  0.097042  0.027558  0.007387
    H   H108  0.741258  0.153206  0.047284  0.086948
    H   H109  0.764781  0.158081  0.010293  0.084023
    H   H110  0.813549  0.186719  0.038371  0.093062
    H   H111  0.765788  0.062900  0.073705  0.059906
    H   H112  0.836976  0.103506  0.078670  0.071810
    H   H113  0.837382  0.024452  0.067587  0.059339
    C   C198  0.090466  0.188488  0.033852  0.369124
    C   C199  0.151809  0.220478  0.031280  -0.406008
    C   C200  0.071308  0.187238  0.064968  -0.307585
    H   H114  0.098753  0.141238  0.026536  0.008488
    H   H115  0.154782  0.259801  0.046106  0.086449
    H   H116  0.158846  0.236297  0.009082  0.083623
    H   H117  0.188409  0.187716  0.037027  0.092454
    H   H118  0.065729  0.234411  0.073171  0.057480
    H   H119  0.106675  0.163276  0.077672  0.070659
    H   H120  0.027246  0.162808  0.067193  0.057646
    C   C201  0.687890  0.591673  0.466158  0.373194
    C   C202  0.719486  0.653224  0.468706  -0.414099
    C   C203  0.686750  0.572460  0.435049  -0.309658
    H   H121  0.640590  0.599667  0.473477  0.008042
    H   H122  0.758780  0.656427  0.453874  0.089502
    H   H123  0.735274  0.660395  0.490900  0.084909
    H   H124  0.686486  0.689604  0.462953  0.093919
    H   H125  0.733955  0.567168  0.426844  0.057792
    H   H126  0.662559  0.607653  0.422335  0.071000
    H   H127  0.662600  0.528239  0.432840  0.057547
    C   C204  0.407680  0.687973  0.466102  0.367652
    C   C205  0.346027  0.719087  0.469296  -0.414177
    C   C206  0.425854  0.687672  0.434854  -0.303515
    H   H128  0.400237  0.640447  0.473218  0.010729
    H   H129  0.342051  0.758759  0.454727  0.089352
    H   H130  0.339565  0.734224  0.491639  0.085122
    H   H131  0.309657  0.685997  0.463640  0.094109
    H   H132  0.430525  0.735084  0.426830  0.055283
    H   H133  0.390418  0.663493  0.422282  0.070740
    H   H134  0.470165  0.663880  0.432222  0.055241
    C   C207  0.312737  0.409172  0.465292  0.368128
    C   C208  0.282031  0.347244  0.468142  -0.416234
    C   C209  0.312577  0.428415  0.434187  -0.311623
    H   H135  0.360427  0.401857  0.472198  0.011835
    H   H136  0.242363  0.343434  0.453561  0.089905
    H   H137  0.266915  0.340156  0.490446  0.085789
    H   H138  0.315350  0.311208  0.462311  0.095268
    H   H139  0.265059  0.433212  0.426318  0.058616
    H   H140  0.336722  0.393502  0.421287  0.072083
    H   H141  0.336223  0.472884  0.431846  0.057341
    C   C210  0.590092  0.312834  0.465388  0.370633
    C   C211  0.651893  0.281626  0.467606  -0.415965
    C   C212  0.569857  0.313540  0.434420  -0.313395
    H   H142  0.597970  0.360295  0.472507  0.009709
    H   H143  0.654930  0.242329  0.452768  0.089814
    H   H144  0.659667  0.265869  0.489760  0.086152
    H   H145  0.687952  0.314844  0.461683  0.095348
    H   H146  0.564439  0.266231  0.426365  0.060057
    H   H147  0.604546  0.337699  0.421394  0.071397
    H   H148  0.525500  0.337557  0.432490  0.058383
    C   C213  0.688572  0.408952  0.533948  0.363710
    C   C214  0.720091  0.347502  0.530765  -0.408082
    C   C215  0.688155  0.427148  0.565193  -0.305881
    H   H149  0.641096  0.401190  0.526834  0.013050
    H   H150  0.759783  0.343796  0.545337  0.087384
    H   H151  0.735279  0.341126  0.508424  0.083864
    H   H152  0.687239  0.310919  0.536423  0.092875
    H   H153  0.735535  0.432135  0.573216  0.056298
    H   H154  0.664208  0.391565  0.577771  0.071606
    H   H155  0.664075  0.471305  0.567819  0.056689
    C   C216  0.410481  0.312118  0.534811  0.365998
    C   C217  0.348765  0.280978  0.531983  -0.405119
    C   C218  0.429768  0.312103  0.565911  -0.313231
    H   H156  0.402823  0.359754  0.527904  0.012411
    H   H157  0.345252  0.241292  0.546570  0.086207
    H   H158  0.341752  0.265802  0.509683  0.083369
    H   H159  0.312505  0.314048  0.537822  0.092450
    H   H160  0.434912  0.264622  0.573780  0.058961
    H   H161  0.394702  0.336003  0.578821  0.072705
    H   H162  0.474071  0.336065  0.568237  0.058259
    C   C219  0.312212  0.588849  0.534679  0.375037
    C   C220  0.280583  0.650433  0.532449  -0.408294
    C   C221  0.313057  0.568644  0.565650  -0.314709
    H   H163  0.359619  0.597045  0.527558  0.007242
    H   H164  0.241259  0.653210  0.547283  0.087005
    H   H165  0.264783  0.658084  0.510292  0.084030
    H   H166  0.313550  0.686723  0.538370  0.093071
    H   H167  0.265787  0.562905  0.573705  0.059893
    H   H168  0.336975  0.603511  0.578670  0.071705
    H   H169  0.337382  0.524457  0.567587  0.059263
    C   C222  0.590467  0.688491  0.533852  0.369287
    C   C223  0.651810  0.720480  0.531281  -0.406181
    C   C224  0.571308  0.687242  0.564968  -0.307616
    H   H170  0.598753  0.641240  0.526537  0.008466
    H   H171  0.654783  0.759804  0.546106  0.086500
    H   H172  0.658846  0.736299  0.509082  0.083653
    H   H173  0.688410  0.687719  0.537027  0.092466
    H   H174  0.565728  0.734415  0.573171  0.057484
    H   H175  0.606674  0.663281  0.577673  0.070661
    H   H176  0.527246  0.662812  0.567194  0.057647
