data_DB0-m2_o11_o29_f0_pcu.sym.85_repeat
_audit_creation_date              2024-02-23
_audit_creation_method            'Materials Studio'
_symmetry_space_group_name_H-M    'P1'
_symmetry_Int_Tables_number       1
_symmetry_cell_setting            triclinic
loop_
_symmetry_equiv_pos_as_xyz
  x,y,z
_cell_length_a                    27.5140
_cell_length_b                    11.0565
_cell_length_c                    9.5407
_cell_angle_alpha                 90.0206
_cell_angle_beta                  90.0156
_cell_angle_gamma                 89.9937
loop_
_atom_site_label
_atom_site_type_symbol
_atom_site_fract_x
_atom_site_fract_y
_atom_site_fract_z
_atom_site_U_iso_or_equiv
_atom_site_adp_type
_atom_site_occupancy
O1     O     0.49895   0.32297   0.62151   0.00000  Uiso   1.00
O2     O     0.49830   0.31987   0.37970   0.00000  Uiso   1.00
C1     C     0.49863   0.26499   0.50160   0.00000  Uiso   1.00
O3     O     0.42736   0.50461   0.61257   0.00000  Uiso   1.00
O4     O     0.42919   0.49061   0.37169   0.00000  Uiso   1.00
C2     C     0.40550   0.49775   0.49074   0.00000  Uiso   1.00
Cu1    Cu    0.49776   0.49901   0.63769   0.00000  Uiso   1.00
Cu2    Cu    0.49998   0.49538   0.35733   0.00000  Uiso   1.00
O5     O     0.50020   0.67435   0.61435   0.00000  Uiso   1.00
O6     O     0.49782   0.67132   0.37422   0.00000  Uiso   1.00
O7     O     0.56856   0.50144   0.62321   0.00000  Uiso   1.00
O8     O     0.57039   0.49205   0.38268   0.00000  Uiso   1.00
C3     C     0.49936   0.72984   0.49330   0.00000  Uiso   1.00
C4     C     0.59227   0.49660   0.50434   0.00000  Uiso   1.00
C5     C     0.17551   0.39247   0.47177   0.00000  Uiso   1.00
O9     O     0.20045   0.28857   0.45878   0.00000  Uiso   1.00
N1     N     0.19983   0.49753   0.48461   0.00000  Uiso   1.00
C6     C     0.17565   0.60256   0.49959   0.00000  Uiso   1.00
C7     C     0.27640   0.53230   0.60448   0.00000  Uiso   1.00
C8     C     0.32647   0.53137   0.60649   0.00000  Uiso   1.00
C9     C     0.32735   0.46437   0.36840   0.00000  Uiso   1.00
C10    C     0.27719   0.46284   0.36769   0.00000  Uiso   1.00
C11    C     0.25162   0.49746   0.48547   0.00000  Uiso   1.00
C12    C     0.09975   0.49748   0.49010   0.00000  Uiso   1.00
C13    C     0.12522   0.39100   0.47601   0.00000  Uiso   1.00
C14    C     0.10032   0.28361   0.46566   0.00000  Uiso   1.00
C15    C     0.12537   0.60400   0.50081   0.00000  Uiso   1.00
C16    C     0.35223   0.49799   0.48819   0.00000  Uiso   1.00
H1     H     0.34671   0.43736   0.27495   0.00000  Uiso   1.00
H2     H     0.25799   0.43605   0.27382   0.00000  Uiso   1.00
H3     H     0.11924   0.19883   0.45157   0.00000  Uiso   1.00
C17    C     0.64552   0.49683   0.50684   0.00000  Uiso   1.00
C18    C     0.97351   0.38862   0.50602   0.00000  Uiso   1.00
C19    C     0.97337   0.60622   0.49326   0.00000  Uiso   1.00
C20    C     0.94839   0.49741   0.50157   0.00000  Uiso   1.00
C21    C     0.94720   0.28236   0.52608   0.00000  Uiso   1.00
C22    C     0.89737   0.28398   0.53441   0.00000  Uiso   1.00
C23    C     0.87244   0.39113   0.52174   0.00000  Uiso   1.00
C24    C     0.89786   0.49741   0.50523   0.00000  Uiso   1.00
C25    C     0.87219   0.60367   0.49203   0.00000  Uiso   1.00
C26    C     0.82192   0.60208   0.49302   0.00000  Uiso   1.00
N2     N     0.79783   0.49732   0.51072   0.00000  Uiso   1.00
C27    C     0.82216   0.39260   0.52616   0.00000  Uiso   1.00
C28    C     0.72055   0.46993   0.63015   0.00000  Uiso   1.00
C29    C     0.67039   0.47133   0.62928   0.00000  Uiso   1.00
C30    C     0.67128   0.52244   0.38601   0.00000  Uiso   1.00
C31    C     0.72135   0.52402   0.38811   0.00000  Uiso   1.00
C32    C     0.74608   0.49704   0.50979   0.00000  Uiso   1.00
O10    O     0.79722   0.28906   0.54215   0.00000  Uiso   1.00
C33    C     0.02414   0.38855   0.49168   0.00000  Uiso   1.00
C34    C     0.04922   0.49745   0.49378   0.00000  Uiso   1.00
C35    C     0.02418   0.60632   0.49976   0.00000  Uiso   1.00
C36    C     0.05049   0.28204   0.47391   0.00000  Uiso   1.00
H4     H     0.65100   0.45041   0.72472   0.00000  Uiso   1.00
H5     H     0.73980   0.44920   0.72597   0.00000  Uiso   1.00
H6     H     0.87847   0.19944   0.55032   0.00000  Uiso   1.00
H7     H     0.96391   0.19544   0.54110   0.00000  Uiso   1.00
H8     H     0.03381   0.19487   0.46070   0.00000  Uiso   1.00
O11    O     0.20070   0.70643   0.51079   0.00000  Uiso   1.00
C37    C     0.10066   0.71137   0.51455   0.00000  Uiso   1.00
H9     H     0.34506   0.55855   0.70119   0.00000  Uiso   1.00
H10    H     0.25658   0.55885   0.69736   0.00000  Uiso   1.00
H11    H     0.11977   0.79615   0.52613   0.00000  Uiso   1.00
C38    C     0.94673   0.71249   0.47720   0.00000  Uiso   1.00
C39    C     0.89685   0.71084   0.47600   0.00000  Uiso   1.00
O12    O     0.79675   0.70549   0.47862   0.00000  Uiso   1.00
C40    C     0.05077   0.71288   0.51352   0.00000  Uiso   1.00
H12    H     0.96313   0.79942   0.45967   0.00000  Uiso   1.00
H13    H     0.65267   0.54332   0.28924   0.00000  Uiso   1.00
H14    H     0.87769   0.79535   0.46259   0.00000  Uiso   1.00
H15    H     0.74122   0.54483   0.29341   0.00000  Uiso   1.00
H16    H     0.03434   0.80004   0.52932   0.00000  Uiso   1.00
C41    C     0.50047   0.93340   0.38062   0.00000  Uiso   1.00
C42    C     0.49952   0.86295   0.49577   0.00000  Uiso   1.00
H17    H     0.49808   0.90194   0.59923   0.00000  Uiso   1.00
C43    C     0.49860   0.06718   0.38766   0.00000  Uiso   1.00
C44    C     0.49917   0.13255   0.50592   0.00000  Uiso   1.00
H18    H     0.49765   0.11413   0.28808   0.00000  Uiso   1.00
H19    H     0.50076   0.09178   0.60851   0.00000  Uiso   1.00
C45    C     0.47738   0.41598   0.92062   0.00000  Uiso   1.00
N3     N     0.49558   0.50255   0.84737   0.00000  Uiso   1.00
H20    H     0.46342   0.33596   0.86896   0.00000  Uiso   1.00
H21    H     0.50030   0.58361   0.89833   0.00000  Uiso   1.00
C46    C     0.47255   0.42557   0.07504   0.00000  Uiso   1.00
N4     N     0.50157   0.49183   0.14765   0.00000  Uiso   1.00
H22    H     0.44487   0.37255   0.12752   0.00000  Uiso   1.00
H23    H     0.53195   0.52298   0.09646   0.00000  Uiso   1.00
N5     N     0.50235   0.88109   0.24549   0.00000  Uiso   1.00
C47    C     0.54786   0.85340   0.20353   0.00000  Uiso   1.00
O13    O     0.58035   0.84353   0.28970   0.00000  Uiso   1.00
C48    C     0.55888   0.83509   0.05181   0.00000  Uiso   1.00
H24    H     0.48169   0.92267   0.16960   0.00000  Uiso   1.00
H25    H     0.52540   0.84301   0.98776   0.00000  Uiso   1.00
H26    H     0.57465   0.74372   0.03655   0.00000  Uiso   1.00
H27    H     0.58555   0.90405   0.01707   0.00000  Uiso   1.00
