# Generated by REPEAT Assigner based on pymatgen
data_DB0-m3_o6_o17_f0_pcu.sym.106_sqe
_audit_creation_date              2022-05-24
_audit_creation_method            REPEAT_Assigner
_cell_length_a                    16.129829
_cell_length_b                    14.982204
_cell_length_c                    15.089068
_cell_angle_alpha                 90.000000
_cell_angle_beta                  89.999812
_cell_angle_gamma                 90.000000
_cell_volume                      3646.429970
_symmetry_space_group_name_H-M    P1
_symmetry_Int_Tables_number       1
loop_
    _symmetry_equiv_pos_site_id
    _symmetry_equiv_pos_as_xyz
    1  x,y,z
loop_
    _atom_site_type_symbol
    _atom_site_label
    _atom_site_fract_x
    _atom_site_fract_y
    _atom_site_fract_z
    _atom_type_partial_charge
    O   O1    0.375911  0.577552  0.502770  -0.619251
    O   O2    0.623368  0.425573  0.497980  -0.630164
    O   O3    0.622895  0.579759  0.497843  -0.617046
    O   O4    0.376368  0.423385  0.502907  -0.629154
    C   C1    0.337659  0.500294  0.503699  0.804116
    C   C2    0.661604  0.502861  0.497052  0.785789
    O   O5    0.497492  0.578335  0.368246  -0.645550
    O   O6    0.501803  0.424785  0.632423  -0.654231
    O   O7    0.502052  0.578845  0.632275  -0.656513
    O   O8    0.497240  0.424295  0.368398  -0.664285
    C   C3    0.496682  0.501270  0.326852  0.705737
    C   C4    0.502659  0.501852  0.673818  0.730547
    Zn  Zn1   0.499233  0.603152  0.500222  1.053236
    Zn  Zn2   0.500036  0.399980  0.500447  1.076493
    C   C5    0.524063  0.578265  0.817218  -0.239576
    C   C6    0.475605  0.424837  0.183428  -0.282596
    C   C7    0.503488  0.501790  0.771004  -0.014520
    C   C8    0.496194  0.501287  0.229671  0.028806
    C   C9    0.482879  0.425326  0.816813  -0.248562
    C   C10   0.517295  0.577622  0.183893  -0.259081
    C   C11   0.480700  0.425850  0.908074  0.225209
    C   C12   0.519373  0.577172  0.092621  0.261437
    C   C13   0.501138  0.501956  0.954513  -0.032065
    C   C14   0.498526  0.501234  0.046161  -0.076631
    C   C15   0.524593  0.578323  0.909251  0.147633
    C   C16   0.475282  0.424803  0.091408  0.182651
    C   C17   0.457006  0.349903  0.952725  -0.280272
    C   C18   0.543884  0.652833  0.048005  -0.273709
    C   C19   0.452935  0.349107  0.043824  -0.091680
    C   C20   0.547103  0.654001  0.956788  -0.086248
    H   H1    0.539728  0.637557  0.780329  0.129282
    H   H2    0.459223  0.365711  0.220240  0.141727
    H   H3    0.466049  0.365212  0.781595  0.140127
    H   H4    0.534420  0.637613  0.219157  0.130292
    H   H5    0.440005  0.290549  0.916286  0.133784
    H   H6    0.562418  0.711565  0.084587  0.125428
    C   C21   0.958107  0.581184  0.485958  -0.076892
    C   C22   0.041041  0.424340  0.525925  -0.116029
    C   C23   0.043903  0.579891  0.488985  -0.163133
    C   C24   0.955244  0.425583  0.522747  -0.067803
    C   C25   0.914160  0.503735  0.502213  0.051389
    C   C26   0.085034  0.501389  0.508045  0.105692
    C   C27   0.825193  0.503984  0.498459  -0.015662
    C   C28   0.174067  0.499986  0.507148  -0.019667
    C   C29   0.248757  0.499874  0.505745  -0.247926
    C   C30   0.750511  0.503472  0.497057  -0.236458
    H   H7    0.415289  0.084204  0.608507  0.158686
    H   H8    0.583658  0.918925  0.391870  0.144911
    H   H9    0.585231  0.083126  0.392398  0.176079
    H   H10   0.413678  0.920000  0.607943  0.168577
    C   C31   0.451361  0.955844  0.560587  -0.147778
    C   C32   0.547549  0.047284  0.439756  -0.179558
    C   C33   0.546690  0.955273  0.439467  -0.107639
    C   C34   0.452238  0.047856  0.560891  -0.141573
    C   C35   0.498655  0.909574  0.499906  0.220662
    C   C36   0.500316  0.093555  0.500491  0.235450
    C   C37   0.498302  0.813842  0.499935  0.070991
    C   C38   0.500825  0.189288  0.500605  0.061138
    N   N1    0.500999  0.266502  0.500661  -0.133513
    N   N2    0.498251  0.736630  0.499991  -0.133461
    C   C39   0.424834  0.267112  0.086968  0.299283
    C   C40   0.345044  0.260576  0.119808  -0.067675
    Cl  Cl1   0.276423  0.350884  0.111593  -0.055908
    C   C41   0.318403  0.181883  0.157667  -0.062981
    C   C42   0.370960  0.109480  0.162107  0.047475
    Cl  Cl2   0.336658  0.009348  0.209332  -0.102224
    C   C43   0.450167  0.115573  0.128371  -0.089094
    C   C44   0.476921  0.194167  0.090439  -0.251147
    H   H11   0.255990  0.176737  0.183245  0.098833
    H   H12   0.491178  0.058590  0.131285  0.105195
    H   H13   0.538893  0.198679  0.063558  0.140089
    C   C45   0.580139  0.733893  0.913550  0.306094
    C   C46   0.535198  0.812439  0.912543  -0.062359
    Cl  Cl3   0.434943  0.816557  0.957112  -0.064665
    C   C47   0.568650  0.888064  0.874632  -0.069535
    C   C48   0.647026  0.885665  0.838281  0.030045
    Cl  Cl4   0.689650  0.982028  0.791086  -0.112539
    C   C49   0.692007  0.807494  0.839456  0.003127
    C   C50   0.658723  0.731823  0.877262  -0.327503
    H   H14   0.533375  0.949396  0.873531  0.091606
    H   H15   0.753556  0.805638  0.811171  0.080223
    H   H16   0.694498  0.670838  0.879002  0.178664
    C   C51   0.092053  0.660910  0.471976  0.432181
    C   C52   0.121430  0.711733  0.541725  -0.122743
    Cl  Cl5   0.101111  0.680524  0.651469  -0.031874
    C   C53   0.168386  0.786814  0.525262  -0.114630
    C   C54   0.186696  0.811023  0.439370  0.062259
    Cl  Cl6   0.246891  0.906060  0.418898  -0.074389
    C   C55   0.158435  0.759815  0.369762  -0.124594
    C   C56   0.111535  0.684653  0.386055  -0.292295
    H   H17   0.191328  0.826470  0.579856  0.126527
    H   H18   0.173414  0.778322  0.302400  0.151584
    H   H19   0.090397  0.643992  0.331390  0.158963
    C   C57   0.907154  0.344150  0.537827  0.342486
    C   C58   0.872038  0.327024  0.619669  -0.104860
    Cl  Cl7   0.885317  0.401863  0.707714  -0.042346
    C   C59   0.824672  0.251379  0.631965  -0.060672
    C   C60   0.811747  0.193094  0.562636  0.045142
    Cl  Cl8   0.750751  0.097678  0.578030  -0.060490
    C   C61   0.845929  0.210565  0.480785  -0.159556
    C   C62   0.893174  0.286165  0.468311  -0.217033
    H   H20   0.797096  0.238127  0.695914  0.112651
    H   H21   0.835210  0.165292  0.426196  0.143994
    H   H22   0.918870  0.300370  0.403692  0.127134
    C   C63   0.913849  0.663068  0.462213  0.336112
    C   C64   0.878261  0.716209  0.526793  -0.144556
    Cl  Cl9   0.883591  0.685921  0.638784  0.004022
    C   C65   0.837887  0.793809  0.503194  -0.051299
    C   C66   0.832485  0.818290  0.415324  0.062731
    Cl  Cl10  0.782137  0.917416  0.385638  -0.115729
    C   C67   0.866552  0.764579  0.350784  -0.075929
    C   C68   0.906832  0.686964  0.374172  -0.283523
    H   H23   0.810527  0.835606  0.553738  0.094975
    H   H24   0.861812  0.783383  0.281809  0.109234
    H   H25   0.933209  0.644830  0.323341  0.155352
    C   C69   0.085409  0.341932  0.547507  0.352970
    C   C70   0.115594  0.327811  0.632138  -0.147183
    Cl  Cl11  0.103255  0.409060  0.714610  -0.009281
    C   C71   0.155872  0.249203  0.652265  -0.003172
    C   C72   0.166584  0.184806  0.588062  0.025126
    Cl  Cl12  0.216689  0.084532  0.614214  -0.109859
    C   C73   0.137970  0.199456  0.503249  -0.030104
    C   C74   0.097753  0.278021  0.482927  -0.325412
    H   H26   0.178919  0.237984  0.718601  0.074357
    H   H27   0.146899  0.149246  0.452700  0.097393
    H   H28   0.075634  0.289398  0.416285  0.163693
