# Generated by REPEAT Assigner based on pymatgen
data_DB0-m29_o89_o52_f0_pts.sym.42
_audit_creation_date              2022-05-24
_audit_creation_method            REPEAT_Assigner
_cell_length_a                    14.186262
_cell_length_b                    9.507868
_cell_length_c                    19.763224
_cell_angle_alpha                 85.684824
_cell_angle_beta                  90.406040
_cell_angle_gamma                 109.744309
_cell_volume                      2501.379300
_symmetry_space_group_name_H-M    P1
_symmetry_Int_Tables_number       1
loop_
    _symmetry_equiv_pos_site_id
    _symmetry_equiv_pos_as_xyz
    1  x,y,z
loop_
    _atom_site_type_symbol
    _atom_site_label
    _atom_site_fract_x
    _atom_site_fract_y
    _atom_site_fract_z
    _atom_type_partial_charge
    C   C1   0.834781  0.989186  0.079027  -0.244871
    C   C2   0.747253  0.992845  0.049079  0.095465
    C   C3   0.742135  0.004700  0.978790  0.074110
    C   C4   0.825488  0.016119  0.939569  -0.445822
    C   C5   0.912152  0.006940  0.970336  0.298215
    C   C6   0.916423  0.991259  0.040361  0.170797
    C   C7   0.993303  0.007084  0.931711  -0.425815
    C   C8   0.078291  0.995856  0.962219  0.247980
    C   C9   0.083563  0.980935  0.031797  0.119590
    C   C10  0.002232  0.978361  0.071308  -0.225092
    C   C11  0.158121  0.999373  0.921986  -0.168073
    C   C12  0.245803  0.992741  0.950410  -0.018234
    C   C13  0.252090  0.978834  0.020616  0.025330
    C   C14  0.170231  0.968259  0.060699  -0.222650
    H   H1   0.837746  0.985014  0.133528  0.159192
    H   H2   0.992380  0.013944  0.877082  0.213869
    H   H3   0.151769  0.009392  0.867478  0.146202
    H   H4   0.178670  0.957839  0.114901  0.167102
    N   N1   0.067538  0.062798  0.183570  -0.245574
    C   C15  0.051176  0.006119  0.248557  -0.064752
    C   C16  0.979133  0.865167  0.251848  -0.205403
    C   C17  0.950723  0.835389  0.186048  -0.166220
    C   C18  0.006630  0.959579  0.145416  0.282430
    H   H5   0.117884  0.167234  0.166107  0.312368
    H   H6   0.089480  0.063944  0.291182  0.142079
    H   H7   0.950604  0.792253  0.297162  0.161259
    H   H8   0.895759  0.734691  0.169634  0.135121
    O   O1   0.586544  0.022438  0.072016  -0.510611
    C   C19  0.662514  0.983679  0.094005  0.526432
    O   O2   0.463343  0.706678  0.133494  -0.397737
    O   O3   0.664517  0.941077  0.158530  -0.550840
    O   O4   0.478065  0.839186  0.224735  -0.428446
    C   C20  0.472694  0.713439  0.199331  0.357838
    Fe  Fe1  0.488530  0.988970  0.147425  1.454495
    O   O5   0.351582  0.909048  0.108098  -0.629384
    O   O6   0.426261  0.112644  0.035662  -0.373339
    C   C21  0.347341  0.996054  0.054078  0.661532
    O   O7   0.533709  0.191052  0.184739  -0.616184
    O   O8   0.406688  0.064537  0.259119  -0.549167
    C   C22  0.473943  0.190714  0.235187  0.552510
    O   O9   0.466006  0.798310  0.815548  -0.626044
    O   O10  0.581079  0.924960  0.733299  -0.477612
    C   C23  0.519307  0.798326  0.761473  0.627060
    O   O11  0.641379  0.084232  0.894756  -0.596600
    O   O12  0.569261  0.868651  0.960608  -0.453750
    C   C24  0.647022  0.989349  0.945325  0.592289
    O   O13  0.325450  0.040390  0.840019  -0.532376
    O   O14  0.517508  0.150388  0.775521  -0.521860
    C   C25  0.512628  0.274554  0.798346  0.578281
    O   O15  0.405323  0.962717  0.926754  -0.521827
    C   C26  0.329037  0.000388  0.904710  0.572151
    O   O16  0.506718  0.282849  0.864079  -0.507006
    Fe  Fe2  0.506425  0.000437  0.852960  1.461104
    H   H9   0.510544  0.542997  0.831658  0.131062
    C   C27  0.511415  0.402485  0.751678  -0.027804
    C   C28  0.510120  0.393029  0.682075  0.087709
    H   H10  0.508229  0.289715  0.661851  0.053240
    C   C29  0.510228  0.514861  0.638684  -0.389118
    C   C30  0.515114  0.647630  0.665171  0.018101
    H   H11  0.517060  0.744707  0.632334  0.039899
    C   C31  0.513425  0.656468  0.734293  0.032162
    C   C32  0.510110  0.533521  0.777510  -0.060912
    N   N2   0.501733  0.622236  0.523732  -0.224390
    N   N3   0.493371  0.612095  0.457466  -0.259747
    C   C33  0.485823  0.482773  0.430839  0.756886
    N   N4   0.487328  0.364288  0.472104  -0.244482
    N   N5   0.495696  0.374430  0.538370  -0.256120
    C   C34  0.503248  0.503753  0.564993  0.762792
    C   C35  0.474178  0.339371  0.330668  -0.029473
    H   H12  0.472340  0.242191  0.363397  0.071361
    C   C36  0.476769  0.331239  0.261623  0.192575
    C   C37  0.480591  0.453634  0.217804  -0.414553
    C   C38  0.477894  0.584386  0.243855  0.217970
    C   C39  0.479191  0.593101  0.313643  0.009428
    H   H13  0.479942  0.695463  0.334248  0.060668
    C   C40  0.479074  0.471714  0.357131  -0.347300
    C   C41  0.484825  0.440007  0.144538  0.889403
    O   O17  0.417909  0.344184  0.117986  -0.586751
    O   O18  0.564792  0.529269  0.107185  -0.329117
    C   C42  0.571250  0.516496  0.038864  0.023639
    H   H14  0.641906  0.600579  0.017915  0.049886
    H   H15  0.506912  0.537112  0.013067  0.091869
    H   H16  0.571259  0.402718  0.029970  0.057216
    C   C43  0.818597  0.027868  0.865247  0.943908
    O   O19  0.753703  0.932375  0.836978  -0.561666
    O   O20  0.883252  0.145483  0.828308  -0.393502
    C   C44  0.877589  0.158966  0.758955  0.050393
    H   H17  0.937138  0.262649  0.738590  0.069142
    H   H18  0.803459  0.165659  0.744422  0.069825
    H   H19  0.888431  0.060987  0.737388  0.036290
