data_DB0-m18_o25_o101_f0_fsc_repeat
_audit_creation_date              2024-02-23
_audit_creation_method            'Materials Studio'
_symmetry_space_group_name_H-M    'P1'
_symmetry_Int_Tables_number       1
_symmetry_cell_setting            triclinic
loop_
_symmetry_equiv_pos_as_xyz
  x,y,z
_cell_length_a                    10.9896
_cell_length_b                    14.2485
_cell_length_c                    15.8357
_cell_angle_alpha                 95.8606
_cell_angle_beta                  90.0722
_cell_angle_gamma                 90.5075
loop_
_atom_site_label
_atom_site_type_symbol
_atom_site_fract_x
_atom_site_fract_y
_atom_site_fract_z
_atom_site_U_iso_or_equiv
_atom_site_adp_type
_atom_site_occupancy
O1     O     0.10977   0.08728   0.91032   0.00000  Uiso   1.00
O2     O     0.89023   0.91272   0.08967   0.00000  Uiso   1.00
O3     O     0.15494   0.93127   0.90871   0.00000  Uiso   1.00
O4     O     0.84506   0.06873   0.09129   0.00000  Uiso   1.00
C1     C     0.17402   0.01404   0.88114   0.00000  Uiso   1.00
C2     C     0.82598   0.98596   0.11886   0.00000  Uiso   1.00
Fe1    Fe    0.01907   0.89760   0.99415   0.00000  Uiso   1.00
Fe2    Fe    0.98093   0.10240   0.00585   0.00000  Uiso   1.00
O5     O     0.14601   0.93409   0.08758   0.00000  Uiso   1.00
O6     O     0.85399   0.06591   0.91242   0.00000  Uiso   1.00
O7     O     0.11164   0.09262   0.09778   0.00000  Uiso   1.00
O8     O     0.88836   0.90738   0.90222   0.00000  Uiso   1.00
C3     C     0.16996   0.01999   0.12237   0.00000  Uiso   1.00
C4     C     0.83004   0.98001   0.87763   0.00000  Uiso   1.00
C5     C     0.93944   0.48634   0.06991   0.00000  Uiso   1.00
C6     C     0.06056   0.51366   0.93009   0.00000  Uiso   1.00
C7     C     0.06158   0.53719   0.06710   0.00000  Uiso   1.00
C8     C     0.93842   0.46282   0.93290   0.00000  Uiso   1.00
H1     H     0.11364   0.56995   0.12268   0.00000  Uiso   1.00
H2     H     0.88636   0.43005   0.87732   0.00000  Uiso   1.00
H3     H     0.88848   0.47322   0.12802   0.00000  Uiso   1.00
H4     H     0.11153   0.52678   0.87198   0.00000  Uiso   1.00
H5     H     0.19684   0.42464   0.00328   0.00000  Uiso   1.00
H6     H     0.80316   0.57537   0.99672   0.00000  Uiso   1.00
N1     N     0.03228   0.77280   0.99012   0.00000  Uiso   1.00
N2     N     0.96772   0.22720   0.00988   0.00000  Uiso   1.00
C9     C     0.89249   0.53998   0.99834   0.00000  Uiso   1.00
C10    C     0.10751   0.46002   0.00165   0.00000  Uiso   1.00
C11    C     0.01448   0.58917   0.99559   0.00000  Uiso   1.00
C12    C     0.98552   0.41083   0.00441   0.00000  Uiso   1.00
C13    C     0.02715   0.69162   0.99169   0.00000  Uiso   1.00
C14    C     0.97285   0.30838   0.00831   0.00000  Uiso   1.00
C15    C     0.43983   0.00973   0.57834   0.00000  Uiso   1.00
C16    C     0.56017   0.99027   0.42166   0.00000  Uiso   1.00
C17    C     0.37897   0.01712   0.50202   0.00000  Uiso   1.00
C18    C     0.62103   0.98288   0.49798   0.00000  Uiso   1.00
H7     H     0.28192   0.01650   0.50216   0.00000  Uiso   1.00
H8     H     0.71808   0.98350   0.49784   0.00000  Uiso   1.00
C19    C     0.43841   0.01330   0.42419   0.00000  Uiso   1.00
C20    C     0.56159   0.98670   0.57581   0.00000  Uiso   1.00
C21    C     0.43864   0.00270   0.73028   0.00000  Uiso   1.00
C22    C     0.56136   0.99730   0.26972   0.00000  Uiso   1.00
C23    C     0.37033   0.99652   0.80388   0.00000  Uiso   1.00
C24    C     0.62967   0.00348   0.19612   0.00000  Uiso   1.00
H9     H     0.40750   0.96981   0.85967   0.00000  Uiso   1.00
H10    H     0.59250   0.03019   0.14033   0.00000  Uiso   1.00
C25    C     0.24982   0.02211   0.80660   0.00000  Uiso   1.00
C26    C     0.75018   0.97790   0.19339   0.00000  Uiso   1.00
C27    C     0.19862   0.05822   0.73821   0.00000  Uiso   1.00
C28    C     0.80138   0.94178   0.26179   0.00000  Uiso   1.00
H11    H     0.10583   0.08288   0.74121   0.00000  Uiso   1.00
H12    H     0.89417   0.91712   0.25879   0.00000  Uiso   1.00
C29    C     0.26133   0.05683   0.66343   0.00000  Uiso   1.00
C30    C     0.73867   0.94317   0.33657   0.00000  Uiso   1.00
H13    H     0.21462   0.08638   0.61269   0.00000  Uiso   1.00
H14    H     0.78538   0.91363   0.38732   0.00000  Uiso   1.00
C31    C     0.37922   0.02169   0.65645   0.00000  Uiso   1.00
C32    C     0.62078   0.97832   0.34354   0.00000  Uiso   1.00
C33    C     0.74255   0.93894   0.65098   0.00000  Uiso   1.00
C34    C     0.25745   0.06106   0.34902   0.00000  Uiso   1.00
H15    H     0.79048   0.91360   0.59408   0.00000  Uiso   1.00
H16    H     0.20952   0.08640   0.40592   0.00000  Uiso   1.00
C35    C     0.80584   0.93570   0.72550   0.00000  Uiso   1.00
C36    C     0.19416   0.06430   0.27450   0.00000  Uiso   1.00
H17    H     0.89993   0.91409   0.72349   0.00000  Uiso   1.00
H18    H     0.10007   0.08591   0.27651   0.00000  Uiso   1.00
C37    C     0.75345   0.96716   0.80144   0.00000  Uiso   1.00
C38    C     0.24655   0.03284   0.19856   0.00000  Uiso   1.00
C39    C     0.63198   0.99032   0.80352   0.00000  Uiso   1.00
C40    C     0.36802   0.00968   0.19648   0.00000  Uiso   1.00
C41    C     0.56369   0.98660   0.72865   0.00000  Uiso   1.00
C42    C     0.43631   0.01341   0.27134   0.00000  Uiso   1.00
C43    C     0.62326   0.97188   0.65111   0.00000  Uiso   1.00
C44    C     0.37674   0.02812   0.34889   0.00000  Uiso   1.00
H19    H     0.40558   0.98500   0.13544   0.00000  Uiso   1.00
H20    H     0.59442   0.01500   0.86456   0.00000  Uiso   1.00
