# Generated by REPEAT Assigner based on pymatgen
data_DB0-m29_o99_o151_f0_pts.sym.91
_audit_creation_date              2022-05-24
_audit_creation_method            REPEAT_Assigner
_cell_length_a                    15.774973
_cell_length_b                    9.298905
_cell_length_c                    24.720451
_cell_angle_alpha                 94.388325
_cell_angle_beta                  101.738419
_cell_angle_gamma                 97.092405
_cell_volume                      3503.908985
_symmetry_space_group_name_H-M    P1
_symmetry_Int_Tables_number       1
loop_
    _symmetry_equiv_pos_site_id
    _symmetry_equiv_pos_as_xyz
    1  x,y,z
loop_
    _atom_site_type_symbol
    _atom_site_label
    _atom_site_fract_x
    _atom_site_fract_y
    _atom_site_fract_z
    _atom_type_partial_charge
    C   C1   0.207892  0.967188  0.913349  -0.090657
    H   H1   0.212017  0.948499  0.870325  0.135178
    C   C2   0.126892  0.964202  0.926306  -0.205674
    H   H2   0.068342  0.940799  0.893773  0.149692
    C   C3   0.120690  0.993222  0.980610  0.306629
    C   C4   0.195197  0.021716  0.022052  -0.216204
    H   H3   0.187839  0.039469  0.064446  0.174163
    C   C5   0.277198  0.023396  0.009818  0.017194
    C   C6   0.283372  0.999368  0.954425  0.014110
    C   C7   0.036581  0.990727  0.994530  -0.146135
    C   C8   0.966169  0.988376  0.006554  -0.113472
    C   C9   0.807884  0.962149  0.978969  -0.197861
    H   H4   0.815586  0.947255  0.936561  0.161002
    C   C10  0.725825  0.962376  0.990927  0.005292
    C   C11  0.719283  0.984249  0.046307  -0.004687
    C   C12  0.794514  0.012109  0.087685  -0.153366
    H   H5   0.789798  0.029062  0.130660  0.127490
    C   C13  0.875644  0.009938  0.075248  0.077258
    C   C14  0.882126  0.984994  0.020678  0.209829
    O   O1   0.520643  0.171930  0.848754  -0.603338
    C   C15  0.477159  0.181816  0.798214  0.591973
    O   O2   0.426290  0.127943  0.956681  -0.458858
    O   O3   0.425472  0.068838  0.769094  -0.527365
    O   O4   0.378465  0.923414  0.896481  -0.579744
    C   C16  0.367120  0.013977  0.937007  0.584563
    Fe  Fe1  0.492536  0.982448  0.877071  1.387436
    O   O5   0.574693  0.986038  0.950854  -0.410440
    O   O6   0.661036  0.922106  0.893173  -0.496081
    C   C17  0.650145  0.951077  0.943881  0.521820
    O   O7   0.500360  0.842273  0.812983  -0.460999
    O   O8   0.499698  0.697999  0.882475  -0.428406
    C   C18  0.501921  0.712512  0.830374  0.485932
    O   O9   0.503140  0.145333  0.187789  -0.451159
    O   O10  0.510468  0.291896  0.119503  -0.433004
    C   C19  0.506002  0.276353  0.171211  0.475413
    O   O11  0.428692  0.002717  0.049744  -0.402766
    O   O12  0.342829  0.069029  0.107362  -0.499504
    C   C20  0.353377  0.038336  0.056677  0.513366
    O   O13  0.567479  0.919240  0.234012  -0.523287
    O   O14  0.624868  0.060696  0.104603  -0.578057
    C   C21  0.635313  0.971297  0.063451  0.609532
    O   O15  0.479988  0.815215  0.151752  -0.612590
    C   C22  0.518227  0.805944  0.203517  0.599361
    O   O16  0.575214  0.858998  0.043145  -0.462069
    Fe  Fe2  0.510233  0.004416  0.123680  1.381069
    H   H6   0.496466  0.438684  0.855312  0.159508
    C   C23  0.499326  0.582607  0.792009  0.085412
    C   C24  0.499074  0.592302  0.736370  -0.171498
    H   H7   0.508011  0.698696  0.722037  0.141757
    C   C25  0.489500  0.466672  0.699993  0.071872
    C   C26  0.478187  0.331936  0.720130  -0.207982
    H   H8   0.466441  0.232074  0.692768  0.144765
    C   C27  0.483719  0.322958  0.776046  0.106793
    C   C28  0.494914  0.447863  0.811845  -0.186485
    C   C29  0.466843  0.378582  0.432709  -0.128191
    H   H9   0.432604  0.282620  0.444960  0.104987
    C   C30  0.469084  0.386211  0.377494  -0.161015
    H   H10  0.434682  0.296237  0.347796  0.131238
    C   C31  0.511864  0.508795  0.360730  0.108699
    C   C32  0.551925  0.623425  0.400566  -0.163818
    H   H11  0.588989  0.718657  0.389957  0.128077
    C   C33  0.546622  0.617571  0.455346  -0.129298
    H   H12  0.577994  0.708185  0.485751  0.110341
    C   C34  0.504355  0.495080  0.471641  0.085011
    C   C35  0.515029  0.653733  0.280668  -0.208811
    H   H13  0.515198  0.752118  0.306854  0.140535
    C   C36  0.512437  0.663880  0.225097  0.106855
    C   C37  0.506624  0.539931  0.189541  -0.196196
    H   H14  0.505490  0.549783  0.146160  0.165556
    C   C38  0.506456  0.405385  0.209542  0.098932
    C   C39  0.509440  0.395082  0.265455  -0.190966
    H   H15  0.511632  0.289946  0.280975  0.149292
    C   C40  0.512453  0.519122  0.301395  0.086932
    C   C41  0.470314  0.598258  0.558361  -0.105752
    H   H16  0.448397  0.689030  0.537321  0.102016
    C   C42  0.465096  0.590507  0.613155  -0.197127
    H   H17  0.437646  0.675081  0.633266  0.143433
    C   C43  0.492643  0.474839  0.640889  0.135115
    C   C44  0.524423  0.366681  0.612206  -0.167211
    H   H18  0.550215  0.277803  0.632547  0.125187
    C   C45  0.526348  0.372052  0.556929  -0.124225
    H   H19  0.551545  0.286852  0.535387  0.110367
    C   C46  0.500043  0.488296  0.529935  0.075311
    C   C47  0.954245  0.038669  0.119898  -0.064062
    C   C48  0.011601  0.937010  0.131082  0.287198
    C   C49  0.993820  0.785499  0.102299  -0.415502
    C   C50  0.086670  0.973613  0.172161  -0.221909
    C   C51  0.104165  0.108198  0.202697  -0.072665
    C   C52  0.046286  0.207187  0.192606  -0.173231
    C   C53  0.971572  0.172320  0.151435  -0.102499
    H   H20  0.926894  0.757547  0.076445  0.109722
    H   H21  0.001165  0.707575  0.134168  0.105455
    H   H22  0.042351  0.771486  0.076263  0.118612
    H   H23  0.131651  0.895424  0.181040  0.129643
    H   H24  0.162908  0.135495  0.234930  0.108306
    H   H25  0.059713  0.312563  0.216728  0.123283
    H   H26  0.927115  0.251536  0.143139  0.115653
