# Generated by REPEAT Assigner based on pymatgen
data_DB0-m3_o20_o28_f0_pcu.sym.48
_audit_creation_date              2022-05-24
_audit_creation_method            REPEAT_Assigner
_cell_length_a                    23.517315
_cell_length_b                    14.535201
_cell_length_c                    13.386177
_cell_angle_alpha                 90.000000
_cell_angle_beta                  90.000000
_cell_angle_gamma                 90.000000
_cell_volume                      4575.782071
_symmetry_space_group_name_H-M    P1
_symmetry_Int_Tables_number       1
loop_
    _symmetry_equiv_pos_site_id
    _symmetry_equiv_pos_as_xyz
    1  x,y,z
loop_
    _atom_site_type_symbol
    _atom_site_label
    _atom_site_fract_x
    _atom_site_fract_y
    _atom_site_fract_z
    _atom_type_partial_charge
    O   O1   0.500299  0.363234  0.587770  -0.686428
    O   O2   0.499160  0.637194  0.414967  -0.662368
    O   O3   0.499798  0.637398  0.587515  -0.685199
    O   O4   0.500894  0.363056  0.415199  -0.664023
    C   C1   0.500784  0.320427  0.501524  0.986993
    C   C2   0.499299  0.680023  0.501171  0.984341
    O   O5   0.415323  0.500037  0.587647  -0.638323
    O   O6   0.584735  0.501579  0.415084  -0.593460
    O   O7   0.584779  0.500635  0.587485  -0.638661
    O   O8   0.415317  0.498584  0.415284  -0.591986
    C   C3   0.388610  0.499128  0.501461  0.594444
    C   C4   0.611451  0.501235  0.501249  0.596345
    Zn  Zn1  0.500060  0.500338  0.615037  1.114076
    Zn  Zn2  0.500015  0.500103  0.387699  1.056049
    C   C5   0.881454  0.579109  0.489061  0.325593
    C   C6   0.118508  0.420204  0.491905  0.334008
    C   C7   0.881405  0.420450  0.518208  0.336232
    C   C8   0.118539  0.579564  0.515842  0.345880
    N   N1   0.853303  0.499793  0.503580  -0.077328
    N   N2   0.146685  0.499877  0.503806  -0.088276
    C   C9   0.940609  0.417430  0.509412  0.004850
    C   C10  0.059367  0.582346  0.506476  -0.007402
    C   C11  0.940622  0.582167  0.498325  0.007388
    C   C12  0.059361  0.417417  0.501563  -0.008835
    C   C13  0.970407  0.499818  0.503941  0.035338
    C   C14  0.029563  0.499868  0.504000  0.055216
    C   C15  0.970614  0.334463  0.509967  -0.105731
    C   C16  0.029402  0.665296  0.503524  -0.099880
    C   C17  0.970589  0.665170  0.498058  -0.106437
    C   C18  0.029437  0.334438  0.504743  -0.094748
    O   O9   0.851262  0.653515  0.461968  -0.387013
    O   O10  0.148609  0.345089  0.466881  -0.387032
    O   O11  0.851108  0.345952  0.544612  -0.400370
    O   O12  0.148718  0.654724  0.540395  -0.401631
    C   C19  0.237065  0.555999  0.438613  -0.099110
    C   C20  0.762889  0.442539  0.439774  -0.095553
    C   C21  0.237271  0.443157  0.567298  -0.269830
    C   C22  0.762814  0.557869  0.565855  -0.264410
    H   H1   0.213500  0.600425  0.388886  0.143694
    H   H2   0.786434  0.397113  0.391081  0.142846
    H   H3   0.214394  0.398657  0.618000  0.164293
    H   H4   0.785765  0.603254  0.615513  0.162329
    C   C23  0.295864  0.558238  0.439483  -0.041770
    C   C24  0.704081  0.440617  0.440558  -0.040762
    C   C25  0.295848  0.439159  0.564443  0.075748
    C   C26  0.704248  0.561983  0.562916  0.075397
    C   C27  0.325984  0.498306  0.501473  -0.054457
    C   C28  0.674056  0.501828  0.501197  -0.057058
    C   C29  0.207558  0.499814  0.503379  0.193134
    C   C30  0.792445  0.499910  0.503225  0.186297
    C   C31  0.500730  0.221720  0.501551  -0.349352
    C   C32  0.499351  0.778740  0.500992  -0.349106
    C   C33  0.500519  0.138823  0.501383  0.142549
    C   C34  0.499543  0.861641  0.500886  0.141646
    C   C35  0.500171  0.041684  0.501098  -0.037090
    C   C36  0.499864  0.958783  0.500921  -0.035483
    N   N3   0.499961  0.500005  0.238292  -0.147538
    N   N4   0.500104  0.500459  0.764444  -0.083408
    C   C37  0.499994  0.500122  0.151861  0.289068
    C   C38  0.500102  0.500441  0.850879  0.221472
    C   C39  0.500048  0.500281  0.046381  0.021254
    C   C40  0.500086  0.500382  0.956362  0.074115
    C   C41  0.941412  0.244896  0.512284  0.484017
    H   H5   0.910087  0.228302  0.455582  0.024763
    O   O13  0.950128  0.190629  0.580133  -0.404985
    C   C42  0.058646  0.754861  0.501792  0.480102
    H   H6   0.090500  0.768797  0.445164  0.025341
    O   O14  0.049354  0.812231  0.566319  -0.402767
    C   C43  0.941318  0.754691  0.496145  0.487271
    H   H7   0.909660  0.770734  0.552422  0.013675
    O   O15  0.950317  0.809516  0.428951  -0.405075
    C   C44  0.058794  0.244983  0.507389  0.474883
    H   H8   0.090868  0.231810  0.563819  0.016271
    O   O16  0.049438  0.186891  0.443669  -0.399723
    C   C45  0.324628  0.628287  0.377912  0.450361
    H   H9   0.368389  0.647684  0.391431  0.013469
    O   O17  0.298391  0.669046  0.313015  -0.455155
    C   C46  0.675184  0.369685  0.380369  0.449130
    H   H10  0.631182  0.351517  0.393407  0.014115
    O   O18  0.701535  0.326880  0.317190  -0.454722
    C   C47  0.323050  0.367883  0.626328  0.345295
    H   H11  0.300137  0.340305  0.689889  0.002163
    O   O19  0.367507  0.331497  0.601172  -0.333428
    C   C48  0.677092  0.634399  0.623285  0.344085
    H   H12  0.700120  0.663337  0.685999  0.002695
    O   O20  0.632484  0.670034  0.597698  -0.332318
