# Generated by REPEAT Assigner based on pymatgen
data_DB0-m29_o84_o150_f0_pts.sym.13
_audit_creation_date              2022-05-24
_audit_creation_method            REPEAT_Assigner
_cell_length_a                    13.467137
_cell_length_b                    9.392461
_cell_length_c                    19.374040
_cell_angle_alpha                 85.317274
_cell_angle_beta                  98.844635
_cell_angle_gamma                 112.715398
_cell_volume                      2232.983610
_symmetry_space_group_name_H-M    P1
_symmetry_Int_Tables_number       1
loop_
    _symmetry_equiv_pos_site_id
    _symmetry_equiv_pos_as_xyz
    1  x,y,z
loop_
    _atom_site_type_symbol
    _atom_site_label
    _atom_site_fract_x
    _atom_site_fract_y
    _atom_site_fract_z
    _atom_type_partial_charge
    C   C1   0.201690  0.953635  0.928053  -0.048053
    C   C2   0.101203  0.924993  0.888649  0.179765
    C   C3   0.019461  0.946343  0.916507  0.108730
    C   C4   0.921138  0.923109  0.875914  -0.167218
    C   C5   0.839923  0.946366  0.902645  -0.034346
    C   C6   0.217542  0.996790  0.997086  -0.073596
    C   C7   0.135094  0.018046  0.024798  0.031816
    C   C8   0.036177  0.993357  0.984352  -0.010937
    C   C9   0.953865  0.015373  0.011721  0.105936
    C   C10  0.855234  0.991751  0.971091  -0.033450
    C   C11  0.772603  0.012736  0.998838  -0.069070
    C   C12  0.151499  0.067178  0.092593  -0.073300
    C   C13  0.070031  0.088962  0.119539  -0.124315
    C   C14  0.970107  0.060002  0.079932  0.013341
    C   C15  0.886560  0.073263  0.109092  0.191151
    C   C16  0.787257  0.051416  0.068658  0.002727
    H   H1   0.906123  0.887739  0.822381  0.141421
    H   H2   0.765462  0.928329  0.868021  0.090829
    H   H3   0.227057  0.089412  0.126564  0.090598
    H   H4   0.087218  0.130293  0.172115  0.161206
    O   O1   0.608892  0.064401  0.064777  -0.497340
    C   C17  0.696528  0.055792  0.101874  0.547057
    O   O2   0.521564  0.751234  0.123553  -0.510764
    O   O3   0.698368  0.038557  0.169828  -0.498689
    O   O4   0.485489  0.871054  0.207500  -0.525322
    C   C18  0.503632  0.753429  0.188070  0.635615
    Fe  Fe1  0.498233  0.021297  0.128225  1.416461
    O   O5   0.352587  0.924573  0.070919  -0.638008
    O   O6   0.387769  0.179592  0.048874  -0.502106
    C   C19  0.323831  0.034456  0.039092  0.744344
    O   O7   0.541172  0.229922  0.168743  -0.582281
    O   O8   0.427730  0.088947  0.246507  -0.512214
    C   C20  0.490482  0.222874  0.222467  0.597616
    O   O9   0.449499  0.778294  0.826441  -0.585767
    O   O10  0.557128  0.918583  0.745523  -0.512906
    C   C21  0.497172  0.784846  0.771320  0.600367
    O   O11  0.636672  0.084098  0.924812  -0.631717
    O   O12  0.603392  0.829391  0.945982  -0.494332
    C   C22  0.666372  0.974704  0.956365  0.726747
    O   O13  0.290352  0.978987  0.826044  -0.485472
    O   O14  0.504464  0.137176  0.787705  -0.518741
    C   C23  0.488668  0.256485  0.807453  0.598347
    O   O15  0.379961  0.942493  0.929983  -0.524634
    C   C24  0.292302  0.953440  0.893755  0.589324
    O   O16  0.472102  0.259803  0.872201  -0.505067
    Fe  Fe2  0.491438  0.986819  0.866952  1.414636
    H   H5   0.480312  0.521570  0.839794  0.211075
    C   C25  0.489394  0.385991  0.758925  -0.059973
    C   C26  0.495948  0.382129  0.688230  0.323651
    C   C27  0.496333  0.506914  0.644529  -0.009357
    C   C28  0.498190  0.638774  0.672194  -0.265504
    H   H6   0.500519  0.737306  0.638543  0.159552
    C   C29  0.491243  0.642865  0.742039  0.104068
    C   C30  0.484130  0.515585  0.784877  -0.253657
    C   C31  0.566388  0.626478  0.534936  -0.218301
    H   H7   0.625533  0.723291  0.564183  0.136318
    C   C32  0.563818  0.626632  0.463522  -0.125816
    H   H8   0.622179  0.722348  0.438191  0.095125
    C   C33  0.490465  0.502611  0.425391  0.159805
    C   C34  0.419614  0.378723  0.459352  -0.366648
    H   H9   0.360486  0.282129  0.429970  0.177262
    C   C35  0.420909  0.379398  0.530675  0.379817
    C   C36  0.495853  0.502413  0.569020  0.110359
    C   C37  0.487553  0.366825  0.321788  -0.234105
    H   H10  0.483159  0.266890  0.354956  0.156060
    C   C38  0.496597  0.364454  0.252175  0.090600
    C   C39  0.505866  0.493068  0.209880  -0.216272
    H   H11  0.510483  0.487916  0.155026  0.210524
    C   C40  0.501780  0.623024  0.236241  -0.105221
    C   C41  0.495026  0.626211  0.306932  0.290731
    C   C42  0.490818  0.499020  0.349948  -0.035906
    O   O17  0.082823  0.877905  0.821270  -0.238438
    C   C43  0.052261  0.717915  0.826623  0.079997
    H   H12  0.031879  0.676009  0.879816  0.001337
    H   H13  0.120048  0.686953  0.816223  0.041523
    H   H14  0.979864  0.662419  0.787967  0.052431
    O   O18  0.345064  0.260605  0.562499  -0.355256
    C   C44  0.251261  0.293674  0.550173  0.110507
    H   H15  0.198835  0.232253  0.503298  0.018593
    H   H16  0.273185  0.419774  0.541782  -0.016911
    H   H17  0.206554  0.255260  0.596125  0.042440
    O   O19  0.490658  0.753021  0.334307  -0.227868
    C   C45  0.380547  0.716244  0.337288  0.038884
    H   H18  0.362432  0.679806  0.391354  0.015228
    H   H19  0.330518  0.621511  0.301139  0.013183
    H   H20  0.360287  0.818964  0.321522  0.081277
    O   O20  0.902851  0.107521  0.178340  -0.279905
    C   C46  0.883199  0.966093  0.214525  0.089177
    H   H21  0.960932  0.955824  0.237189  0.004760
    H   H22  0.836286  0.869579  0.178638  0.022107
    H   H23  0.835913  0.958846  0.257673  0.078683
    O   O21  0.504585  0.257562  0.661617  -0.244698
    C   C47  0.615444  0.300151  0.659158  0.097097
    H   H24  0.662973  0.397435  0.694522  -0.018664
    H   H25  0.633295  0.335481  0.604961  -0.024772
    H   H26  0.639049  0.200757  0.676276  0.076712
