# Generated by REPEAT Assigner based on pymatgen
data_DB0-m3_o1_o2_f0_nbo.sym.23_sqe
_audit_creation_date              2022-05-24
_audit_creation_method            REPEAT_Assigner
_cell_length_a                    21.917554
_cell_length_b                    21.917507
_cell_length_c                    30.493080
_cell_angle_alpha                 90.000000
_cell_angle_beta                  90.000000
_cell_angle_gamma                 90.000000
_cell_volume                      14648.209133
_symmetry_space_group_name_H-M    P1
_symmetry_Int_Tables_number       1
loop_
    _symmetry_equiv_pos_site_id
    _symmetry_equiv_pos_as_xyz
    1  x,y,z
loop_
    _atom_site_type_symbol
    _atom_site_label
    _atom_site_fract_x
    _atom_site_fract_y
    _atom_site_fract_z
    _atom_type_partial_charge
    C   C1    0.119636  0.499251  0.500285  0.604085
    C   C2    0.523473  0.717972  0.535877  -0.072871
    C   C3    0.499680  0.000234  0.725578  0.019783
    C   C4    0.499779  0.000332  0.774104  0.020983
    C   C5    0.999659  0.500450  0.774695  0.014335
    C   C6    0.500300  0.999760  0.225574  0.023122
    C   C7    0.000390  0.499598  0.226165  0.027462
    C   C8    0.500088  0.380443  0.499280  0.582907
    C   C9    0.380521  0.499997  0.499351  0.579606
    C   C10   0.499920  0.619473  0.501041  0.584284
    C   C11   0.619553  0.499975  0.500946  0.584898
    C   C12   0.999936  0.880443  0.998690  0.587093
    C   C13   0.718007  0.476919  0.535916  -0.076051
    C   C14   0.880541  0.000165  0.998606  0.584744
    C   C15   0.000117  0.119475  0.000313  0.580337
    C   C16   0.119571  0.999821  0.000366  0.582867
    C   C17   0.313797  0.499986  0.499536  0.105540
    C   C18   0.499846  0.686198  0.500889  0.096307
    C   C19   0.686255  0.499998  0.500747  0.094979
    C   C20   0.500046  0.313741  0.499447  0.102794
    C   C21   0.813817  0.000258  0.998759  0.102032
    C   C22   0.000094  0.186201  0.000197  0.108514
    C   C23   0.186274  0.999847  0.000200  0.104550
    C   C24   0.477090  0.282361  0.534825  -0.071922
    C   C25   0.999907  0.813741  0.998950  0.094490
    C   C26   0.098904  0.559463  0.364451  0.712653
    C   C27   0.184302  0.625009  0.358579  0.435602
    C   C28   0.216050  0.662637  0.323769  -0.352281
    C   C29   0.560895  0.901003  0.363505  0.713266
    C   C30   0.628923  0.817571  0.357791  0.443677
    C   C31   0.670108  0.788862  0.323703  -0.360648
    C   C32   0.900814  0.439168  0.363956  0.702979
    C   C33   0.815539  0.373529  0.357754  0.428472
    C   C34   0.784429  0.335403  0.322925  -0.357350
    C   C35   0.282031  0.476399  0.464546  -0.077133
    C   C36   0.439100  0.098106  0.363554  0.718506
    C   C37   0.371390  0.181780  0.357611  0.442823
    C   C38   0.331278  0.211198  0.323176  -0.358763
    C   C39   0.098199  0.439505  0.636711  0.717175
    C   C40   0.181408  0.371205  0.642449  0.446269
    C   C41   0.210247  0.330288  0.676646  -0.358502
    C   C42   0.560156  0.098794  0.635891  0.711969
    C   C43   0.626184  0.183817  0.641776  0.431217
    C   C44   0.664137  0.215234  0.676560  -0.353441
    C   C45   0.901582  0.562044  0.636780  0.715882
    C   C46   0.523018  0.281995  0.464252  -0.082310
    C   C47   0.818390  0.630350  0.642595  0.445260
    C   C48   0.789725  0.671406  0.676782  -0.362342
    C   C49   0.439131  0.901174  0.636252  0.707138
    C   C50   0.373102  0.816197  0.642343  0.426908
    C   C51   0.334569  0.785363  0.677067  -0.353293
    C   C52   0.598779  0.060974  0.863430  0.707982
    C   C53   0.683671  0.127114  0.857346  0.424785
    C   C54   0.714437  0.165719  0.822632  -0.353601
    C   C55   0.059498  0.401282  0.864243  0.708378
    C   C56   0.125224  0.316038  0.858275  0.434213
    C   C57   0.717622  0.523023  0.465371  -0.067070
    C   C58   0.163160  0.284620  0.823482  -0.356239
    C   C59   0.401283  0.939755  0.863791  0.713192
    C   C60   0.316340  0.873622  0.857911  0.431084
    C   C61   0.284990  0.835599  0.823136  -0.354225
    C   C62   0.939151  0.599367  0.864129  0.706367
    C   C63   0.873794  0.684865  0.857975  0.425176
    C   C64   0.836145  0.716411  0.823081  -0.352758
    C   C65   0.599075  0.939215  0.136180  0.713016
    C   C66   0.682606  0.871310  0.141905  0.441508
    C   C67   0.711395  0.830204  0.176007  -0.357178
    C   C68   0.476141  0.717586  0.465751  -0.075151
    C   C69   0.061698  0.598319  0.136993  0.709032
    C   C70   0.130079  0.681436  0.142903  0.441836
    C   C71   0.171371  0.709826  0.177061  -0.362660
    C   C72   0.401837  0.060798  0.136126  0.716764
    C   C73   0.318066  0.128386  0.142074  0.441714
    C   C74   0.288568  0.168420  0.176521  -0.358548
    C   C75   0.939327  0.401619  0.136465  0.721984
    C   C76   0.871191  0.318257  0.142070  0.446119
    C   C77   0.830490  0.289112  0.176266  -0.354878
    C   C78   0.190218  0.555188  0.572415  0.837003
    C   C79   0.782435  0.023961  0.033901  -0.080172
    C   C80   0.125488  0.631026  0.602061  0.582577
    C   C81   0.084470  0.681863  0.585912  -0.407143
    C   C82   0.555406  0.810734  0.572873  0.838921
    C   C83   0.631158  0.876136  0.601853  0.568250
    C   C84   0.681591  0.917332  0.585276  -0.399174
    C   C85   0.810746  0.445058  0.572967  0.826830
    C   C86   0.876684  0.369725  0.601908  0.574789
    C   C87   0.918146  0.319544  0.585282  -0.409025
    C   C88   0.445656  0.190197  0.572666  0.849034
    C   C89   0.369513  0.126416  0.602947  0.569050
    C   C90   0.023629  0.217851  0.035258  -0.085362
    C   C91   0.317988  0.085922  0.587243  -0.388382
    C   C92   0.189509  0.444602  0.427354  0.853606
    C   C93   0.125390  0.368173  0.397830  0.574185
    C   C94   0.084864  0.316974  0.414033  -0.386695
    C   C95   0.554571  0.189457  0.426964  0.837192
    C   C96   0.630473  0.124682  0.397454  0.573455
    C   C97   0.681417  0.083861  0.413686  -0.402187
    C   C98   0.809999  0.554692  0.427723  0.835384
    C   C99   0.875184  0.630099  0.398028  0.565058
    C   C100  0.916451  0.680763  0.414144  -0.401630
    C   C101  0.218014  0.976878  0.035399  -0.080671
    C   C102  0.444087  0.809936  0.428282  0.824063
    C   C103  0.368909  0.875964  0.399238  0.570271
    C   C104  0.318953  0.917739  0.415809  -0.414540
    C   C105  0.690091  0.056001  0.071384  0.820164
    C   C106  0.624040  0.131150  0.100440  0.569221
    C   C107  0.582236  0.181087  0.083877  -0.412776
    C   C108  0.055255  0.310247  0.072666  0.841461
    C   C109  0.131244  0.375005  0.102079  0.579701
    C   C110  0.182051  0.415945  0.085780  -0.403432
    C   C111  0.310550  0.945341  0.072699  0.836536
    C   C112  0.500490  0.880217  0.500140  0.617756
    C   C113  0.976881  0.782509  0.034384  -0.072206
    C   C114  0.375351  0.869466  0.102215  0.574475
    C   C115  0.416202  0.818543  0.085986  -0.404294
    C   C116  0.945329  0.690283  0.072248  0.821781
    C   C117  0.870372  0.624474  0.101843  0.568276
    C   C118  0.820079  0.582826  0.085636  -0.413532
    C   C119  0.689270  0.944686  0.926791  0.837913
    C   C120  0.623892  0.868906  0.897820  0.564590
    C   C121  0.582724  0.818454  0.914403  -0.397498
    C   C122  0.055068  0.688972  0.927047  0.839935
    C   C123  0.130906  0.623670  0.898066  0.564331
    C   C124  0.782037  0.976631  0.963775  -0.080020
    C   C125  0.181428  0.582581  0.914643  -0.395241
    C   C126  0.309826  0.054261  0.926999  0.850058
    C   C127  0.373581  0.130432  0.896727  0.565830
    C   C128  0.414046  0.181976  0.912437  -0.388417
    C   C129  0.944758  0.310023  0.927569  0.850581
    C   C130  0.868530  0.374125  0.897756  0.574128
    C   C131  0.817282  0.414733  0.913772  -0.388034
    C   C132  0.023028  0.781856  0.963854  -0.069916
    C   C133  0.217659  0.022809  0.964827  -0.073232
    C   C134  0.976516  0.217721  0.965088  -0.076571
    C   C135  0.999792  0.498824  0.414489  0.461256
    C   C136  0.500681  0.999710  0.413980  0.481582
    C   C137  0.000015  0.501143  0.586301  0.484270
    C   C138  0.499034  0.000042  0.585795  0.464918
    C   C139  0.499973  0.000972  0.913886  0.458949
    C   C140  0.880248  0.500688  0.500409  0.622576
    C   C141  0.998889  0.500142  0.914465  0.459442
    C   C142  0.500304  0.999323  0.085701  0.481229
    C   C143  0.001052  0.500060  0.086278  0.489295
    C   C144  0.186861  0.499658  0.499990  0.255383
    C   C145  0.500044  0.813063  0.500458  0.257493
    C   C146  0.813094  0.500244  0.500462  0.254951
    C   C147  0.499726  0.186830  0.499689  0.246167
    C   C148  0.686952  0.000043  0.999208  0.249260
    C   C149  0.999653  0.313140  0.000246  0.253786
    C   C150  0.313185  0.000193  0.999976  0.248883
    C   C151  0.499241  0.119606  0.499737  0.612664
    C   C152  0.000377  0.686906  0.999743  0.255958
    C   C153  0.219507  0.526046  0.534464  -0.320646
    C   C154  0.526179  0.780846  0.535195  -0.323614
    C   C155  0.780885  0.474272  0.535274  -0.315202
    C   C156  0.474210  0.219490  0.534487  -0.325339
    C   C157  0.219165  0.473612  0.465216  -0.325533
    C   C158  0.525645  0.219117  0.464852  -0.311193
    C   C159  0.780500  0.525854  0.465711  -0.328677
    C   C160  0.473585  0.780474  0.466024  -0.322014
    C   C161  0.719547  0.026509  0.033637  -0.315858
    C   C162  0.619798  0.999572  0.999540  0.623862
    C   C163  0.026083  0.280729  0.034818  -0.316557
    C   C164  0.280894  0.974263  0.034808  -0.315730
    C   C165  0.974358  0.719624  0.034276  -0.321258
    C   C166  0.719164  0.973917  0.964466  -0.316939
    C   C167  0.025985  0.718990  0.964731  -0.324113
    C   C168  0.280528  0.025700  0.965174  -0.326517
    C   C169  0.973685  0.280599  0.965555  -0.327622
    C   C170  0.047229  0.526053  0.297886  -0.026869
    C   C171  0.527456  0.952910  0.297160  -0.026590
    C   C172  0.953034  0.472679  0.297636  -0.019332
    C   C173  0.999199  0.380366  0.000352  0.606217
    C   C174  0.472955  0.046425  0.297205  -0.031947
    C   C175  0.046412  0.473089  0.703095  -0.034129
    C   C176  0.526595  0.047130  0.702435  -0.029945
    C   C177  0.953192  0.528099  0.703102  -0.025160
    C   C178  0.472721  0.953214  0.702607  -0.019738
    C   C179  0.546770  0.027341  0.797074  -0.020643
    C   C180  0.026259  0.453311  0.797766  -0.028827
    C   C181  0.452913  0.973364  0.797246  -0.030681
    C   C182  0.972917  0.547528  0.797738  -0.017107
    C   C183  0.547130  0.972604  0.202523  -0.028299
    C   C184  0.380409  0.000707  0.999941  0.615893
    C   C185  0.027939  0.546308  0.203222  -0.029841
    C   C186  0.453551  0.026994  0.202476  -0.034506
    C   C187  0.972962  0.453071  0.202959  -0.033215
    C   C188  0.047006  0.527889  0.343194  -0.406314
    C   C189  0.529267  0.952921  0.342447  -0.411191
    C   C190  0.952946  0.470614  0.342935  -0.411938
    C   C191  0.471057  0.046336  0.342504  -0.403546
    C   C192  0.046465  0.471447  0.657791  -0.401388
    C   C193  0.528415  0.046982  0.657123  -0.403802
    C   C194  0.953311  0.530071  0.657820  -0.414307
    C   C195  0.000773  0.619755  0.000207  0.620494
    C   C196  0.470731  0.953174  0.657312  -0.416597
    C   C197  0.546810  0.029325  0.842370  -0.417737
    C   C198  0.027999  0.453291  0.843077  -0.402321
    C   C199  0.453063  0.971545  0.842558  -0.405397
    C   C200  0.970720  0.547358  0.843028  -0.419588
    C   C201  0.547123  0.970789  0.157236  -0.408037
    C   C202  0.029857  0.546441  0.157932  -0.402740
    C   C203  0.453641  0.028894  0.157176  -0.398398
    C   C204  0.971295  0.453256  0.157656  -0.403017
    C   C205  0.999912  0.499130  0.366323  0.633395
    C   C206  0.282394  0.523547  0.534704  -0.080173
    C   C207  0.500245  0.999634  0.365772  0.620962
    C   C208  0.999946  0.500885  0.634510  0.621749
    C   C209  0.499456  0.000051  0.633960  0.632355
    C   C210  0.499965  0.000551  0.865721  0.635711
    C   C211  0.999196  0.500253  0.866307  0.637679
    C   C212  0.500377  0.999758  0.133909  0.616637
    C   C213  0.000709  0.499914  0.134495  0.612000
    C   C214  0.000219  0.499424  0.274698  0.013162
    C   C215  0.500246  0.999707  0.274107  0.021816
    C   C216  0.999771  0.500543  0.726168  0.026105
    H   H1    0.085948  0.544293  0.280498  0.095789
    H   H2    0.044532  0.414682  0.780290  0.095679
    H   H3    0.143736  0.724244  0.205712  0.094953
    H   H4    0.194761  0.750076  0.162811  0.096756
    H   H5    0.205813  0.675858  0.187728  0.091281
    H   H6    0.284434  0.094079  0.130599  -0.020858
    H   H7    0.332964  0.157197  0.114143  -0.049535
    H   H8    0.273677  0.139812  0.204545  0.092987
    H   H9    0.248490  0.191961  0.162148  0.095602
    H   H10   0.322024  0.202761  0.188148  0.090665
    H   H11   0.905482  0.284395  0.130924  -0.022898
    H   H12   0.842877  0.333205  0.113891  -0.050673
    H   H13   0.414342  0.954879  0.779817  0.096602
    H   H14   0.858602  0.274172  0.204536  0.092605
    H   H15   0.806944  0.249108  0.161792  0.093909
    H   H16   0.796164  0.322800  0.187565  0.089063
    H   H17   0.162969  0.651353  0.621663  -0.073164
    H   H18   0.098753  0.599159  0.622766  -0.131903
    H   H19   0.112078  0.715447  0.567315  0.092783
    H   H20   0.062791  0.704750  0.614355  0.091157
    H   H21   0.048688  0.662959  0.564152  0.099980
    H   H22   0.651967  0.838766  0.621303  -0.071452
    H   H23   0.599510  0.902741  0.622816  -0.123507
    H   H24   0.954882  0.586269  0.780265  0.093338
    H   H25   0.714904  0.889852  0.566331  0.092396
    H   H26   0.704943  0.938989  0.613531  0.089956
    H   H27   0.662234  0.953136  0.563744  0.098243
    H   H28   0.839433  0.348672  0.621339  -0.070635
    H   H29   0.903114  0.401484  0.622897  -0.127146
    H   H30   0.890786  0.285949  0.566506  0.093416
    H   H31   0.940186  0.296469  0.613502  0.092666
    H   H32   0.953633  0.339085  0.563569  0.102018
    H   H33   0.349881  0.164197  0.622618  -0.073189
    H   H34   0.401350  0.099399  0.623483  -0.125150
    H   H35   0.585707  0.954083  0.219931  0.098748
    H   H36   0.284598  0.113796  0.568669  0.089931
    H   H37   0.295082  0.064827  0.615903  0.086029
    H   H38   0.336207  0.049672  0.565580  0.094282
    H   H39   0.162948  0.348196  0.378119  -0.074717
    H   H40   0.098293  0.399845  0.377214  -0.126582
    H   H41   0.112771  0.283758  0.432742  0.089554
    H   H42   0.063511  0.293741  0.385608  0.085537
    H   H43   0.048810  0.335594  0.435692  0.093064
    H   H44   0.650703  0.162103  0.377741  -0.071217
    H   H45   0.598648  0.097776  0.376835  -0.127664
    H   H46   0.046647  0.584716  0.220725  0.099654
    H   H47   0.714953  0.111639  0.432198  0.092472
    H   H48   0.704331  0.062095  0.385289  0.090066
    H   H49   0.662618  0.048142  0.435546  0.098604
    H   H50   0.837613  0.650668  0.378647  -0.070639
    H   H51   0.901639  0.598273  0.377107  -0.121715
    H   H52   0.889077  0.714266  0.432995  0.093217
    H   H53   0.937868  0.703812  0.385667  0.090144
    H   H54   0.952437  0.661702  0.435653  0.099221
    H   H55   0.347646  0.838678  0.379961  -0.068091
    H   H56   0.400717  0.902136  0.378118  -0.124933
    H   H57   0.414978  0.045518  0.219880  0.099131
    H   H58   0.285296  0.890636  0.434720  0.094873
    H   H59   0.295891  0.939708  0.387555  0.093979
    H   H60   0.338712  0.953271  0.437382  0.104160
    H   H61   0.661324  0.152431  0.119709  -0.068154
    H   H62   0.597890  0.099331  0.121566  -0.124573
    H   H63   0.609316  0.214752  0.064957  0.094527
    H   H64   0.560272  0.204144  0.112135  0.093386
    H   H65   0.546702  0.161310  0.062314  0.103404
    H   H66   0.151605  0.337592  0.121730  -0.072757
    H   H67   0.099441  0.401832  0.122771  -0.130548
    H   H68   0.954113  0.414585  0.220289  0.100223
    H   H69   0.215558  0.388263  0.067168  0.092107
    H   H70   0.205043  0.437696  0.114150  0.090478
    H   H71   0.163091  0.451673  0.063997  0.098959
    H   H72   0.337934  0.849215  0.121920  -0.071653
    H   H73   0.402236  0.901301  0.122841  -0.127995
    H   H74   0.388447  0.784998  0.067466  0.092764
    H   H75   0.437966  0.795634  0.114386  0.090472
    H   H76   0.451921  0.837363  0.064135  0.099537
    H   H77   0.849449  0.661888  0.121185  -0.068166
    H   H78   0.902328  0.598262  0.122819  -0.124875
    H   H79   0.307129  0.543337  0.561854  0.123369
    H   H80   0.786266  0.610005  0.066927  0.094522
    H   H81   0.797310  0.560973  0.114058  0.093622
    H   H82   0.839446  0.547202  0.063961  0.103867
    H   H83   0.661264  0.848116  0.878362  -0.070358
    H   H84   0.597265  0.900545  0.876863  -0.122579
    H   H85   0.610225  0.785149  0.933338  0.092341
    H   H86   0.561064  0.795097  0.886151  0.090045
    H   H87   0.546921  0.837792  0.935945  0.097296
    H   H88   0.151643  0.661088  0.878625  -0.070658
    H   H89   0.099323  0.597007  0.877092  -0.122378
    H   H90   0.543226  0.693526  0.563176  0.120138
    H   H91   0.214672  0.610129  0.933598  0.091783
    H   H92   0.204839  0.560992  0.886386  0.089269
    H   H93   0.162153  0.546721  0.936164  0.097036
    H   H94   0.335799  0.150044  0.877047  -0.072288
    H   H95   0.400620  0.098605  0.876197  -0.123981
    H   H96   0.386150  0.215356  0.931002  0.090147
    H   H97   0.435144  0.204888  0.883780  0.086474
    H   H98   0.450295  0.163776  0.934109  0.094026
    H   H99   0.848614  0.336508  0.878072  -0.074073
    H   H100  0.900306  0.401132  0.877160  -0.127767
    H   H101  0.693490  0.457457  0.563291  0.120926
    H   H102  0.783957  0.386902  0.932438  0.089930
    H   H103  0.794202  0.436022  0.885258  0.086015
    H   H104  0.835819  0.450834  0.935426  0.093204
    H   H105  0.546024  0.914353  0.279754  0.098699
    H   H106  0.457920  0.307145  0.562183  0.117911
    H   H107  0.306476  0.456767  0.437201  0.119425
    H   H108  0.542393  0.306511  0.436843  0.120739
    H   H109  0.692815  0.542306  0.438064  0.119115
    H   H110  0.456264  0.692826  0.438646  0.125190
    H   H111  0.807201  0.043836  0.061004  0.126289
    H   H112  0.043442  0.193316  0.062493  0.123096
    H   H113  0.193495  0.957501  0.062805  0.121118
    H   H114  0.957404  0.807417  0.061571  0.122525
    H   H115  0.806476  0.956878  0.936473  0.121777
    H   H116  0.914397  0.454572  0.280077  0.093782
    H   H117  0.042332  0.806272  0.936374  0.117641
    H   H118  0.192879  0.041978  0.937467  0.118170
    H   H119  0.956935  0.193076  0.937817  0.120840
    H   H120  0.216725  0.590682  0.371699  -0.019842
    H   H121  0.168841  0.655546  0.385381  -0.047647
    H   H122  0.231564  0.632294  0.296885  0.091975
    H   H123  0.255953  0.686164  0.338401  0.093276
    H   H124  0.183796  0.696959  0.310475  0.088414
    H   H125  0.594373  0.783623  0.368376  -0.021410
    H   H126  0.656811  0.832009  0.386325  -0.049758
    H   H127  0.454386  0.084977  0.279801  0.098851
    H   H128  0.642428  0.774459  0.295072  0.092713
    H   H129  0.693306  0.748561  0.338042  0.095754
    H   H130  0.704711  0.822631  0.312981  0.092048
    H   H131  0.782881  0.408040  0.370313  -0.017585
    H   H132  0.830510  0.343377  0.384923  -0.045295
    H   H133  0.769418  0.365357  0.295671  0.093247
    H   H134  0.744256  0.312088  0.337349  0.095716
    H   H135  0.816920  0.300890  0.310196  0.090270
    H   H136  0.405664  0.215467  0.369055  -0.021544
    H   H137  0.342630  0.166862  0.385564  -0.049940
    H   H138  0.084796  0.454207  0.720525  0.100250
    H   H139  0.359836  0.226109  0.295130  0.092837
    H   H140  0.307698  0.251253  0.337547  0.095802
    H   H141  0.296972  0.177686  0.311580  0.090644
    H   H142  0.215408  0.405487  0.631506  -0.023157
    H   H143  0.166602  0.343053  0.614147  -0.050967
    H   H144  0.225045  0.358237  0.705037  0.093308
    H   H145  0.250305  0.306737  0.662254  0.095601
    H   H146  0.176420  0.295969  0.687741  0.090053
    H   H147  0.591978  0.216474  0.628795  -0.018511
    H   H148  0.656520  0.168288  0.614876  -0.046469
    H   H149  0.545040  0.085719  0.719865  0.096337
    H   H150  0.633995  0.230823  0.703537  0.093249
    H   H151  0.687823  0.255056  0.661947  0.094477
    H   H152  0.698335  0.182743  0.689720  0.088265
    H   H153  0.784348  0.595998  0.631834  -0.022892
    H   H154  0.833020  0.658380  0.614184  -0.049181
    H   H155  0.775113  0.643579  0.705285  0.094685
    H   H156  0.749566  0.694864  0.662456  0.096427
    H   H157  0.823593  0.705798  0.687692  0.091109
    H   H158  0.407591  0.783361  0.629992  -0.018296
    H   H159  0.343233  0.831185  0.615017  -0.044733
    H   H160  0.914691  0.546791  0.720505  0.098844
    H   H161  0.364241  0.770329  0.704473  0.093151
    H   H162  0.311212  0.745232  0.662617  0.095075
    H   H163  0.300083  0.818035  0.689591  0.088262
    H   H164  0.716556  0.092653  0.869669  -0.017648
    H   H165  0.668662  0.156938  0.884691  -0.044022
    H   H166  0.729493  0.136092  0.795207  0.093310
    H   H167  0.754547  0.189112  0.837082  0.095198
    H   H168  0.681715  0.200176  0.810134  0.088403
    H   H169  0.090863  0.283455  0.871141  -0.019339
    H   H170  0.155542  0.331350  0.885250  -0.047626
    H   H171  0.454397  0.914657  0.720144  0.095266
    H   H172  0.133040  0.269255  0.796425  0.092737
    H   H173  0.186654  0.244650  0.838046  0.095208
    H   H174  0.197519  0.317035  0.810442  0.089579
    H   H175  0.283636  0.907803  0.870864  -0.018367
    H   H176  0.331889  0.843330  0.884831  -0.046357
    H   H177  0.269382  0.865696  0.796139  0.093263
    H   H178  0.245187  0.811880  0.837748  0.094697
    H   H179  0.317528  0.801426  0.810003  0.088568
    H   H180  0.908248  0.717308  0.870899  -0.017119
    H   H181  0.843297  0.669713  0.884892  -0.044682
    H   H182  0.585307  0.045708  0.779539  0.095528
    H   H183  0.866447  0.731611  0.796081  0.092067
    H   H184  0.812768  0.756503  0.837570  0.094535
    H   H185  0.801697  0.684135  0.809985  0.088992
    H   H186  0.716499  0.905896  0.131289  -0.020745
    H   H187  0.668190  0.843370  0.113392  -0.049563
    H   H188  0.725776  0.857937  0.204618  0.091870
    H   H189  0.751720  0.807048  0.161669  0.094884
    H   H190  0.677681  0.795565  0.186760  0.091156
    H   H191  0.095682  0.715578  0.132383  -0.021552
    H   H192  0.157918  0.666996  0.114345  -0.048301
    O   O1    0.091201  0.446575  0.499985  -0.652343
    O   O2    0.946515  0.408799  0.999992  -0.651550
    O   O3    0.100411  0.351170  0.066893  -0.447228
    O   O4    0.291964  0.956761  0.109495  -0.547734
    O   O5    0.351518  0.900210  0.066989  -0.443284
    O   O6    0.955904  0.709744  0.108941  -0.546173
    O   O7    0.901185  0.648225  0.066617  -0.433446
    O   O8    0.707868  0.955501  0.889904  -0.548075
    O   O9    0.647790  0.900102  0.932822  -0.440859
    O   O10   0.044202  0.707521  0.890156  -0.547405
    O   O11   0.099660  0.647498  0.933070  -0.441720
    O   O12   0.291261  0.042037  0.890332  -0.549191
    O   O13   0.408774  0.053428  0.999449  -0.654298
    O   O14   0.350337  0.099909  0.932256  -0.446810
    O   O15   0.956615  0.291561  0.890813  -0.549610
    O   O16   0.899240  0.350606  0.933108  -0.449368
    O   O17   0.053436  0.591381  0.001919  -0.662291
    O   O18   0.590679  0.051860  0.997953  -0.673713
    O   O19   0.948437  0.590705  0.998700  -0.671623
    O   O20   0.409581  0.948413  0.000349  -0.666353
    O   O21   0.051524  0.409477  0.000730  -0.664163
    O   O22   0.002072  0.446197  0.434870  -0.609001
    O   O23   0.448319  0.000398  0.434793  -0.635764
    O   O24   0.997556  0.551243  0.435167  -0.627106
    O   O25   0.448189  0.909313  0.501729  -0.671087
    O   O26   0.553403  0.998968  0.434291  -0.618351
    O   O27   0.999301  0.553782  0.565884  -0.618225
    O   O28   0.446340  0.002316  0.565514  -0.610713
    O   O29   0.000648  0.448695  0.565593  -0.638228
    O   O30   0.551380  0.997720  0.565019  -0.627472
    O   O31   0.502317  0.948626  0.934662  -0.624411
    O   O32   0.946247  0.497817  0.934815  -0.607357
    O   O33   0.497678  0.053665  0.934168  -0.609637
    O   O34   0.051301  0.502365  0.935163  -0.627477
    O   O35   0.499595  0.051685  0.064889  -0.635710
    O   O36   0.908622  0.553368  0.502006  -0.661070
    O   O37   0.948638  0.499436  0.065535  -0.639086
    O   O38   0.501068  0.946601  0.065390  -0.618708
    O   O39   0.053718  0.500818  0.065887  -0.619585
    O   O40   0.500441  0.409065  0.537072  -0.645081
    O   O41   0.409193  0.502230  0.537097  -0.645302
    O   O42   0.502328  0.591178  0.538902  -0.633314
    O   O43   0.591310  0.500307  0.538870  -0.632128
    O   O44   0.497670  0.590840  0.463281  -0.647544
    O   O45   0.408777  0.497650  0.461473  -0.632466
    O   O46   0.499703  0.408728  0.461372  -0.631961
    O   O47   0.551547  0.090457  0.499330  -0.664974
    O   O48   0.590891  0.499647  0.463169  -0.645971
    O   O49   0.000296  0.909105  0.036463  -0.646583
    O   O50   0.909175  0.002390  0.036366  -0.648498
    O   O51   0.002431  0.091207  0.038184  -0.632445
    O   O52   0.091286  0.000220  0.038274  -0.633118
    O   O53   0.997853  0.090814  0.962560  -0.648057
    O   O54   0.908835  0.997741  0.960745  -0.635110
    O   O55   0.999639  0.908687  0.960763  -0.634893
    O   O56   0.090949  0.999491  0.962573  -0.646483
    O   O57   0.110758  0.552027  0.403073  -0.473639
    O   O58   0.090530  0.551587  0.500661  -0.662220
    O   O59   0.135021  0.596126  0.340268  -0.398306
    O   O60   0.550437  0.886555  0.401299  -0.458748
    O   O61   0.600384  0.867296  0.339830  -0.405211
    O   O62   0.888269  0.447176  0.402408  -0.463679
    O   O63   0.865147  0.402160  0.339700  -0.392374
    O   O64   0.448366  0.111802  0.401651  -0.470101
    O   O65   0.400381  0.132341  0.339614  -0.404789
    O   O66   0.112361  0.449441  0.598787  -0.465350
    O   O67   0.131961  0.400157  0.660466  -0.407388
    O   O68   0.552578  0.110844  0.597311  -0.473429
    O   O69   0.446532  0.091218  0.500231  -0.651944
    O   O70   0.597114  0.134628  0.660059  -0.396858
    O   O71   0.887216  0.551914  0.598924  -0.462912
    O   O72   0.867953  0.601505  0.660535  -0.406029
    O   O73   0.447394  0.888449  0.597860  -0.464869
    O   O74   0.401778  0.865760  0.660424  -0.393522
    O   O75   0.611538  0.052689  0.901814  -0.464858
    O   O76   0.634133  0.098394  0.839265  -0.392794
    O   O77   0.051788  0.389119  0.902790  -0.470676
    O   O78   0.096383  0.365405  0.840050  -0.395949
    O   O79   0.389201  0.947354  0.902363  -0.474630
    O   O80   0.909297  0.448364  0.498848  -0.673731
    O   O81   0.365507  0.902732  0.839629  -0.396659
    O   O82   0.946705  0.611504  0.902693  -0.466462
    O   O83   0.902499  0.635356  0.839840  -0.391070
    O   O84   0.613484  0.949649  0.098374  -0.458281
    O   O85   0.632852  0.899799  0.159865  -0.405024
    O   O86   0.051294  0.612982  0.099232  -0.458149
    O   O87   0.101317  0.631761  0.160750  -0.404397
    O   O88   0.388182  0.051556  0.098018  -0.469820
    O   O89   0.367531  0.099444  0.160074  -0.404474
    O   O90   0.949084  0.387742  0.098465  -0.468837
    O   O91   0.553174  0.908547  0.498349  -0.660901
    O   O92   0.900139  0.367633  0.160192  -0.409332
    O   O93   0.209085  0.543887  0.609157  -0.548617
    O   O94   0.149194  0.600289  0.566788  -0.444717
    O   O95   0.544605  0.792115  0.609757  -0.547784
    O   O96   0.599970  0.852237  0.566848  -0.441885
    O   O97   0.791815  0.455493  0.609823  -0.546452
    O   O98   0.852622  0.400846  0.566931  -0.439121
    O   O99   0.457866  0.208783  0.609330  -0.548926
    O   O100  0.400028  0.149661  0.567414  -0.447914
    O   O101  0.207741  0.456390  0.390528  -0.549461
    O   O102  0.591491  0.946876  0.001332  -0.662106
    O   O103  0.149021  0.399042  0.433071  -0.451039
    O   O104  0.543134  0.208023  0.390165  -0.548014
    O   O105  0.599722  0.148513  0.432678  -0.444581
    O   O106  0.790934  0.543609  0.391001  -0.547113
    O   O107  0.851645  0.599235  0.433307  -0.438409
    O   O108  0.454230  0.790601  0.391492  -0.547757
    O   O109  0.400039  0.852002  0.434245  -0.434708
    O   O110  0.709447  0.045871  0.108170  -0.547042
    O   O111  0.648000  0.100028  0.065428  -0.432826
    O   O112  0.043963  0.291617  0.109471  -0.548937
    Zn  Zn1   0.000085  0.430988  0.500380  1.300157
    Zn  Zn2   0.500022  0.500028  0.450464  1.266809
    Zn  Zn3   0.999986  0.999966  0.049182  1.268285
    Zn  Zn4   0.000099  0.999979  0.949801  1.270014
    Zn  Zn5   0.430873  0.000109  0.500041  1.298397
    Zn  Zn6   0.999713  0.568961  0.500359  1.299113
    Zn  Zn7   0.568843  0.999628  0.499785  1.299436
    Zn  Zn8   0.500417  0.931161  0.999896  1.299182
    Zn  Zn9   0.930993  0.499930  0.000315  1.299709
    Zn  Zn10  0.499875  0.069132  0.999641  1.300424
    Zn  Zn11  0.068960  0.500278  0.000366  1.300085
    Zn  Zn12  0.500026  0.499916  0.549845  1.266129
