# Generated by REPEAT Assigner based on pymatgen
data_DB0-m9_o7_o23_f0_sra.sym.22
_audit_creation_date              2022-05-24
_audit_creation_method            REPEAT_Assigner
_cell_length_a                    25.327115
_cell_length_b                    6.752526
_cell_length_c                    21.325917
_cell_angle_alpha                 90.000000
_cell_angle_beta                  96.008697
_cell_angle_gamma                 90.000000
_cell_volume                      3627.163108
_symmetry_space_group_name_H-M    P1
_symmetry_Int_Tables_number       1
loop_
    _symmetry_equiv_pos_site_id
    _symmetry_equiv_pos_as_xyz
    1  x,y,z
loop_
    _atom_site_type_symbol
    _atom_site_label
    _atom_site_fract_x
    _atom_site_fract_y
    _atom_site_fract_z
    _atom_type_partial_charge
    O  O1   0.554658  0.510217  0.450003  -0.521475
    O  O2   0.445342  0.010217  0.549997  -0.521493
    O  O3   0.442020  0.168006  0.432174  -0.530901
    O  O4   0.557979  0.668006  0.567826  -0.530905
    C  C1   0.420897  0.342821  0.421195  0.682705
    C  C2   0.579103  0.842821  0.578805  0.682633
    O  O5   0.550719  0.167859  0.437087  -0.540805
    O  O6   0.449281  0.667859  0.562913  -0.540639
    O  O7   0.560353  0.009965  0.555160  -0.521114
    O  O8   0.439647  0.509965  0.444840  -0.521183
    C  C3   0.570601  0.342675  0.428097  0.624407
    C  C4   0.429398  0.842675  0.571903  0.624320
    O  O9   0.502547  0.335970  0.539112  -0.479773
    O  O10  0.497453  0.835970  0.460888  -0.479755
    V  V1   0.499506  0.061168  0.492151  1.375811
    V  V2   0.500494  0.561168  0.507849  1.375786
    C  C5   0.167937  0.092960  0.816708  -0.245833
    C  C6   0.832063  0.592960  0.183292  -0.245783
    H  H1   0.181500  0.222950  0.793520  0.155810
    H  H2   0.818500  0.722950  0.206480  0.155778
    C  C7   0.128213  0.108977  0.855819  -0.146719
    C  C8   0.871787  0.608977  0.144181  -0.146621
    H  H3   0.110577  0.251602  0.863430  0.164384
    H  H4   0.889423  0.751602  0.136570  0.164305
    C  C9   0.111168  0.943164  0.885525  0.009292
    C  C10  0.888832  0.443164  0.114475  0.009172
    C  C11  0.133633  0.761086  0.876061  -0.053810
    C  C12  0.866366  0.261086  0.123939  -0.053785
    H  H5   0.120250  0.631305  0.899516  0.090794
    H  H6   0.879750  0.131305  0.100484  0.090806
    C  C13  0.173398  0.745055  0.836916  -0.275224
    C  C14  0.826602  0.245055  0.163084  -0.275189
    H  H7   0.191237  0.602631  0.829550  0.155860
    H  H8   0.808763  0.102631  0.170450  0.155878
    C  C15  0.190550  0.911158  0.807392  0.416207
    C  C16  0.809450  0.411158  0.192608  0.416124
    C  C17  0.232184  0.895695  0.767153  -0.307026
    C  C18  0.767816  0.395695  0.232847  -0.306919
    C  C19  0.267183  0.884727  0.733291  0.065697
    C  C20  0.732817  0.384727  0.266709  0.065544
    C  C21  0.326722  0.044310  0.666627  0.360765
    C  C22  0.673278  0.544310  0.333373  0.360886
    C  C23  0.366416  0.034171  0.627275  -0.335139
    C  C24  0.633584  0.534171  0.372725  -0.335179
    H  H9   0.380410  0.167642  0.606430  0.168783
    H  H10  0.619590  0.667642  0.393570  0.168746
    C  C25  0.388069  0.853457  0.614252  0.077870
    C  C26  0.611931  0.353457  0.385748  0.077830
    C  C27  0.370250  0.682887  0.640638  -0.399664
    C  C28  0.629750  0.182887  0.359362  -0.399668
    H  H11  0.387251  0.541302  0.630249  0.216902
    H  H12  0.612749  0.041302  0.369751  0.216980
    C  C29  0.330538  0.693058  0.680005  0.411510
    C  C30  0.669462  0.193058  0.319995  0.411409
    C  C31  0.308767  0.873756  0.692852  -0.173814
    C  C32  0.691232  0.373756  0.307148  -0.173727
    C  C33  0.755749  0.741643  0.807836  -0.105035
    C  C34  0.244251  0.241643  0.192164  -0.105187
    C  C35  0.758701  0.101360  0.788532  0.192479
    C  C36  0.241299  0.601360  0.211468  0.192623
    C  C37  0.706398  0.069895  0.748351  0.250725
    C  C38  0.293602  0.569895  0.251649  0.250592
    H  H13  0.673915  0.686191  0.773633  0.038703
    H  H14  0.326085  0.186191  0.226367  0.038655
    H  H15  0.737486  0.780923  0.851220  0.001740
    H  H16  0.262514  0.280924  0.148780  0.001771
    H  H17  0.750957  0.143504  0.836990  0.004355
    H  H18  0.249043  0.643504  0.163010  0.004325
    H  H19  0.673923  0.055179  0.779115  -0.011260
    H  H20  0.326077  0.555179  0.220885  -0.011233
    C  C39  0.624628  0.854511  0.625073  -0.126466
    C  C40  0.375371  0.354511  0.374927  -0.126460
    C  C41  0.790510  0.911188  0.790309  0.368016
    C  C42  0.209490  0.411188  0.209691  0.368038
    C  C43  0.712539  0.705868  0.754262  -0.166252
    C  C44  0.287461  0.205868  0.245738  -0.166045
    C  C45  0.709746  0.882155  0.710140  0.529347
    C  C46  0.290254  0.382155  0.289860  0.529222
    C  C47  0.759711  0.888357  0.676888  -0.210367
    C  C48  0.240289  0.388357  0.323112  -0.210218
    C  C49  0.807676  0.872699  0.725496  -0.040053
    C  C50  0.192324  0.372698  0.274504  -0.040164
    C  C51  0.662988  0.866098  0.663599  -0.305315
    C  C52  0.337012  0.366098  0.336401  -0.305279
    C  C53  0.837281  0.928565  0.836775  -0.259171
    C  C54  0.162719  0.428565  0.163225  -0.259177
    C  C55  0.875688  0.943882  0.875082  -0.154962
    C  C56  0.124312  0.443882  0.124918  -0.154935
    H  H21  0.824803  0.721767  0.724294  0.033168
    H  H22  0.175197  0.221767  0.275706  0.033213
    H  H23  0.837843  0.983416  0.714904  0.040538
    H  H24  0.162157  0.483416  0.285096  0.040541
    H  H25  0.759789  0.763118  0.643256  0.061865
    H  H26  0.240210  0.263118  0.356744  0.061861
    H  H27  0.779985  0.605596  0.816255  0.061190
    H  H28  0.220015  0.105596  0.183745  0.061211
    H  H29  0.721967  0.571009  0.727922  0.085325
    H  H30  0.278033  0.071009  0.272078  0.085268
    H  H31  0.761122  0.030374  0.650998  0.054636
    H  H32  0.238878  0.530374  0.349002  0.054616
    O  O11  0.060361  0.294774  0.052236  -0.542241
    O  O12  0.939639  0.794774  0.947764  -0.542298
    O  O13  0.950143  0.642996  0.068011  -0.506903
    O  O14  0.049857  0.142996  0.931989  -0.506963
    C  C57  0.930191  0.461699  0.072410  0.539716
    C  C58  0.069809  0.961699  0.927590  0.539672
    O  O15  0.057966  0.644549  0.072773  -0.522953
    O  O16  0.942034  0.144549  0.927227  -0.522979
    O  O17  0.054671  0.792981  0.952788  -0.510914
    O  O18  0.945329  0.292981  0.047212  -0.510940
    C  C59  0.078681  0.463218  0.079097  0.691756
    C  C60  0.921319  0.963218  0.920903  0.691827
    O  O19  0.997760  0.477409  0.961735  -0.449240
    O  O20  0.002240  0.977409  0.038265  -0.449226
    V  V3   0.000675  0.745551  0.011292  1.356355
    V  V4   0.999325  0.245551  0.988709  1.356362
    F  F1   0.786934  0.250342  0.762673  -0.225548
    F  F2   0.213066  0.750342  0.237327  -0.225578
    F  F3   0.696339  0.229461  0.708297  -0.282552
    F  F4   0.303661  0.729461  0.291703  -0.282506
    F  F5   0.305186  0.221662  0.679333  -0.151193
    F  F6   0.694814  0.721662  0.320667  -0.151280
    F  F7   0.312761  0.525638  0.705832  -0.184873
    F  F8   0.687239  0.025638  0.294168  -0.184797
