# Generated by REPEAT Assigner based on pymatgen
data_DB0-m9_o6_o18_f0_sra.sym.42
_audit_creation_date              2022-05-24
_audit_creation_method            REPEAT_Assigner
_cell_length_a                    6.696147
_cell_length_b                    19.909498
_cell_length_c                    23.844054
_cell_angle_alpha                 91.612195
_cell_angle_beta                  90.662488
_cell_angle_gamma                 89.182555
_cell_volume                      3177.036160
_symmetry_space_group_name_H-M    P1
_symmetry_Int_Tables_number       1
loop_
    _symmetry_equiv_pos_site_id
    _symmetry_equiv_pos_as_xyz
    1  x,y,z
loop_
    _atom_site_type_symbol
    _atom_site_label
    _atom_site_fract_x
    _atom_site_fract_y
    _atom_site_fract_z
    _atom_type_partial_charge
    O  O1   0.657276  0.416502  0.463611  -0.556295
    O  O2   0.309692  0.553718  0.434528  -0.556915
    O  O3   0.153362  0.579326  0.537702  -0.518310
    C  C1   0.482088  0.578230  0.422684  0.766380
    O  O4   0.316370  0.418079  0.450743  -0.577245
    O  O5   0.160422  0.434956  0.555346  -0.553068
    C  C2   0.491584  0.390280  0.445831  0.674185
    O  O6   0.650670  0.560823  0.445964  -0.566800
    O  O7   0.482013  0.505277  0.535679  -0.493403
    V  V1   0.206837  0.496253  0.493504  1.416055
    O  O8   0.819804  0.442197  0.566806  -0.538166
    C  C3   0.994645  0.417283  0.578361  0.734204
    O  O9   0.813683  0.577941  0.550628  -0.566406
    C  C4   0.987974  0.605573  0.555691  0.621747
    V  V2   0.707300  0.499646  0.507852  1.422339
    O  O10  0.979926  0.490622  0.465671  -0.475850
    C  C5   0.815525  0.840016  0.913492  -0.070698
    C  C6   0.008743  0.666480  0.590372  -0.007163
    C  C7   0.624300  0.743384  0.889829  -0.251665
    C  C8   0.674630  0.793938  0.927342  -0.049617
    C  C9   0.906283  0.835896  0.861881  -0.179902
    C  C10  0.851282  0.786063  0.822773  0.034911
    C  C11  0.710242  0.739950  0.837713  0.251855
    C  C12  0.931334  0.781932  0.768959  0.047947
    C  C13  0.870780  0.731239  0.731245  0.040596
    C  C14  0.728820  0.685970  0.747590  -0.159170
    C  C15  0.650128  0.690476  0.800388  -0.245185
    C  C16  0.070914  0.827834  0.752249  -0.158734
    C  C17  0.152283  0.822546  0.699747  -0.233825
    C  C18  0.098050  0.771373  0.663256  0.208395
    C  C19  0.955463  0.725781  0.678070  0.060805
    C  C20  0.192978  0.765160  0.612450  -0.207935
    C  C21  0.152421  0.711712  0.576743  -0.109300
    C  C22  0.907135  0.674004  0.640103  -0.203145
    H  H1   0.538830  0.655040  0.812544  0.129553
    H  H2   0.802274  0.635628  0.649264  0.145697
    H  H3   0.234697  0.704806  0.538223  0.101393
    H  H4   0.263507  0.857997  0.687575  0.127427
    H  H5   0.513011  0.707299  0.900668  0.130956
    H  H6   0.601699  0.798101  0.967526  0.090336
    H  H7   0.012038  0.874138  0.853018  0.156659
    H  H8   0.673948  0.646457  0.720281  0.138324
    H  H9   0.122114  0.868312  0.779178  0.127993
    H  H10  0.305946  0.800731  0.601759  0.124686
    H  H11  0.623663  0.231412  0.794319  0.146658
    C  C23  0.789171  0.278281  0.730416  -0.192012
    H  H12  0.668388  0.312270  0.719558  0.143403
    C  C24  0.968825  0.281138  0.702763  0.282431
    C  C25  0.122457  0.237596  0.716683  -0.200909
    H  H13  0.263378  0.239522  0.695150  0.144597
    C  C26  0.096882  0.191940  0.758516  -0.134376
    H  H14  0.218606  0.158614  0.769935  0.120983
    C  C27  0.917606  0.189402  0.786423  0.179084
    C  C28  0.763622  0.232655  0.772235  -0.160795
    C  C29  0.992866  0.329036  0.659257  -0.119399
    C  C30  0.897121  0.144763  0.832452  0.000789
    C  C31  0.890096  0.108899  0.872400  -0.343998
    C  C32  0.002270  0.369431  0.622539  -0.196066
    H  H15  0.783418  0.720603  0.287059  0.152097
    C  C33  0.622979  0.776305  0.225328  -0.196990
    H  H16  0.756045  0.797758  0.208386  0.141769
    C  C34  0.437969  0.792396  0.202886  0.301603
    C  C35  0.268619  0.764968  0.224692  -0.219373
    H  H17  0.123504  0.777510  0.207268  0.158652
    C  C36  0.283990  0.721720  0.268808  -0.175951
    H  H18  0.150770  0.700466  0.285831  0.140476
    C  C37  0.468698  0.705688  0.291367  0.287578
    C  C38  0.638381  0.732987  0.269514  -0.203745
    C  C39  0.420854  0.837943  0.157185  -0.124223
    C  C40  0.482269  0.660912  0.337679  -0.128615
    C  C41  0.486796  0.623262  0.376533  -0.202161
    C  C42  0.405326  0.876349  0.119013  -0.199881
    C  C43  0.376286  0.171228  0.080215  -0.164740
    C  C44  0.506486  0.329839  0.410410  0.026917
    C  C45  0.324909  0.289220  0.090732  -0.271633
    C  C46  0.349338  0.233019  0.056374  -0.037446
    C  C47  0.392933  0.166528  0.137520  -0.213855
    C  C48  0.387580  0.223650  0.172041  0.049740
    C  C49  0.345800  0.284892  0.148284  0.218482
    C  C50  0.427468  0.220580  0.229425  0.051829
    C  C51  0.409943  0.278250  0.263240  0.021476
    C  C52  0.355797  0.338418  0.239002  -0.202781
    C  C53  0.328440  0.342112  0.181877  -0.284871
    C  C54  0.494906  0.161344  0.252944  -0.155426
    C  C55  0.551026  0.160209  0.308482  -0.271808
    C  C56  0.535774  0.217240  0.341836  0.204969
    C  C57  0.457845  0.275827  0.320258  0.115217
    C  C58  0.603722  0.215486  0.396606  -0.196214
    C  C59  0.594947  0.272458  0.430481  -0.160445
    C  C60  0.435598  0.331450  0.356054  -0.264264
    H  H19  0.367589  0.377726  0.343010  0.164605
    H  H20  0.651495  0.271524  0.473107  0.115747
    H  H21  0.611080  0.114438  0.325758  0.136944
    H  H22  0.294093  0.336968  0.072050  0.206198
    H  H23  0.412024  0.116956  0.153598  0.149521
    H  H24  0.345160  0.384442  0.263224  0.131952
    H  H25  0.516653  0.115623  0.228666  0.134616
    H  H26  0.667927  0.169609  0.412562  0.124562
    O  O11  0.206739  0.925287  0.049012  -0.546416
    O  O12  0.563932  0.096846  0.022684  -0.601188
    O  O13  0.746976  0.029873  0.933160  -0.549037
    C  C61  0.389156  0.109598  0.046078  0.800404
    O  O14  0.516283  0.973081  0.074903  -0.504374
    O  O15  0.700514  0.908066  0.987938  -0.583970
    C  C62  0.386901  0.922468  0.073753  0.730718
    O  O16  0.248533  0.064783  0.053700  -0.521343
    O  O17  0.381510  0.989430  0.965659  -0.581800
    V  V3   0.658095  0.003599  0.008038  1.436440
    O  O18  0.011948  0.934349  0.945464  -0.662417
    C  C63  0.847809  0.896971  0.952006  0.723336
    O  O19  0.062928  0.075306  0.952442  -0.574306
    C  C64  0.899772  0.068926  0.921780  0.865604
    V  V4   0.157079  0.998047  0.996103  1.537078
    O  O20  0.883708  0.010682  0.039290  -0.590098
    C  C65  0.283647  0.408451  0.156562  0.766186
    C  C66  0.097480  0.403296  0.120000  -0.415416
    C  C67  0.246520  0.461475  0.202227  -0.322119
    C  C68  0.460021  0.429954  0.122252  -0.435726
    H  H27  0.976926  0.434611  0.139286  0.082602
    H  H28  0.047275  0.350434  0.117141  0.066355
    H  H29  0.128323  0.422038  0.077637  0.067323
    H  H30  0.129602  0.444257  0.230879  0.059548
    H  H31  0.194731  0.508622  0.182690  0.040987
    H  H32  0.387125  0.471552  0.225825  0.057385
    H  H33  0.530135  0.386225  0.100047  0.078075
    H  H34  0.573391  0.452869  0.150846  0.080584
    H  H35  0.409664  0.467656  0.091578  0.070614
    C  C69  0.342986  0.239773  0.994239  0.571716
    C  C70  0.552368  0.232956  0.971210  -0.430031
    C  C71  0.213555  0.185791  0.967551  -0.289714
    C  C72  0.258371  0.308195  0.979838  -0.391731
    H  H36  0.617154  0.183327  0.981739  0.143665
    H  H37  0.646774  0.273246  0.989919  0.073806
    H  H38  0.547002  0.237581  0.924976  0.068044
    H  H39  0.296513  0.137283  0.967912  0.024370
    H  H40  0.179413  0.198495  0.923440  0.109896
    H  H41  0.072457  0.182206  0.991120  0.041097
    H  H42  0.367979  0.347545  0.991590  0.067121
    H  H43  0.116927  0.317583  0.002683  0.072691
    H  H44  0.228779  0.309577  0.934023  0.059472
