data_DB0-m3_o11_o23_f0_pcu.sym.146_repeat
_audit_creation_date              2024-02-23
_audit_creation_method            'Materials Studio'
_symmetry_space_group_name_H-M    'P1'
_symmetry_Int_Tables_number       1
_symmetry_cell_setting            triclinic
loop_
_symmetry_equiv_pos_as_xyz
  x,y,z
_cell_length_a                    15.9525
_cell_length_b                    11.1378
_cell_length_c                    9.9103
_cell_angle_alpha                 89.9974
_cell_angle_beta                  89.9750
_cell_angle_gamma                 89.9982
loop_
_atom_site_label
_atom_site_type_symbol
_atom_site_fract_x
_atom_site_fract_y
_atom_site_fract_z
_atom_site_U_iso_or_equiv
_atom_site_adp_type
_atom_site_occupancy
O1     O     0.49917   0.32294   0.61866   0.00000  Uiso   1.00
O2     O     0.50227   0.32185   0.38609   0.00000  Uiso   1.00
C1     C     0.50053   0.26634   0.50272   0.00000  Uiso   1.00
O3     O     0.37377   0.50171   0.60887   0.00000  Uiso   1.00
O4     O     0.37699   0.50036   0.37611   0.00000  Uiso   1.00
C2     C     0.33643   0.50088   0.49122   0.00000  Uiso   1.00
Zn1    Zn    0.49778   0.50226   0.65254   0.00000  Uiso   1.00
Zn2    Zn    0.50258   0.50012   0.34530   0.00000  Uiso   1.00
O5     O     0.49894   0.68042   0.61226   0.00000  Uiso   1.00
O6     O     0.50206   0.67978   0.37873   0.00000  Uiso   1.00
O7     O     0.62342   0.50219   0.62211   0.00000  Uiso   1.00
O8     O     0.62666   0.50084   0.38857   0.00000  Uiso   1.00
C3     C     0.50024   0.73595   0.49565   0.00000  Uiso   1.00
C4     C     0.66390   0.50149   0.50662   0.00000  Uiso   1.00
C5     C     0.04995   0.43817   0.62237   0.00000  Uiso   1.00
C6     C     0.04484   0.43708   0.37200   0.00000  Uiso   1.00
C7     C     0.95082   0.42329   0.38690   0.00000  Uiso   1.00
H1     H     0.92908   0.35580   0.64734   0.00000  Uiso   1.00
H2     H     0.06865   0.34232   0.61838   0.00000  Uiso   1.00
H3     H     0.05910   0.49001   0.28002   0.00000  Uiso   1.00
H4     H     0.07404   0.34708   0.36281   0.00000  Uiso   1.00
H5     H     0.93599   0.32797   0.40876   0.00000  Uiso   1.00
C8     C     0.75384   0.50147   0.50865   0.00000  Uiso   1.00
C9     C     0.07928   0.50135   0.49509   0.00000  Uiso   1.00
C10    C     0.95537   0.44710   0.63304   0.00000  Uiso   1.00
C11    C     0.92105   0.50108   0.50346   0.00000  Uiso   1.00
C12    C     0.95313   0.62904   0.48559   0.00000  Uiso   1.00
C13    C     0.04776   0.62965   0.49630   0.00000  Uiso   1.00
C14    C     0.82937   0.50134   0.50744   0.00000  Uiso   1.00
C15    C     0.17095   0.50110   0.49067   0.00000  Uiso   1.00
C16    C     0.24649   0.50095   0.48925   0.00000  Uiso   1.00
H6     H     0.06688   0.67415   0.59155   0.00000  Uiso   1.00
H7     H     0.07462   0.67984   0.40983   0.00000  Uiso   1.00
H8     H     0.92613   0.68972   0.56291   0.00000  Uiso   1.00
H9     H     0.07910   0.48050   0.71212   0.00000  Uiso   1.00
H10    H     0.93459   0.66483   0.38562   0.00000  Uiso   1.00
C17    C     0.50197   0.93582   0.38986   0.00000  Uiso   1.00
C18    C     0.50021   0.86738   0.50075   0.00000  Uiso   1.00
H11    H     0.50342   0.89302   0.29170   0.00000  Uiso   1.00
H12    H     0.49859   0.90578   0.60058   0.00000  Uiso   1.00
C19    C     0.50189   0.06894   0.39268   0.00000  Uiso   1.00
C20    C     0.50075   0.13478   0.50603   0.00000  Uiso   1.00
H13    H     0.50281   0.11417   0.29591   0.00000  Uiso   1.00
H14    H     0.49989   0.09452   0.60499   0.00000  Uiso   1.00
C21    C     0.54414   0.57303   0.92315   0.00000  Uiso   1.00
N1     N     0.49423   0.50633   0.85424   0.00000  Uiso   1.00
H15    H     0.59034   0.62727   0.87105   0.00000  Uiso   1.00
H16    H     0.44432   0.46907   0.90459   0.00000  Uiso   1.00
C22    C     0.53737   0.58300   0.07171   0.00000  Uiso   1.00
N2     N     0.50732   0.49720   0.14363   0.00000  Uiso   1.00
H17    H     0.56165   0.66263   0.12085   0.00000  Uiso   1.00
H18    H     0.49509   0.41774   0.09493   0.00000  Uiso   1.00
C23    C     0.93239   0.52052   0.74989   0.00000  Uiso   1.00
N3     N     0.91420   0.57845   0.84229   0.00000  Uiso   1.00
C24    C     0.90894   0.45738   0.26114   0.00000  Uiso   1.00
N4     N     0.87582   0.48426   0.16178   0.00000  Uiso   1.00
