# Generated by REPEAT Assigner based on pymatgen
data_DB0-m3_o1_o23_f0_nbo.sym.123_sqe
_audit_creation_date              2022-05-24
_audit_creation_method            REPEAT_Assigner
_cell_length_a                    38.002469
_cell_length_b                    21.815325
_cell_length_c                    21.748193
_cell_angle_alpha                 90.000000
_cell_angle_beta                  122.811964
_cell_angle_gamma                 90.000000
_cell_volume                      15153.409505
_symmetry_space_group_name_H-M    P1
_symmetry_Int_Tables_number       1
loop_
    _symmetry_equiv_pos_site_id
    _symmetry_equiv_pos_as_xyz
    1  x,y,z
loop_
    _atom_site_type_symbol
    _atom_site_label
    _atom_site_fract_x
    _atom_site_fract_y
    _atom_site_fract_z
    _atom_type_partial_charge
    O   O1    0.998163  0.950790  0.089812  -0.706695
    O   O2    0.000130  0.948271  0.908377  -0.690568
    O   O3    0.498163  0.450790  0.089812  -0.706685
    O   O4    0.500130  0.448271  0.908377  -0.690561
    O   O5    0.998709  0.056761  0.090717  -0.682958
    O   O6    0.003030  0.054138  0.911542  -0.699661
    O   O7    0.498709  0.556761  0.090717  -0.682957
    O   O8    0.503030  0.554138  0.911542  -0.699658
    C   C1    0.998115  0.003708  0.118369  0.611377
    C   C2    0.001938  0.001294  0.881878  0.611771
    C   C3    0.498115  0.503708  0.118369  0.611370
    C   C4    0.501938  0.501294  0.881878  0.611765
    O   O9    0.062363  0.950876  0.059433  -0.704234
    O   O10   0.937557  0.948199  0.938034  -0.691483
    O   O11   0.562363  0.450876  0.059433  -0.704227
    O   O12   0.437557  0.448199  0.938034  -0.691474
    O   O13   0.062446  0.056740  0.063747  -0.704713
    O   O14   0.937679  0.054128  0.939253  -0.718440
    O   O15   0.562446  0.556740  0.063747  -0.704706
    O   O16   0.437679  0.554128  0.939253  -0.718437
    C   C5    0.081899  0.003742  0.080966  0.808832
    C   C6    0.918120  0.001191  0.919227  0.812936
    C   C7    0.581899  0.503742  0.080966  0.808821
    C   C8    0.418120  0.501191  0.919227  0.812923
    Zn  Zn1   0.000100  0.932975  0.000236  1.329456
    Zn  Zn2   0.500100  0.432975  0.000236  1.329446
    Zn  Zn3   0.999942  0.072003  0.999979  1.336050
    Zn  Zn4   0.499942  0.572003  0.999979  1.336045
    C   C9    0.225432  0.937413  0.240693  -0.438275
    C   C10   0.774417  0.936009  0.758703  -0.431730
    C   C11   0.725432  0.437413  0.240693  -0.438266
    C   C12   0.274417  0.436009  0.758703  -0.431750
    C   C13   0.224095  0.043012  0.280972  -0.195980
    C   C14   0.776044  0.041978  0.719700  -0.196988
    C   C15   0.724095  0.543012  0.280972  -0.195985
    C   C16   0.276044  0.541978  0.719700  -0.196999
    C   C17   0.271410  0.048224  0.325520  0.028950
    C   C18   0.728744  0.047458  0.675192  0.027154
    C   C19   0.771410  0.548224  0.325520  0.028958
    C   C20   0.228744  0.547458  0.675192  0.027157
    H   H1    0.209963  0.918487  0.267552  0.087953
    H   H2    0.789827  0.917402  0.731596  0.086699
    H   H3    0.709963  0.418487  0.267552  0.087951
    H   H4    0.289827  0.417402  0.731596  0.086697
    H   H5    0.210159  0.089275  0.262576  0.032468
    H   H6    0.790101  0.088111  0.738650  0.032678
    H   H7    0.710159  0.589275  0.262576  0.032468
    H   H8    0.290101  0.588111  0.738650  0.032679
    H   H9    0.213487  0.022888  0.315072  0.009385
    H   H10   0.786608  0.022204  0.685375  0.010350
    H   H11   0.713487  0.522888  0.315072  0.009387
    H   H12   0.286608  0.522204  0.685375  0.010353
    H   H13   0.283995  0.041189  0.384374  -0.013005
    H   H14   0.716150  0.040948  0.616259  -0.013528
    H   H15   0.783995  0.541189  0.384374  -0.013005
    H   H16   0.216150  0.540948  0.616259  -0.013528
    H   H17   0.280296  0.095000  0.318852  -0.004998
    H   H18   0.719981  0.094140  0.682418  -0.004645
    H   H19   0.780296  0.595000  0.318852  -0.005000
    H   H20   0.219981  0.594140  0.682418  -0.004645
    C   C21   0.373106  0.004388  0.380343  0.056104
    C   C22   0.626918  0.003865  0.619751  0.062208
    C   C23   0.873106  0.504388  0.380343  0.056101
    C   C24   0.126918  0.503865  0.619751  0.062212
    C   C25   0.210339  0.002358  0.215124  0.787621
    C   C26   0.789677  0.000755  0.785055  0.783823
    C   C27   0.710339  0.502358  0.215124  0.787621
    C   C28   0.289677  0.500755  0.785055  0.783846
    C   C29   0.272605  0.937004  0.293978  0.756720
    C   C30   0.727245  0.935945  0.705428  0.751863
    C   C31   0.772605  0.437004  0.293978  0.756714
    C   C32   0.227245  0.435945  0.705428  0.751901
    C   C33   0.289485  0.001801  0.297835  0.506454
    C   C34   0.710531  0.000720  0.702298  0.513624
    C   C35   0.789485  0.501801  0.297835  0.506440
    C   C36   0.210531  0.500720  0.702298  0.513604
    C   C37   0.276301  0.020485  0.221012  -0.160003
    C   C38   0.723744  0.018744  0.779325  -0.163189
    C   C39   0.776301  0.520485  0.221012  -0.159998
    C   C40   0.223744  0.518744  0.779325  -0.163171
    C   C41   0.229089  0.026022  0.173482  -0.223208
    C   C42   0.770973  0.023966  0.826953  -0.217257
    C   C43   0.729089  0.526022  0.173482  -0.223206
    C   C44   0.270973  0.523966  0.826953  -0.217249
    C   C45   0.335347  0.003430  0.343742  -0.563553
    C   C46   0.664674  0.002624  0.656361  -0.567321
    C   C47   0.835347  0.503430  0.343742  -0.563547
    C   C48   0.164674  0.502624  0.656361  -0.567323
    C   C49   0.164549  0.002943  0.167038  -0.424598
    C   C50   0.835469  0.001025  0.833160  -0.423187
    C   C51   0.664549  0.502943  0.167038  -0.424599
    C   C52   0.335469  0.501025  0.833160  -0.423202
    C   C53   0.126853  0.003409  0.127488  -0.073549
    C   C54   0.873165  0.001211  0.872712  -0.076430
    C   C55   0.626853  0.503409  0.127488  -0.073546
    C   C56   0.373165  0.501211  0.872712  -0.076420
    H   H21   0.217095  0.998846  0.122803  0.051114
    H   H22   0.782878  0.996344  0.877292  0.049588
    H   H23   0.717095  0.498846  0.122803  0.051112
    H   H24   0.282878  0.496344  0.877292  0.049580
    H   H25   0.220272  0.074763  0.158684  0.038921
    H   H26   0.779926  0.072589  0.842353  0.037854
    H   H27   0.720272  0.574763  0.158684  0.038921
    H   H28   0.279926  0.572589  0.842353  0.037851
    H   H29   0.286978  0.985594  0.197525  0.014099
    H   H30   0.712957  0.983618  0.802384  0.014095
    H   H31   0.786978  0.485594  0.197525  0.014098
    H   H32   0.212957  0.483618  0.802384  0.014088
    H   H33   0.217172  0.908324  0.192865  0.055774
    H   H34   0.782606  0.906487  0.806176  0.053867
    H   H35   0.717172  0.408324  0.192865  0.055772
    H   H36   0.282606  0.406487  0.806176  0.053877
    H   H37   0.285694  0.905782  0.271257  -0.103012
    H   H38   0.714072  0.904497  0.727797  -0.102993
    H   H39   0.785694  0.405782  0.271257  -0.103011
    H   H40   0.214072  0.404497  0.727797  -0.103002
    H   H41   0.290641  0.065187  0.222537  0.070883
    H   H42   0.709527  0.063422  0.778312  0.070843
    H   H43   0.790641  0.565187  0.222537  0.070882
    H   H44   0.209527  0.563422  0.778312  0.070839
    C   C57   0.973245  0.044077  0.193343  -0.205193
    C   C58   0.026862  0.042376  0.807254  -0.199505
    C   C59   0.473245  0.544077  0.193343  -0.205188
    C   C60   0.526862  0.542376  0.807254  -0.199503
    H   H45   0.952716  0.074965  0.149383  0.152100
    H   H46   0.047463  0.072991  0.851493  0.152441
    H   H47   0.452716  0.574965  0.149383  0.152100
    H   H48   0.547463  0.572991  0.851493  0.152442
    C   C61   0.973106  0.043511  0.256445  -0.208515
    C   C62   0.026957  0.042402  0.744110  -0.209997
    C   C63   0.473106  0.543511  0.256445  -0.208521
    C   C64   0.526957  0.542402  0.744110  -0.210001
    H   H49   0.952707  0.074318  0.261991  0.147875
    H   H50   0.047383  0.073425  0.738910  0.149206
    H   H51   0.452707  0.574318  0.261991  0.147876
    H   H52   0.547383  0.573425  0.738910  0.149207
    C   C65   0.999917  0.005142  0.313204  0.158716
    C   C66   0.000098  0.004370  0.686963  0.152870
    C   C67   0.499917  0.505142  0.313204  0.158719
    C   C68   0.500098  0.504370  0.686963  0.152874
    C   C69   0.026042  0.966067  0.306226  -0.182501
    C   C70   0.973946  0.965073  0.693609  -0.175467
    C   C71   0.526042  0.466067  0.306226  -0.182500
    C   C72   0.473946  0.465073  0.693609  -0.175466
    H   H53   0.046764  0.935513  0.350440  0.141635
    H   H54   0.953186  0.934743  0.649152  0.141196
    H   H55   0.546764  0.435513  0.350440  0.141634
    H   H56   0.453186  0.434743  0.649152  0.141196
    C   C73   0.024447  0.964163  0.241488  -0.218434
    C   C74   0.975536  0.962640  0.758326  -0.224031
    C   C75   0.524447  0.464163  0.241488  -0.218430
    C   C76   0.475536  0.462640  0.758326  -0.224027
    H   H57   0.044539  0.932925  0.235659  0.158114
    H   H58   0.955379  0.931250  0.763786  0.160725
    H   H59   0.544539  0.432925  0.235659  0.158113
    H   H60   0.455379  0.431250  0.763786  0.160724
    C   C77   0.998390  0.003678  0.185428  0.224462
    C   C78   0.001662  0.001790  0.814799  0.219979
    C   C79   0.498390  0.503678  0.185428  0.224457
    C   C80   0.501662  0.501790  0.814799  0.219973
    C   C81   0.499806  0.191522  0.500630  0.192485
    C   C82   0.999806  0.691522  0.500630  0.192483
    O   O17   0.501947  0.913662  0.553723  -0.646373
    O   O18   0.498099  0.913092  0.443950  -0.627168
    O   O19   0.001947  0.413662  0.553723  -0.646367
    O   O20   0.998099  0.413092  0.443950  -0.627160
    C   C83   0.500076  0.884879  0.499020  0.524620
    C   C84   0.000076  0.384879  0.499020  0.524618
    O   O21   0.438304  0.006250  0.493989  -0.670881
    O   O22   0.561718  0.003167  0.506090  -0.663764
    O   O23   0.938304  0.506250  0.493989  -0.670883
    O   O24   0.061718  0.503167  0.506090  -0.663766
    O   O25   0.436846  0.003126  0.386508  -0.697455
    O   O26   0.563175  0.006233  0.613568  -0.692482
    O   O27   0.936846  0.503126  0.386508  -0.697455
    O   O28   0.063175  0.506233  0.613568  -0.692481
    C   C85   0.418081  0.004815  0.422266  0.754143
    C   C86   0.581943  0.004682  0.577807  0.740021
    C   C87   0.918081  0.504815  0.422266  0.754143
    C   C88   0.081943  0.504682  0.577807  0.740017
    Zn  Zn5   0.500681  0.004862  0.570303  1.293367
    Zn  Zn6   0.499340  0.004708  0.429807  1.291023
    Zn  Zn7   0.000681  0.504862  0.570303  1.293363
    Zn  Zn8   0.999340  0.504708  0.429807  1.291021
    O   O29   0.501923  0.096432  0.556163  -0.673035
    O   O30   0.498072  0.095863  0.446380  -0.689375
    O   O31   0.001923  0.596432  0.556163  -0.673035
    O   O32   0.998072  0.595863  0.446380  -0.689378
    C   C89   0.499942  0.124636  0.501088  0.597411
    C   C90   0.999942  0.624636  0.501088  0.597420
    O   O33   0.963020  0.913136  0.461662  -0.678798
    O   O34   0.035279  0.913668  0.536833  -0.694003
    O   O35   0.463020  0.413136  0.461662  -0.678791
    O   O36   0.535279  0.413668  0.536833  -0.693992
    C   C91   0.999231  0.884930  0.499410  0.671021
    C   C92   0.499231  0.384930  0.499410  0.671012
    O   O37   0.963124  0.004105  0.372620  -0.683165
    O   O38   0.036842  0.007032  0.627461  -0.681788
    O   O39   0.463124  0.504105  0.372620  -0.683164
    O   O40   0.536842  0.507032  0.627461  -0.681786
    O   O41   0.035464  0.005519  0.442979  -0.712990
    O   O42   0.964577  0.002478  0.557170  -0.711378
    O   O43   0.535464  0.505519  0.442979  -0.712987
    O   O44   0.464577  0.502478  0.557170  -0.711374
    C   C93   0.999567  0.004850  0.379648  0.671129
    C   C94   0.000439  0.004638  0.620485  0.669068
    C   C95   0.499567  0.504850  0.379648  0.671123
    C   C96   0.500439  0.504638  0.620485  0.669060
    Zn  Zn9   0.952577  0.004687  0.454389  1.311144
    Zn  Zn10  0.047417  0.004796  0.545751  1.311076
    Zn  Zn11  0.452577  0.504687  0.454389  1.311138
    Zn  Zn12  0.547417  0.504796  0.545751  1.311069
    O   O45   0.964669  0.095859  0.464695  -0.700221
    O   O46   0.037021  0.096389  0.537052  -0.683608
    O   O47   0.464669  0.595859  0.464695  -0.700220
    O   O48   0.537021  0.596389  0.537052  -0.683609
    C   C97   0.000760  0.124597  0.500736  0.702604
    C   C98   0.500760  0.624597  0.500736  0.702607
    C   C99   0.476044  0.785975  0.434951  -0.128320
    C   C100  0.524508  0.786598  0.564440  -0.124108
    C   C101  0.976044  0.285975  0.434951  -0.128316
    C   C102  0.024508  0.286598  0.564440  -0.124101
    H   H61   0.456620  0.810194  0.383913  0.103759
    H   H62   0.543823  0.811309  0.615142  0.103743
    H   H63   0.956620  0.310194  0.383913  0.103757
    H   H64   0.043823  0.311309  0.615142  0.103741
    C   C103  0.975285  0.222815  0.435710  -0.212695
    C   C104  0.025609  0.223437  0.564528  -0.216732
    C   C105  0.475285  0.722815  0.435710  -0.212694
    C   C106  0.525609  0.723437  0.564528  -0.216728
    H   H65   0.955764  0.197980  0.385167  0.154607
    H   H66   0.045284  0.199093  0.615391  0.154530
    H   H67   0.455764  0.697980  0.385167  0.154606
    H   H68   0.545284  0.699093  0.615391  0.154529
    C   C107  0.000539  0.191466  0.500328  0.077128
    C   C108  0.500539  0.691466  0.500328  0.077127
    C   C109  0.500198  0.817984  0.499480  0.304653
    C   C110  0.000198  0.317984  0.499480  0.304646
    C   C111  0.473976  0.222898  0.436237  -0.202231
    C   C112  0.525465  0.223512  0.564606  -0.213040
    C   C113  0.973976  0.722898  0.436237  -0.202230
    C   C114  0.025465  0.723512  0.564606  -0.213043
    H   H69   0.453566  0.198143  0.386007  0.153691
    H   H70   0.545993  0.199241  0.615164  0.156690
    H   H71   0.953566  0.698143  0.386007  0.153692
    H   H72   0.045993  0.699241  0.615164  0.156691
    C   C115  0.972958  0.786065  0.436242  -0.177040
    C   C116  0.026127  0.786678  0.563781  -0.166412
    C   C117  0.472958  0.286065  0.436242  -0.177039
    C   C118  0.526127  0.286678  0.563781  -0.166415
    H   H73   0.952182  0.810348  0.385815  0.138407
    H   H74   0.046748  0.811443  0.613898  0.135800
    H   H75   0.452182  0.310348  0.385815  0.138407
    H   H76   0.546748  0.311443  0.613898  0.135801
    C   C119  0.999449  0.818049  0.499809  0.124807
    C   C120  0.499449  0.318049  0.499809  0.124808
    N   N1    0.282156  0.914560  0.364252  -0.985922
    C   C121  0.323596  0.893929  0.414029  0.616814
    C   C122  0.346381  0.918234  0.483841  -0.344666
    C   C123  0.386755  0.898680  0.532975  -0.052502
    C   C124  0.404381  0.854037  0.513118  -0.064071
    C   C125  0.381463  0.828498  0.444293  -0.117776
    C   C126  0.341118  0.848041  0.394954  -0.360635
    H   H77   0.270207  0.940617  0.388162  0.353325
    H   H78   0.333045  0.953558  0.500040  0.134511
    H   H79   0.404624  0.918466  0.587142  0.093759
    H   H80   0.435989  0.838603  0.551733  0.038426
    H   H81   0.395007  0.792715  0.429109  0.109855
    H   H82   0.323345  0.826217  0.342001  0.163759
    N   N2    0.717632  0.914102  0.634903  -0.986208
    C   C127  0.676217  0.893413  0.585069  0.620654
    C   C128  0.653340  0.918048  0.515435  -0.345801
    C   C129  0.613037  0.898300  0.466163  -0.052893
    C   C130  0.595573  0.853144  0.485706  -0.060445
    C   C131  0.618580  0.827308  0.554357  -0.119207
    C   C132  0.658854  0.847042  0.603830  -0.363320
    H   H83   0.729519  0.940496  0.611144  0.353234
    H   H84   0.666560  0.953744  0.499474  0.134021
    H   H85   0.595100  0.918321  0.412131  0.093651
    H   H86   0.564027  0.837541  0.446971  0.036043
    H   H87   0.605172  0.791118  0.569281  0.110480
    H   H88   0.676714  0.824955  0.656612  0.164058
    N   N3    0.782156  0.414560  0.364252  -0.985917
    C   C133  0.823596  0.393929  0.414029  0.616814
    C   C134  0.846381  0.418234  0.483841  -0.344670
    C   C135  0.886755  0.398680  0.532975  -0.052499
    C   C136  0.904381  0.354037  0.513118  -0.064074
    C   C137  0.881463  0.328498  0.444293  -0.117773
    C   C138  0.841118  0.348041  0.394954  -0.360636
    H   H89   0.770207  0.440617  0.388162  0.353324
    H   H90   0.833045  0.453558  0.500040  0.134513
    H   H91   0.904624  0.418466  0.587142  0.093758
    H   H92   0.935989  0.338603  0.551733  0.038426
    H   H93   0.895007  0.292715  0.429109  0.109854
    H   H94   0.823345  0.326217  0.342001  0.163759
    N   N4    0.217632  0.414102  0.634903  -0.986216
    C   C139  0.176217  0.393413  0.585069  0.620654
    C   C140  0.153340  0.418048  0.515435  -0.345799
    C   C141  0.113037  0.398300  0.466163  -0.052895
    C   C142  0.095573  0.353144  0.485706  -0.060447
    C   C143  0.118580  0.327308  0.554357  -0.119203
    C   C144  0.158854  0.347042  0.603830  -0.363321
    H   H95   0.229519  0.440496  0.611144  0.353234
    H   H96   0.166560  0.453744  0.499474  0.134020
    H   H97   0.095100  0.418321  0.412131  0.093651
    H   H98   0.064027  0.337541  0.446971  0.036044
    H   H99   0.105172  0.291118  0.569281  0.110479
    H   H100  0.176714  0.324955  0.656612  0.164055
