data_DB0-m2_o11_o29_f0_pcu.sym.9_repeat
_audit_creation_date              2024-02-23
_audit_creation_method            'Materials Studio'
_symmetry_space_group_name_H-M    'P1'
_symmetry_Int_Tables_number       1
_symmetry_cell_setting            triclinic
loop_
_symmetry_equiv_pos_as_xyz
  x,y,z
_cell_length_a                    27.5722
_cell_length_b                    11.0403
_cell_length_c                    9.5291
_cell_angle_alpha                 90.0206
_cell_angle_beta                  90.0157
_cell_angle_gamma                 89.9936
loop_
_atom_site_label
_atom_site_type_symbol
_atom_site_fract_x
_atom_site_fract_y
_atom_site_fract_z
_atom_site_U_iso_or_equiv
_atom_site_adp_type
_atom_site_occupancy
O1     O     0.50032   0.31786   0.61917   0.00000  Uiso   1.00
O2     O     0.49839   0.31666   0.37715   0.00000  Uiso   1.00
C1     C     0.49910   0.26071   0.49859   0.00000  Uiso   1.00
O3     O     0.42897   0.49149   0.61253   0.00000  Uiso   1.00
O4     O     0.43029   0.49831   0.37076   0.00000  Uiso   1.00
C2     C     0.40690   0.49532   0.49060   0.00000  Uiso   1.00
Cu1    Cu    0.49932   0.49407   0.63640   0.00000  Uiso   1.00
Cu2    Cu    0.50090   0.49253   0.35586   0.00000  Uiso   1.00
O5     O     0.50180   0.66966   0.61423   0.00000  Uiso   1.00
O6     O     0.49961   0.66886   0.37364   0.00000  Uiso   1.00
O7     O     0.56989   0.48787   0.62075   0.00000  Uiso   1.00
O8     O     0.57121   0.49523   0.38060   0.00000  Uiso   1.00
C3     C     0.50087   0.72599   0.49403   0.00000  Uiso   1.00
C4     C     0.59350   0.49078   0.50173   0.00000  Uiso   1.00
C5     C     0.17712   0.40643   0.42193   0.00000  Uiso   1.00
O9     O     0.20195   0.31404   0.36471   0.00000  Uiso   1.00
N1     N     0.20137   0.49828   0.48315   0.00000  Uiso   1.00
C6     C     0.17700   0.59013   0.54390   0.00000  Uiso   1.00
C7     C     0.27887   0.49462   0.36055   0.00000  Uiso   1.00
C8     C     0.32890   0.49429   0.36219   0.00000  Uiso   1.00
C9     C     0.32784   0.49931   0.61273   0.00000  Uiso   1.00
C10    C     0.27784   0.50038   0.61075   0.00000  Uiso   1.00
C11    C     0.25314   0.49781   0.48477   0.00000  Uiso   1.00
C12    C     0.10131   0.49786   0.48317   0.00000  Uiso   1.00
C13    C     0.12692   0.40534   0.42089   0.00000  Uiso   1.00
C14    C     0.10227   0.31088   0.35996   0.00000  Uiso   1.00
C15    C     0.12681   0.59082   0.54494   0.00000  Uiso   1.00
C16    C     0.35369   0.49637   0.48839   0.00000  Uiso   1.00
H1     H     0.34623   0.50093   0.71285   0.00000  Uiso   1.00
H2     H     0.25810   0.50156   0.70875   0.00000  Uiso   1.00
H3     H     0.12132   0.23564   0.31284   0.00000  Uiso   1.00
C17    C     0.64695   0.48963   0.50241   0.00000  Uiso   1.00
C18    C     0.97504   0.40734   0.41218   0.00000  Uiso   1.00
C19    C     0.97508   0.58503   0.55946   0.00000  Uiso   1.00
C20    C     0.95005   0.49570   0.48666   0.00000  Uiso   1.00
C21    C     0.94835   0.32427   0.33351   0.00000  Uiso   1.00
C22    C     0.89858   0.32550   0.33454   0.00000  Uiso   1.00
C23    C     0.87395   0.40965   0.41324   0.00000  Uiso   1.00
C24    C     0.89956   0.49464   0.48853   0.00000  Uiso   1.00
C25    C     0.87408   0.57850   0.56585   0.00000  Uiso   1.00
C26    C     0.82390   0.57627   0.56727   0.00000  Uiso   1.00
N2     N     0.79951   0.49211   0.49304   0.00000  Uiso   1.00
C27    C     0.82375   0.40939   0.41627   0.00000  Uiso   1.00
C28    C     0.72347   0.47902   0.62197   0.00000  Uiso   1.00
C29    C     0.67341   0.47740   0.62593   0.00000  Uiso   1.00
C30    C     0.67161   0.50076   0.37645   0.00000  Uiso   1.00
C31    C     0.72158   0.50095   0.37335   0.00000  Uiso   1.00
C32    C     0.74774   0.49053   0.49608   0.00000  Uiso   1.00
O10    O     0.79896   0.32431   0.34530   0.00000  Uiso   1.00
C33    C     0.02582   0.40448   0.41714   0.00000  Uiso   1.00
C34    C     0.05081   0.49732   0.48392   0.00000  Uiso   1.00
C35    C     0.02578   0.58955   0.55165   0.00000  Uiso   1.00
C36    C     0.05250   0.31004   0.35813   0.00000  Uiso   1.00
H4     H     0.74371   0.46970   0.71857   0.00000  Uiso   1.00
H5     H     0.87951   0.25917   0.27200   0.00000  Uiso   1.00
H6     H     0.96446   0.25787   0.26558   0.00000  Uiso   1.00
H7     H     0.03639   0.23075   0.31238   0.00000  Uiso   1.00
O11    O     0.20172   0.68260   0.60138   0.00000  Uiso   1.00
C37    C     0.10207   0.68510   0.60592   0.00000  Uiso   1.00
H8     H     0.34816   0.49214   0.26349   0.00000  Uiso   1.00
H9     H     0.25994   0.49390   0.26118   0.00000  Uiso   1.00
H10    H     0.12102   0.76082   0.65231   0.00000  Uiso   1.00
C38    C     0.94855   0.66709   0.63993   0.00000  Uiso   1.00
C39    C     0.89882   0.66381   0.64252   0.00000  Uiso   1.00
O12    O     0.79922   0.66022   0.64029   0.00000  Uiso   1.00
C40    C     0.05232   0.68492   0.60908   0.00000  Uiso   1.00
H11    H     0.96480   0.73405   0.70686   0.00000  Uiso   1.00
H12    H     0.65228   0.51045   0.27846   0.00000  Uiso   1.00
H13    H     0.87988   0.72929   0.70656   0.00000  Uiso   1.00
H14    H     0.74011   0.51154   0.27415   0.00000  Uiso   1.00
H15    H     0.03608   0.76407   0.65479   0.00000  Uiso   1.00
C41    C     0.49877   0.92691   0.38307   0.00000  Uiso   1.00
C42    C     0.50135   0.85859   0.49876   0.00000  Uiso   1.00
H16    H     0.49670   0.88308   0.28149   0.00000  Uiso   1.00
H17    H     0.50397   0.89788   0.60209   0.00000  Uiso   1.00
C43    C     0.49895   0.06118   0.38492   0.00000  Uiso   1.00
C44    C     0.49865   0.12802   0.50244   0.00000  Uiso   1.00
H18    H     0.49909   0.10636   0.28402   0.00000  Uiso   1.00
H19    H     0.49800   0.08770   0.60551   0.00000  Uiso   1.00
C45    C     0.47689   0.41368   0.92001   0.00000  Uiso   1.00
N3     N     0.49763   0.49620   0.84625   0.00000  Uiso   1.00
H20    H     0.46041   0.33648   0.86846   0.00000  Uiso   1.00
H21    H     0.50613   0.57592   0.89603   0.00000  Uiso   1.00
C46    C     0.47328   0.42364   0.07468   0.00000  Uiso   1.00
N4     N     0.50247   0.49052   0.14602   0.00000  Uiso   1.00
H22    H     0.44573   0.37140   0.12861   0.00000  Uiso   1.00
H23    H     0.53269   0.52283   0.09540   0.00000  Uiso   1.00
O13    O     0.65083   0.46627   0.75311   0.00000  Uiso   1.00
C47    C     0.65064   0.34223   0.78181   0.00000  Uiso   1.00
H24    H     0.68198   0.31926   0.84978   0.00000  Uiso   1.00
H25    H     0.65283   0.28979   0.68275   0.00000  Uiso   1.00
H26    H     0.61649   0.31817   0.83656   0.00000  Uiso   1.00
