# Generated by REPEAT Assigner based on pymatgen
data_DB0-m2_o10_o27_f0_pcu.sym.27
_audit_creation_date              2022-05-24
_audit_creation_method            REPEAT_Assigner
_cell_length_a                    19.135904
_cell_length_b                    8.858978
_cell_length_c                    7.311399
_cell_angle_alpha                 104.316302
_cell_angle_beta                  96.269883
_cell_angle_gamma                 90.004645
_cell_volume                      1193.314870
_symmetry_space_group_name_H-M    P1
_symmetry_Int_Tables_number       1
loop_
    _symmetry_equiv_pos_site_id
    _symmetry_equiv_pos_as_xyz
    1  x,y,z
loop_
    _atom_site_type_symbol
    _atom_site_label
    _atom_site_fract_x
    _atom_site_fract_y
    _atom_site_fract_z
    _atom_type_partial_charge
    O   O1   0.504544  0.291649  0.623955  -0.495432
    O   O2   0.495401  0.710234  0.375428  -0.497197
    O   O3   0.488019  0.260207  0.300867  -0.574873
    O   O4   0.512089  0.741542  0.699588  -0.547209
    C   C1   0.494489  0.203442  0.451908  0.700456
    C   C2   0.504685  0.798379  0.549106  0.675341
    O   O5   0.404240  0.516418  0.659720  -0.587950
    O   O6   0.595781  0.485103  0.340104  -0.594638
    O   O7   0.392617  0.494301  0.337829  -0.569199
    O   O8   0.607470  0.506615  0.662132  -0.553418
    C   C3   0.365960  0.508715  0.498652  0.552535
    C   C4   0.634323  0.491886  0.501073  0.542643
    Cu  Cu1  0.507016  0.520120  0.687928  0.808814
    Cu  Cu2  0.492841  0.482207  0.311095  0.864974
    C   C5   0.261158  0.522756  0.665359  -0.138956
    C   C6   0.739087  0.476498  0.332021  -0.181119
    H   H1   0.295794  0.532481  0.794672  0.126002
    H   H2   0.703549  0.461372  0.201299  0.134418
    C   C7   0.189380  0.522883  0.667161  0.072424
    C   C8   0.811456  0.476948  0.332362  0.117078
    H   H3   0.168346  0.531825  0.800304  0.049402
    H   H4   0.835157  0.462164  0.202336  0.035676
    C   C9   0.145954  0.508695  0.499633  -0.458810
    C   C10  0.854437  0.495017  0.500239  -0.498879
    C   C11  0.174724  0.490623  0.330357  0.143660
    C   C12  0.825339  0.510963  0.668176  0.182323
    H   H5   0.142192  0.473756  0.195401  0.022941
    H   H6   0.859362  0.522197  0.798990  0.008133
    C   C13  0.246272  0.490756  0.329212  -0.191590
    C   C14  0.753347  0.510069  0.668540  -0.208933
    H   H7   0.265847  0.475289  0.192789  0.136255
    H   H8   0.730262  0.521204  0.799596  0.128761
    C   C15  0.289795  0.508813  0.497503  0.101024
    C   C16  0.710508  0.492304  0.500715  0.129282
    N   N1   0.028011  0.484762  0.335492  -0.350177
    N   N2   0.972458  0.515844  0.663657  -0.322307
    N   N3   0.958920  0.481409  0.335074  -0.308358
    N   N4   0.041528  0.519070  0.664008  -0.336479
    C   C17  0.930579  0.496396  0.499242  0.878309
    C   C18  0.069895  0.503340  0.499857  0.889118
    C   C19  0.492732  0.033760  0.426513  -0.251550
    C   C20  0.507571  0.968504  0.575449  -0.202010
    N   N5   0.481478  0.456034  0.029137  -0.127569
    N   N6   0.517838  0.544981  0.968490  -0.107676
    H   H9   0.440571  0.402053  0.929016  0.276346
    H   H10  0.558202  0.607028  0.057886  0.283604
    C   C21  0.471784  0.942111  0.229536  0.684749
    O   O9   0.505330  0.831723  0.153461  -0.421198
    O   O10  0.418530  0.991931  0.125178  -0.427630
    C   C22  0.399403  0.912451  0.939919  0.483532
    C   C23  0.338774  0.991659  0.854026  -0.307000
    H   H11  0.383268  0.791228  0.934757  -0.047090
    H   H12  0.444326  0.912665  0.857047  -0.035641
    H   H13  0.293872  0.994622  0.938341  0.058972
    H   H14  0.322771  0.927226  0.704008  0.055956
    H   H15  0.355829  0.112132  0.858560  0.068672
    C   C24  0.530517  0.063139  0.769191  0.670972
    O   O11  0.496129  0.172100  0.844712  -0.399163
    O   O12  0.582087  0.010518  0.875163  -0.430316
    C   C25  0.598719  0.088008  0.060354  0.457964
    C   C26  0.658873  0.007342  0.146278  -0.292999
    H   H16  0.551659  0.085211  0.135348  -0.012257
    H   H17  0.613927  0.210323  0.066546  -0.036978
    H   H18  0.643448  0.884705  0.137963  0.073963
    H   H19  0.670785  0.070248  0.296835  0.041308
    H   H20  0.706569  0.009807  0.072578  0.058992
