# Generated by REPEAT Assigner based on pymatgen
data_DB0-m2_o3_o7_f0_pcu.sym.49
_audit_creation_date              2022-05-24
_audit_creation_method            REPEAT_Assigner
_cell_length_a                    19.345385
_cell_length_b                    18.036753
_cell_length_c                    17.672496
_cell_angle_alpha                 90.000000
_cell_angle_beta                  90.005931
_cell_angle_gamma                 90.000000
_cell_volume                      6166.427359
_symmetry_space_group_name_H-M    P1
_symmetry_Int_Tables_number       1
loop_
    _symmetry_equiv_pos_site_id
    _symmetry_equiv_pos_as_xyz
    1  x,y,z
loop_
    _atom_site_type_symbol
    _atom_site_label
    _atom_site_fract_x
    _atom_site_fract_y
    _atom_site_fract_z
    _atom_type_partial_charge
    O   O1   0.399283  0.563154  0.499622  -0.518511
    O   O2   0.601038  0.436969  0.500158  -0.515224
    O   O3   0.600086  0.564141  0.506411  -0.532394
    O   O4   0.400215  0.435846  0.493629  -0.535691
    C   C1   0.367214  0.499244  0.496961  0.579215
    C   C2   0.633027  0.500813  0.502844  0.572007
    O   O5   0.501684  0.564069  0.390444  -0.612861
    O   O6   0.498806  0.435938  0.609438  -0.606626
    O   O7   0.493365  0.562957  0.610124  -0.589510
    O   O8   0.506907  0.437075  0.389745  -0.593784
    C   C3   0.505581  0.500759  0.354627  0.674838
    C   C4   0.494771  0.499245  0.645391  0.663651
    Cu  Cu1  0.499556  0.574396  0.500509  0.890945
    Cu  Cu2  0.501078  0.425654  0.499350  0.888495
    C   C5   0.492131  0.565040  0.845920  -0.194247
    C   C6   0.508063  0.434793  0.154144  -0.193865
    C   C7   0.502006  0.566783  0.154090  -0.198634
    C   C8   0.497810  0.432999  0.845753  -0.199180
    H   H1   0.490936  0.616829  0.876658  0.135283
    H   H2   0.509726  0.382950  0.123470  0.134793
    H   H3   0.498916  0.618670  0.123589  0.136127
    H   H4   0.501039  0.381135  0.876200  0.136565
    C   C9   0.490714  0.565194  0.767951  -0.105204
    C   C10  0.509444  0.434797  0.232150  -0.102247
    C   C11  0.503369  0.567002  0.232116  -0.102616
    C   C12  0.496532  0.432906  0.767760  -0.105916
    H   H5   0.487755  0.617707  0.738796  0.114758
    H   H6   0.512436  0.382373  0.261484  0.113375
    H   H7   0.501322  0.619415  0.261413  0.115156
    H   H8   0.498362  0.380568  0.738346  0.117095
    C   C13  0.493492  0.499068  0.728308  -0.048567
    C   C14  0.506619  0.500924  0.271625  -0.055151
    C   C15  0.495868  0.499066  0.884797  0.296568
    C   C16  0.503972  0.500663  0.115091  0.294977
    C   C17  0.498646  0.499472  0.965899  -0.176925
    C   C18  0.501161  0.500148  0.034000  -0.175928
    C   C19  0.744839  0.435151  0.493840  -0.131133
    C   C20  0.255265  0.564865  0.506322  -0.124666
    C   C21  0.255164  0.433133  0.500406  -0.129529
    C   C22  0.744941  0.566920  0.500135  -0.136335
    H   H9   0.718218  0.382907  0.489332  0.125108
    H   H10  0.282202  0.616988  0.510622  0.123069
    H   H11  0.282194  0.380895  0.499777  0.124351
    H   H12  0.718123  0.619176  0.501059  0.127644
    C   C23  0.815979  0.435026  0.493340  -0.086815
    C   C24  0.184042  0.564954  0.507199  -0.094703
    C   C25  0.183861  0.433070  0.501302  -0.101232
    C   C26  0.816160  0.567015  0.499440  -0.096611
    H   H13  0.842802  0.382701  0.488257  0.087210
    H   H14  0.157291  0.617277  0.512444  0.088710
    H   H15  0.156918  0.380716  0.498778  0.108559
    H   H16  0.843069  0.619400  0.502459  0.108167
    C   C27  0.852209  0.500888  0.497118  0.027763
    C   C28  0.147679  0.499129  0.503443  0.032155
    C   C29  0.708806  0.501002  0.499747  0.013396
    C   C30  0.291338  0.499048  0.500397  0.006683
    C   C31  0.965361  0.553204  0.459024  -0.155320
    C   C32  0.034398  0.446611  0.541201  -0.159018
    C   C33  0.036592  0.552958  0.461057  -0.125653
    C   C34  0.963180  0.447091  0.539319  -0.122859
    H   H17  0.939356  0.594237  0.424823  0.101827
    H   H18  0.060435  0.405465  0.575324  0.102936
    H   H19  0.064447  0.594011  0.428518  0.113586
    H   H20  0.935400  0.406139  0.571939  0.113278
    C   C35  0.071667  0.499609  0.502097  0.082706
    C   C36  0.928106  0.500383  0.498310  0.080809
    C   C37  0.462948  0.725888  0.447681  0.506386
    C   C38  0.537343  0.273779  0.552164  0.511537
    C   C39  0.535812  0.726406  0.554180  0.514958
    C   C40  0.463969  0.274129  0.445955  0.510772
    C   C41  0.469002  0.802233  0.443571  -0.514195
    C   C42  0.531279  0.197442  0.555700  -0.515703
    C   C43  0.530648  0.802832  0.556824  -0.506175
    C   C44  0.469088  0.197724  0.442879  -0.507630
    H   H21  0.444949  0.831937  0.397623  0.181431
    H   H22  0.556318  0.167057  0.600419  0.182552
    H   H23  0.554933  0.833239  0.602067  0.176210
    H   H24  0.445299  0.167778  0.396883  0.175776
    C   C45  0.499954  0.841560  0.499892  0.295168
    C   C46  0.499425  0.158568  0.499666  0.298785
    N   N1   0.498817  0.685975  0.501531  -0.473849
    N   N2   0.501107  0.314098  0.498610  -0.473785
    C   C47  0.488800  0.961903  0.566164  -0.157013
    C   C48  0.510555  0.038407  0.433496  -0.156768
    C   C49  0.510778  0.961971  0.433440  -0.160584
    C   C50  0.488616  0.038297  0.566207  -0.159648
    H   H25  0.478261  0.932908  0.618375  0.120190
    H   H26  0.520658  0.067631  0.381278  0.120272
    H   H27  0.521109  0.933139  0.381042  0.119393
    H   H28  0.478042  0.067085  0.618558  0.119106
    C   C51  0.499479  0.077147  0.499827  0.079741
    C   C52  0.499835  0.923104  0.499824  0.082238
    C   C53  0.414216  0.694039  0.389423  -0.295913
    C   C54  0.342143  0.727453  0.396424  0.068271
    C   C55  0.292080  0.684145  0.347076  0.264225
    C   C56  0.220124  0.716940  0.353380  -0.301189
    H   H29  0.406699  0.634564  0.392871  0.112359
    H   H30  0.434518  0.707081  0.332324  0.086177
    H   H31  0.341539  0.785697  0.376827  -0.017756
    H   H32  0.325358  0.725626  0.456291  -0.016189
    H   H33  0.290659  0.625175  0.364533  -0.053360
    H   H34  0.309376  0.687251  0.287376  -0.057537
    H   H35  0.202250  0.714766  0.412940  0.058306
    H   H36  0.183979  0.684773  0.317407  0.061523
    H   H37  0.220915  0.775360  0.333861  0.054683
    C   C57  0.586314  0.305475  0.610384  -0.313051
    C   C58  0.658376  0.271964  0.603087  0.072705
    C   C59  0.708817  0.314504  0.652720  0.260381
    C   C60  0.780681  0.281813  0.645034  -0.298930
    H   H38  0.565898  0.292967  0.667495  0.089156
    H   H39  0.593798  0.364910  0.606253  0.115629
    H   H40  0.674995  0.274876  0.543234  -0.016410
    H   H41  0.659200  0.213411  0.621788  -0.018171
    H   H42  0.692311  0.310405  0.712647  -0.056023
    H   H43  0.710355  0.373741  0.636215  -0.051545
    H   H44  0.780597  0.223727  0.665608  0.055495
    H   H45  0.817398  0.314833  0.679499  0.060660
    H   H46  0.797360  0.283062  0.585027  0.056955
    C   C61  0.581110  0.694502  0.615379  -0.309904
    C   C62  0.653818  0.726706  0.612162  0.062967
    C   C63  0.701375  0.681609  0.662645  0.288932
    C   C64  0.773669  0.713519  0.659925  -0.290296
    H   H47  0.587673  0.634960  0.612437  0.109065
    H   H48  0.558261  0.708193  0.671142  0.092643
    H   H49  0.654918  0.784566  0.633078  -0.017611
    H   H50  0.672843  0.725382  0.553083  -0.020785
    H   H51  0.703478  0.623177  0.643478  -0.053997
    H   H52  0.682192  0.683563  0.721763  -0.065469
    H   H53  0.792317  0.714137  0.600615  0.046174
    H   H54  0.808423  0.678310  0.694559  0.052015
    H   H55  0.773574  0.770771  0.682816  0.055522
    C   C65  0.418649  0.306159  0.384746  -0.291475
    C   C66  0.346010  0.273625  0.387752  0.060155
    C   C67  0.298371  0.319071  0.337718  0.288512
    C   C68  0.226072  0.287102  0.340504  -0.295477
    H   H56  0.441388  0.292186  0.328912  0.088152
    H   H57  0.411910  0.365843  0.386825  0.106019
    H   H58  0.327114  0.273900  0.446920  -0.019755
    H   H59  0.345288  0.215977  0.366234  -0.018814
    H   H60  0.317664  0.317678  0.278631  -0.065663
    H   H61  0.296689  0.377361  0.357311  -0.053695
    H   H62  0.226205  0.229952  0.317372  0.057024
    H   H63  0.190912  0.322252  0.306340  0.052968
    H   H64  0.207770  0.286061  0.399924  0.048327
