# Generated by REPEAT Assigner based on pymatgen
data_DB0-m3_o8_o24_f0_pcu.sym.56_sqe
_audit_creation_date              2022-05-24
_audit_creation_method            REPEAT_Assigner
_cell_length_a                    10.766736
_cell_length_b                    15.922183
_cell_length_c                    17.110883
_cell_angle_alpha                 89.119661
_cell_angle_beta                  90.005862
_cell_angle_gamma                 92.780527
_cell_volume                      2929.517945
_symmetry_space_group_name_H-M    P1
_symmetry_Int_Tables_number       1
loop_
    _symmetry_equiv_pos_site_id
    _symmetry_equiv_pos_as_xyz
    1  x,y,z
loop_
    _atom_site_type_symbol
    _atom_site_label
    _atom_site_fract_x
    _atom_site_fract_y
    _atom_site_fract_z
    _atom_type_partial_charge
    O   O1   0.491279  0.419838  0.615012  -0.711330
    O   O2   0.503243  0.579970  0.388399  -0.708669
    O   O3   0.502182  0.564668  0.621055  -0.683885
    O   O4   0.492331  0.435084  0.382353  -0.698034
    C   C1   0.496560  0.489886  0.654614  0.839143
    C   C2   0.497945  0.509893  0.348805  0.848671
    O   O5   0.676813  0.427147  0.498654  -0.717145
    O   O6   0.317614  0.572610  0.504700  -0.724506
    O   O7   0.687697  0.572197  0.504665  -0.732729
    O   O8   0.306734  0.427616  0.498694  -0.718790
    C   C3   0.739909  0.499583  0.501657  0.744506
    C   C4   0.254503  0.500201  0.501706  0.740830
    Zn  Zn1  0.490057  0.404340  0.497702  1.104822
    Zn  Zn2  0.504362  0.595440  0.505713  1.104449
    C   C5   0.951692  0.421475  0.498417  -0.030987
    C   C6   0.042720  0.578310  0.504933  -0.032241
    C   C7   0.034902  0.456841  0.563064  -0.059629
    C   C8   0.959509  0.542944  0.440285  -0.067276
    H   H1   0.069274  0.421114  0.614157  0.035846
    H   H2   0.925138  0.578671  0.389193  0.036585
    H   H3   0.911712  0.356068  0.495699  0.018752
    H   H4   0.082701  0.643716  0.507651  0.023430
    C   C9   0.116423  0.500319  0.501700  0.071089
    C   C10  0.877989  0.499465  0.501650  0.079618
    C   C11  0.035484  0.464976  0.437053  -0.051677
    C   C12  0.958929  0.534808  0.566296  -0.058934
    H   H5   0.070340  0.436020  0.383280  0.028615
    H   H6   0.924073  0.563764  0.620070  0.027778
    C   C13  0.496178  0.484360  0.740310  -0.249279
    C   C14  0.498367  0.515418  0.263109  -0.249911
    C   C15  0.501621  0.556645  0.784210  -0.042747
    C   C16  0.492912  0.443132  0.219209  -0.046475
    C   C17  0.501252  0.551806  0.864793  -0.151015
    C   C18  0.493303  0.447970  0.138626  -0.154471
    C   C19  0.495379  0.473867  0.902456  0.465843
    C   C20  0.499208  0.525908  0.100962  0.462021
    C   C21  0.489978  0.401952  0.858469  -0.374405
    C   C22  0.504623  0.597824  0.144948  -0.366008
    C   C23  0.490353  0.406871  0.777984  0.097529
    C   C24  0.504228  0.592906  0.225433  0.094760
    N   N1   0.494721  0.465477  0.984931  -0.243107
    N   N2   0.499873  0.534297  0.018487  -0.236979
    H   H7   0.488260  0.381737  0.247141  0.110634
    H   H8   0.506240  0.618038  0.756276  0.108178
    H   H9   0.488886  0.389431  0.107352  0.058659
    H   H10  0.505654  0.610344  0.896067  0.056497
    H   H11  0.485392  0.341057  0.887421  0.132126
    H   H12  0.509232  0.658718  0.115995  0.130289
    H   H13  0.486019  0.349274  0.745304  0.079203
    H   H14  0.508571  0.650504  0.258110  0.080473
    N   N3   0.513645  0.720933  0.511087  -0.106792
    N   N4   0.480661  0.278843  0.492402  -0.103766
    C   C25  0.438677  0.765866  0.465570  0.007474
    C   C26  0.553637  0.233826  0.539182  0.010881
    C   C27  0.441514  0.852331  0.469607  -0.201627
    C   C28  0.547466  0.147212  0.537260  -0.204013
    C   C29  0.521734  0.893388  0.521548  0.341954
    C   C30  0.464509  0.106028  0.487053  0.347938
    C   C31  0.597646  0.845852  0.568196  -0.076146
    C   C32  0.389530  0.153602  0.439812  -0.084607
    C   C33  0.592862  0.759380  0.561440  -0.001499
    C   C34  0.400088  0.240332  0.442909  -0.006525
    N   N5   0.530145  0.982218  0.526392  -0.155660
    N   N6   0.457321  0.017254  0.481432  -0.150272
    H   H15  0.617870  0.265694  0.578649  0.148113
    H   H16  0.375452  0.734044  0.425463  0.148440
    H   H17  0.608938  0.114366  0.575748  0.093103
    H   H18  0.379769  0.885166  0.431293  0.096157
    H   H19  0.650920  0.721875  0.598225  0.150453
    H   H20  0.341219  0.277803  0.406638  0.149780
    C   C35  0.683721  0.885726  0.624595  0.011026
    C   C36  0.807391  0.866188  0.624875  -0.084199
    C   C37  0.888641  0.902150  0.678487  -0.281449
    C   C38  0.846434  0.957292  0.732814  0.314109
    C   C39  0.933083  0.996433  0.791124  -0.386450
    C   C40  0.722757  0.975977  0.733445  -0.214477
    C   C41  0.641527  0.940190  0.679751  -0.119265
    H   H21  0.841748  0.823494  0.582327  0.111308
    H   H22  0.985283  0.886701  0.677467  0.149119
    H   H23  0.028393  0.974752  0.782696  0.103643
    H   H24  0.900739  0.978629  0.850917  0.107447
    H   H25  0.934602  0.065827  0.784020  0.105577
    H   H26  0.689086  0.018487  0.776391  0.128916
    H   H27  0.544327  0.954069  0.682078  0.116720
    C   C42  0.299381  0.113525  0.386001  0.040943
    C   C43  0.297929  0.138588  0.308333  -0.123352
    C   C44  0.212211  0.102402  0.257561  -0.268261
    C   C45  0.126370  0.041446  0.284327  0.309659
    C   C46  0.033148  0.001991  0.230189  -0.376669
    C   C47  0.126382  0.017159  0.362005  -0.199764
    C   C48  0.212230  0.053177  0.412763  -0.137600
    H   H28  0.365152  0.185891  0.286546  0.128816
    H   H29  0.213041  0.122261  0.196861  0.147978
    H   H30  0.045738  0.028559  0.170290  0.101054
    H   H31  0.938185  0.014014  0.251000  0.102658
    H   H32  0.044768  0.933193  0.228990  0.104948
    H   H33  0.058524  0.970036  0.383358  0.119216
    H   H34  0.209326  0.034761  0.473827  0.114843
