# Generated by REPEAT Assigner based on pymatgen
data_DB0-m3_o32_o32_pto.sym.45_sqe
_audit_creation_date              2022-05-24
_audit_creation_method            REPEAT_Assigner
_cell_length_a                    27.480929
_cell_length_b                    27.528119
_cell_length_c                    27.459736
_cell_angle_alpha                 90.182753
_cell_angle_beta                  90.058398
_cell_angle_gamma                 90.056004
_cell_volume                      20773.117158
_symmetry_space_group_name_H-M    P1
_symmetry_Int_Tables_number       1
loop_
    _symmetry_equiv_pos_site_id
    _symmetry_equiv_pos_as_xyz
    1  x,y,z
loop_
    _atom_site_type_symbol
    _atom_site_label
    _atom_site_fract_x
    _atom_site_fract_y
    _atom_site_fract_z
    _atom_type_partial_charge
    C   C1    0.128645  0.957235  0.875914  -0.199291
    C   C2    0.954935  0.093915  0.088494  -0.118297
    C   C3    0.505000  0.356444  0.148084  0.196402
    C   C4    0.502039  0.425627  0.073940  0.107564
    C   C5    0.500766  0.463502  0.036141  0.031606
    C   C6    0.643352  0.645342  0.001060  0.131583
    C   C7    0.571595  0.574341  0.001038  0.085762
    C   C8    0.534349  0.535991  0.001053  0.066165
    C   C9    0.499089  0.534683  0.965248  -0.171505
    C   C10   0.465667  0.462543  0.000000  -0.164239
    C   C11   0.534671  0.500702  0.036667  -0.171851
    C   C12   0.043643  0.124295  0.370428  -0.204372
    C   C13   0.122750  0.043514  0.870531  -0.202193
    C   C14   0.043571  0.088634  0.405543  -0.116502
    C   C15   0.875389  0.869979  0.452945  -0.212274
    C   C16   0.911200  0.905094  0.453438  -0.110461
    C   C17   0.129066  0.956466  0.623849  -0.196570
    C   C18   0.093934  0.956175  0.587970  -0.126049
    C   C19   0.122884  0.042711  0.629532  -0.199463
    C   C20   0.087679  0.042372  0.593740  -0.118883
    C   C21   0.871116  0.873576  0.539619  -0.207182
    C   C22   0.906691  0.908890  0.540067  -0.115931
    C   C23   0.957035  0.128237  0.374305  -0.201585
    C   C24   0.087159  0.043335  0.905830  -0.120152
    C   C25   0.957009  0.092711  0.409565  -0.121492
    C   C26   0.000364  0.144278  0.354548  0.129792
    C   C27   0.000267  0.072579  0.425428  0.101334
    C   C28   0.000235  0.034573  0.462923  0.042197
    C   C29   0.855148  0.853988  0.496050  0.142631
    C   C30   0.927068  0.924932  0.496997  0.093035
    C   C31   0.964861  0.962810  0.497540  0.045477
    C   C32   0.143813  0.999754  0.644811  0.122580
    C   C33   0.072973  0.999122  0.572609  0.104283
    C   C34   0.035571  0.998850  0.534276  0.042765
    C   C35   0.143684  0.000452  0.855349  0.122333
    C   C36   0.035380  0.034497  0.498955  -0.162771
    C   C37   0.965038  0.998681  0.462432  -0.163604
    C   C38   0.000285  0.963040  0.533336  -0.165491
    C   C39   0.456089  0.123427  0.370637  -0.199923
    C   C40   0.455563  0.088095  0.406151  -0.123345
    C   C41   0.623473  0.871222  0.456285  -0.197008
    C   C42   0.587670  0.906151  0.456843  -0.118954
    C   C43   0.369642  0.955443  0.624995  -0.202878
    C   C44   0.404983  0.955612  0.589448  -0.115825
    C   C45   0.373608  0.041915  0.629499  -0.203734
    C   C46   0.072097  0.000144  0.926479  0.106189
    C   C47   0.409106  0.042035  0.594108  -0.116935
    C   C48   0.628920  0.875485  0.542896  -0.200192
    C   C49   0.593212  0.910667  0.543401  -0.123286
    C   C50   0.542600  0.127723  0.376413  -0.197131
    C   C51   0.542021  0.092663  0.412031  -0.120018
    C   C52   0.499665  0.143326  0.355472  0.127805
    C   C53   0.498558  0.072411  0.427071  0.100747
    C   C54   0.498316  0.034623  0.464757  0.048724
    C   C55   0.644331  0.855660  0.499285  0.125760
    C   C56   0.572350  0.926286  0.500350  0.101836
    C   C57   0.034227  0.999994  0.964165  0.042764
    C   C58   0.534419  0.963878  0.500601  0.046175
    C   C59   0.353719  0.998606  0.645194  0.129114
    C   C60   0.425034  0.998895  0.573780  0.095542
    C   C61   0.462855  0.999039  0.536022  0.051100
    C   C62   0.462741  0.034262  0.500255  -0.170149
    C   C63   0.533996  0.999305  0.465087  -0.168984
    C   C64   0.498815  0.963967  0.536065  -0.170105
    C   C65   0.870120  0.622075  0.451440  -0.316113
    C   C66   0.908157  0.589457  0.453529  -0.064157
    C   C67   0.129944  0.544959  0.624302  -0.203720
    C   C68   0.998063  0.144954  0.144568  0.126610
    C   C69   0.094754  0.544858  0.588486  -0.119659
    C   C70   0.043648  0.374508  0.372020  -0.209959
    C   C71   0.043457  0.409891  0.407633  -0.108669
    C   C72   0.957179  0.368868  0.377068  -0.200075
    C   C73   0.957045  0.404046  0.412871  -0.114985
    C   C74   0.122895  0.458866  0.631098  -0.202369
    C   C75   0.087620  0.458823  0.595448  -0.115896
    C   C76   0.871950  0.627817  0.538340  -0.184635
    C   C77   0.908153  0.593291  0.539968  -0.126426
    C   C78   0.852336  0.642850  0.494400  0.191208
    C   C79   0.998194  0.073306  0.073283  0.102135
    C   C80   0.926821  0.573953  0.497510  0.105499
    C   C81   0.964719  0.536132  0.498884  0.031199
    C   C82   0.144289  0.501927  0.645728  0.127906
    C   C83   0.073379  0.501768  0.573753  0.096578
    C   C84   0.035949  0.501384  0.535529  0.051890
    C   C85   0.000480  0.353951  0.356371  0.133731
    C   C86   0.000153  0.425005  0.428276  0.087647
    C   C87   0.999951  0.463457  0.465522  0.065799
    C   C88   0.964329  0.498784  0.465031  -0.171841
    C   C89   0.000770  0.537230  0.534072  -0.162055
    C   C90   0.998327  0.035497  0.035421  0.046309
    C   C91   0.035597  0.464844  0.500935  -0.172466
    C   C92   0.501056  0.315347  0.319864  0.624049
    C   C93   0.500731  0.180860  0.317776  0.632819
    C   C94   0.503279  0.182451  0.182823  0.638674
    C   C95   0.503903  0.317656  0.185201  0.527808
    C   C96   0.316781  0.500940  0.683593  0.640791
    C   C97   0.316749  0.498092  0.818405  0.641692
    C   C98   0.181886  0.498981  0.818360  0.642554
    C   C99   0.181926  0.501830  0.683540  0.641787
    C   C100  0.680476  0.683725  0.498315  0.620299
    C   C101  0.854584  0.854289  0.999002  0.126689
    C   C102  0.815047  0.681528  0.495420  0.531761
    C   C103  0.817022  0.816704  0.495684  0.633783
    C   C104  0.682158  0.818202  0.498275  0.635429
    C   C105  0.621728  0.630455  0.455476  -0.170155
    C   C106  0.586580  0.594677  0.455950  -0.136773
    C   C107  0.369599  0.543755  0.624855  -0.199786
    C   C108  0.404988  0.543533  0.589299  -0.122438
    C   C109  0.457622  0.373744  0.372451  -0.191711
    C   C110  0.457323  0.409540  0.407609  -0.127456
    C   C111  0.544049  0.368519  0.378637  -0.168073
    C   C112  0.093117  0.957107  0.911278  -0.123213
    C   C113  0.925494  0.926108  0.999381  0.101560
    C   C114  0.543716  0.404442  0.413745  -0.137521
    C   C115  0.375353  0.457549  0.630892  -0.197314
    C   C116  0.410847  0.457375  0.595444  -0.125016
    C   C117  0.627968  0.625665  0.541982  -0.194426
    C   C118  0.592772  0.590016  0.542422  -0.125534
    C   C119  0.642703  0.646096  0.498510  0.116954
    C   C120  0.571845  0.574216  0.499435  0.105202
    C   C121  0.534489  0.536028  0.500040  0.053619
    C   C122  0.354520  0.500750  0.645853  0.124771
    C   C123  0.425933  0.500352  0.574317  0.105583
    C   C124  0.963075  0.964090  0.999566  0.046120
    C   C125  0.463741  0.500135  0.536431  0.046971
    C   C126  0.500985  0.353036  0.357693  0.112649
    C   C127  0.500345  0.425212  0.428473  0.107156
    C   C128  0.499909  0.463616  0.465725  0.052019
    C   C129  0.534839  0.499721  0.465211  -0.174163
    C   C130  0.498929  0.536037  0.535603  -0.171500
    C   C131  0.464405  0.464022  0.501344  -0.170495
    C   C132  0.596332  0.368132  0.151331  0.839143
    C   C133  0.649670  0.370260  0.218909  0.433126
    C   C134  0.647116  0.377271  0.273515  -0.302803
    C   C135  0.998781  0.964381  0.964190  -0.165763
    C   C136  0.849143  0.630760  0.403030  0.839109
    C   C137  0.781583  0.628204  0.349706  0.439209
    C   C138  0.727064  0.620989  0.352320  -0.307474
    C   C139  0.033832  0.035463  0.999850  -0.164949
    C   C140  0.963005  0.999740  0.035110  -0.167831
    C   C141  0.816372  0.682051  0.001196  0.642513
    C   C142  0.681446  0.682612  0.001131  0.640490
    C   C143  0.682130  0.817043  0.998770  0.637866
    C   C144  0.816944  0.816553  0.998850  0.640781
    C   C145  0.316182  0.998931  0.817845  0.638456
    C   C146  0.041335  0.124394  0.129407  -0.199990
    C   C147  0.316087  0.998457  0.682921  0.640008
    C   C148  0.181383  0.000129  0.682777  0.639169
    C   C149  0.181428  0.000603  0.817722  0.645314
    C   C150  0.000434  0.182126  0.317116  0.636041
    C   C151  0.000580  0.316667  0.318184  0.636120
    C   C152  0.998150  0.317346  0.183273  0.645835
    C   C153  0.998007  0.182689  0.182318  0.639916
    C   C154  0.370032  0.956301  0.875741  -0.203552
    C   C155  0.405778  0.956648  0.910994  -0.114641
    C   C156  0.459260  0.125627  0.128680  -0.205056
    C   C157  0.041375  0.088783  0.094039  -0.121203
    C   C158  0.458753  0.090243  0.093061  -0.115791
    C   C159  0.624219  0.870393  0.042133  -0.200716
    C   C160  0.588937  0.905945  0.042171  -0.121050
    C   C161  0.629190  0.875268  0.955568  -0.203686
    C   C162  0.593956  0.910872  0.955653  -0.118875
    C   C163  0.545860  0.129000  0.124290  -0.210168
    C   C164  0.545308  0.093827  0.088435  -0.109318
    C   C165  0.374409  0.042672  0.870852  -0.201229
    C   C166  0.410337  0.042970  0.905934  -0.123143
    C   C167  0.354102  0.999317  0.855459  0.129112
    C   C168  0.875005  0.869744  0.042373  -0.200901
    C   C169  0.426321  0.999964  0.926309  0.099347
    C   C170  0.464653  0.000236  0.963747  0.046666
    C   C171  0.502824  0.145134  0.144614  0.136646
    C   C172  0.501761  0.074055  0.072608  0.090690
    C   C173  0.501203  0.036143  0.034731  0.050305
    C   C174  0.644571  0.854832  0.998822  0.128404
    C   C175  0.573560  0.926496  0.998946  0.101628
    C   C176  0.536032  0.964503  0.999032  0.047290
    C   C177  0.500147  0.964690  0.963748  -0.168367
    C   C178  0.465424  0.035928  0.999283  -0.169547
    C   C179  0.910250  0.905382  0.042538  -0.121053
    C   C180  0.536353  0.000266  0.034451  -0.167030
    C   C181  0.128422  0.542426  0.876242  -0.197808
    C   C182  0.092990  0.542549  0.911759  -0.123319
    C   C183  0.041585  0.375595  0.130531  -0.197593
    C   C184  0.041723  0.410982  0.095120  -0.124013
    C   C185  0.874184  0.628594  0.044390  -0.196308
    C   C186  0.909722  0.593281  0.044275  -0.122695
    C   C187  0.869863  0.624296  0.957740  -0.199602
    C   C188  0.905252  0.588831  0.957670  -0.121543
    C   C189  0.955124  0.370378  0.124927  -0.194808
    C   C190  0.869820  0.874916  0.955818  -0.203693
    C   C191  0.955308  0.405704  0.089451  -0.123563
    C   C192  0.123834  0.456016  0.871800  -0.200877
    C   C193  0.088260  0.456184  0.907168  -0.119731
    C   C194  0.144113  0.499146  0.856068  0.122335
    C   C195  0.072571  0.499438  0.927493  0.104149
    C   C196  0.034674  0.499567  0.965310  0.043671
    C   C197  0.998276  0.355072  0.145676  0.119492
    C   C198  0.998599  0.426303  0.074268  0.105875
    C   C199  0.998768  0.464036  0.036479  0.043118
    C   C200  0.854057  0.644362  0.001113  0.123731
    C   C201  0.905007  0.910612  0.956031  -0.117696
    C   C202  0.925512  0.573052  0.000929  0.103570
    C   C203  0.963294  0.535231  0.000867  0.043531
    C   C204  0.999047  0.535001  0.965475  -0.165068
    C   C205  0.034372  0.464216  0.000959  -0.164771
    C   C206  0.963318  0.499608  0.036230  -0.165197
    C   C207  0.369597  0.541086  0.877064  -0.201399
    C   C208  0.405105  0.541074  0.912486  -0.116577
    C   C209  0.461126  0.371742  0.128547  -0.185789
    C   C210  0.459573  0.406403  0.092512  -0.128702
    C   C211  0.622554  0.630463  0.044302  -0.202991
    C   C212  0.954847  0.129477  0.123928  -0.203528
    C   C213  0.586823  0.595313  0.044264  -0.108780
    C   C214  0.627899  0.624751  0.957778  -0.207975
    C   C215  0.592365  0.589394  0.957797  -0.111495
    C   C216  0.547970  0.377110  0.130412  -0.318931
    C   C217  0.545950  0.409881  0.092542  -0.064555
    C   C218  0.375436  0.454837  0.870871  -0.202244
    C   C219  0.411205  0.454885  0.906104  -0.121020
    C   C220  0.354528  0.497970  0.856066  0.128025
    C   C221  0.426320  0.498019  0.927178  0.097069
    C   C222  0.464406  0.498317  0.964778  0.051171
    H   H1    0.144619  0.923063  0.864974  0.142826
    H   H2    0.920774  0.083246  0.072129  0.107478
    H   H3    0.920896  0.581205  0.575111  0.110491
    H   H4    0.936155  0.497141  0.437709  0.108665
    H   H5    0.001404  0.566049  0.560791  0.110733
    H   H6    0.063331  0.437108  0.501625  0.107831
    H   H7    0.632234  0.646079  0.421026  0.124866
    H   H8    0.570068  0.583668  0.421931  0.108937
    H   H9    0.353701  0.578034  0.635565  0.141598
    H   H10   0.415242  0.577549  0.572674  0.107784
    H   H11   0.423407  0.362619  0.356520  0.141366
    H   H12   0.423043  0.425902  0.417678  0.109043
    H   H13   0.133557  0.077797  0.854829  0.142255
    H   H14   0.578416  0.352678  0.368118  0.124167
    H   H15   0.577758  0.415342  0.430214  0.108692
    H   H16   0.364551  0.423413  0.646917  0.142433
    H   H17   0.427335  0.423210  0.585281  0.107621
    H   H18   0.643921  0.636917  0.576179  0.142100
    H   H19   0.582700  0.573886  0.576789  0.108568
    H   H20   0.562593  0.499563  0.437408  0.111012
    H   H21   0.498682  0.564309  0.562936  0.109752
    H   H22   0.436992  0.435911  0.501717  0.109644
    H   H23   0.673304  0.398835  0.203108  -0.027046
    H   H24   0.070570  0.077373  0.916263  0.107151
    H   H25   0.665059  0.333866  0.210889  -0.048086
    H   H26   0.628938  0.412259  0.281890  0.082440
    H   H27   0.684445  0.377474  0.288879  0.052492
    H   H28   0.626138  0.347030  0.289745  0.106636
    H   H29   0.797526  0.599610  0.326076  -0.028482
    H   H30   0.789362  0.664575  0.334254  -0.049620
    H   H31   0.718929  0.586000  0.370501  0.083260
    H   H32   0.711671  0.620665  0.314978  0.053689
    H   H33   0.710686  0.651199  0.373353  0.107717
    H   H34   0.998993  0.936586  0.936370  0.107669
    H   H35   0.061479  0.063347  0.999942  0.107191
    H   H36   0.935179  0.999649  0.062832  0.108682
    H   H37   0.354527  0.921903  0.864706  0.141177
    H   H38   0.416671  0.922581  0.927078  0.105143
    H   H39   0.425082  0.137238  0.144228  0.140339
    H   H40   0.424266  0.074668  0.082313  0.106038
    H   H41   0.082792  0.922956  0.927585  0.107329
    H   H42   0.635289  0.854830  0.076465  0.143067
    H   H43   0.572847  0.916680  0.076431  0.105772
    H   H44   0.644684  0.864042  0.921191  0.142172
    H   H45   0.583388  0.927044  0.921445  0.107482
    H   H46   0.580408  0.143929  0.135759  0.146496
    H   H47   0.579406  0.082745  0.072338  0.106445
    H   H48   0.362945  0.076820  0.855343  0.142529
    H   H49   0.426467  0.077269  0.916358  0.108695
    H   H50   0.499823  0.936793  0.936036  0.108441
    H   H51   0.437825  0.063795  0.999391  0.110501
    H   H52   0.075627  0.135521  0.145174  0.142540
    H   H53   0.564286  0.000130  0.062112  0.108862
    H   H54   0.143892  0.576668  0.864928  0.141945
    H   H55   0.082281  0.576812  0.927747  0.107179
    H   H56   0.075847  0.364583  0.146329  0.141969
    H   H57   0.075980  0.427202  0.084753  0.106963
    H   H58   0.862825  0.643917  0.078813  0.140379
    H   H59   0.925676  0.582509  0.078549  0.109210
    H   H60   0.854516  0.635652  0.923380  0.141866
    H   H61   0.916046  0.572915  0.923335  0.106139
    H   H62   0.920755  0.354736  0.135795  0.140708
    H   H63   0.075597  0.072520  0.083623  0.106370
    H   H64   0.921169  0.416192  0.073034  0.109013
    H   H65   0.135106  0.421663  0.856409  0.141009
    H   H66   0.072189  0.422028  0.917895  0.107247
    H   H67   0.999140  0.562705  0.937748  0.107900
    H   H68   0.062133  0.436503  0.001064  0.107203
    H   H69   0.935448  0.499564  0.063900  0.111490
    H   H70   0.353536  0.575288  0.866537  0.143960
    H   H71   0.415268  0.575189  0.929201  0.104470
    H   H72   0.427003  0.357123  0.141371  0.140377
    H   H73   0.424484  0.418671  0.079814  0.111397
    H   H74   0.864015  0.854040  0.076653  0.143800
    H   H75   0.633591  0.646297  0.078631  0.143114
    H   H76   0.570431  0.585104  0.078482  0.100999
    H   H77   0.643783  0.635456  0.923471  0.144307
    H   H78   0.581992  0.572850  0.923596  0.107690
    H   H79   0.579697  0.424093  0.078400  0.124104
    H   H80   0.364594  0.420641  0.854760  0.141456
    H   H81   0.427875  0.420817  0.916107  0.109376
    H   H82   0.498596  0.562361  0.937494  0.108229
    H   H83   0.438893  0.433857  0.999326  0.111944
    H   H84   0.561904  0.502249  0.064934  0.107707
    H   H85   0.926423  0.916041  0.076826  0.107665
    H   H86   0.078036  0.135866  0.355354  0.141673
    H   H87   0.077832  0.072782  0.416420  0.107084
    H   H88   0.863886  0.854981  0.418392  0.147051
    H   H89   0.927228  0.916081  0.419292  0.106846
    H   H90   0.145035  0.922364  0.634829  0.142100
    H   H91   0.083921  0.921959  0.571369  0.108636
    H   H92   0.133433  0.077057  0.645513  0.140681
    H   H93   0.071135  0.076361  0.583264  0.106033
    H   H94   0.855639  0.862079  0.573851  0.140657
    H   H95   0.917464  0.924535  0.574564  0.106296
    H   H96   0.854226  0.863795  0.921410  0.141928
    H   H97   0.922684  0.143487  0.362860  0.142840
    H   H98   0.922710  0.081687  0.425250  0.106355
    H   H99   0.062884  0.062515  0.499535  0.106533
    H   H100  0.937450  0.998711  0.434429  0.108948
    H   H101  0.000351  0.935123  0.560848  0.109326
    H   H102  0.422032  0.134800  0.354650  0.142043
    H   H103  0.421154  0.072196  0.416512  0.108381
    H   H104  0.634384  0.856013  0.421671  0.138722
    H   H105  0.571151  0.916696  0.422766  0.106498
    H   H106  0.354432  0.921082  0.636299  0.141513
    H   H107  0.915467  0.926948  0.921880  0.106248
    H   H108  0.415928  0.921452  0.573397  0.105792
    H   H109  0.362114  0.076169  0.644946  0.143170
    H   H110  0.424935  0.076300  0.583371  0.106047
    H   H111  0.644830  0.864145  0.577007  0.142210
    H   H112  0.582633  0.926493  0.577848  0.108316
    H   H113  0.577183  0.142997  0.365709  0.138854
    H   H114  0.576048  0.082095  0.428619  0.106866
    H   H115  0.434745  0.061738  0.500096  0.109742
    H   H116  0.561805  0.999398  0.437362  0.110469
    H   H117  0.499059  0.936403  0.563934  0.110449
    H   H118  0.920505  0.145127  0.134873  0.142971
    H   H119  0.922368  0.575153  0.419784  0.123383
    H   H120  0.146317  0.579114  0.634824  0.142657
    H   H121  0.085027  0.578815  0.571446  0.108675
    H   H122  0.077997  0.363763  0.356225  0.142605
    H   H123  0.077570  0.426423  0.418153  0.107524
    H   H124  0.922936  0.353056  0.365882  0.144007
    H   H125  0.922781  0.414303  0.429166  0.101959
    H   H126  0.133082  0.424739  0.647513  0.144473
    H   H127  0.070660  0.424776  0.585520  0.104451
    H   H128  0.859052  0.642532  0.572460  0.140085
    O   O1    0.799614  0.697526  0.043181  -0.670354
    O   O2    0.299132  0.040641  0.802361  -0.686982
    O   O3    0.300975  0.956543  0.699737  -0.670706
    O   O4    0.299072  0.040274  0.698343  -0.686854
    O   O5    0.198432  0.958420  0.698263  -0.686878
    O   O6    0.196522  0.042146  0.699648  -0.669198
    O   O7    0.198457  0.958793  0.802306  -0.688872
    O   O8    0.196554  0.042512  0.800910  -0.671930
    O   O9    0.042406  0.199012  0.301969  -0.669706
    O   O10   0.958513  0.197592  0.300304  -0.685808
    O   O11   0.042535  0.300042  0.302711  -0.669066
    O   O12   0.800967  0.698823  0.959246  -0.688516
    O   O13   0.958654  0.301335  0.301139  -0.687127
    O   O14   0.040058  0.301881  0.200093  -0.689103
    O   O15   0.956189  0.300452  0.198461  -0.671012
    O   O16   0.039931  0.198078  0.199331  -0.688621
    O   O17   0.956056  0.199404  0.197687  -0.668772
    O   O18   0.459140  0.301075  0.302079  -0.662593
    O   O19   0.542867  0.297824  0.304884  -0.673141
    O   O20   0.459398  0.198683  0.301748  -0.684238
    O   O21   0.543282  0.195395  0.301928  -0.664832
    O   O22   0.461568  0.200150  0.197708  -0.682187
    O   O23   0.698365  0.697923  0.043137  -0.672508
    O   O24   0.545250  0.196525  0.200746  -0.676545
    O   O25   0.461376  0.302628  0.200947  -0.648854
    O   O26   0.544817  0.298862  0.200759  -0.588728
    O   O27   0.300174  0.542876  0.699128  -0.670865
    O   O28   0.301093  0.459133  0.700260  -0.687167
    O   O29   0.301522  0.540050  0.801778  -0.689167
    O   O30   0.299724  0.456316  0.802843  -0.670639
    O   O31   0.197564  0.540792  0.801684  -0.688418
    O   O32   0.198503  0.457048  0.802830  -0.671759
    O   O33   0.198989  0.543604  0.699067  -0.671131
    O   O34   0.697014  0.699196  0.959189  -0.687443
    O   O35   0.197120  0.459879  0.700209  -0.688618
    O   O36   0.695375  0.701067  0.456424  -0.673210
    O   O37   0.698231  0.698193  0.540221  -0.661579
    O   O38   0.799410  0.700121  0.454439  -0.588673
    O   O39   0.799280  0.696714  0.537954  -0.649063
    O   O40   0.799131  0.802437  0.453720  -0.676815
    O   O41   0.802213  0.799188  0.537474  -0.681086
    O   O42   0.698032  0.803493  0.455720  -0.664826
    O   O43   0.698238  0.800579  0.539677  -0.683896
    O   O44   0.630897  0.361340  0.124344  -0.574846
    O   O45   0.697520  0.800275  0.040733  -0.687720
    O   O46   0.603792  0.373716  0.199574  -0.464024
    O   O47   0.876050  0.637489  0.368406  -0.574970
    O   O48   0.800963  0.624982  0.395607  -0.466195
    O   O49   0.698873  0.801568  0.956786  -0.670439
    O   O50   0.801466  0.799891  0.040784  -0.686846
    O   O51   0.800054  0.801189  0.956843  -0.670978
    O   O52   0.300997  0.956911  0.801019  -0.670880
    Zn  Zn1   0.749271  0.749926  0.055094  1.295042
    Zn  Zn2   0.248979  0.444995  0.750468  1.294453
    Zn  Zn3   0.747668  0.750923  0.441951  1.275612
    Zn  Zn4   0.749827  0.749480  0.551960  1.287525
    Zn  Zn5   0.749212  0.749168  0.944882  1.293308
    Zn  Zn6   0.248785  0.944561  0.750336  1.293796
    Zn  Zn7   0.248748  0.054499  0.750317  1.292771
    Zn  Zn8   0.054351  0.249740  0.250054  1.293871
    Zn  Zn9   0.944225  0.249717  0.250376  1.292396
    Zn  Zn10  0.447245  0.249893  0.250287  1.288701
    Zn  Zn11  0.557183  0.247931  0.252406  1.275483
    Zn  Zn12  0.249691  0.554923  0.751486  1.294751
