data_DB0-m3_o11_o29_f0_pcu.sym.27_repeat
_audit_creation_date              2024-02-20
_audit_creation_method            'Materials Studio'
_symmetry_space_group_name_H-M    'P1'
_symmetry_Int_Tables_number       1
_symmetry_cell_setting            triclinic
loop_
_symmetry_equiv_pos_as_xyz
  x,y,z
_cell_length_a                    27.5917
_cell_length_b                    11.1314
_cell_length_c                    9.9478
_cell_angle_alpha                 89.9974
_cell_angle_beta                  89.9930
_cell_angle_gamma                 89.9936
loop_
_atom_site_label
_atom_site_type_symbol
_atom_site_fract_x
_atom_site_fract_y
_atom_site_fract_z
_atom_site_U_iso_or_equiv
_atom_site_adp_type
_atom_site_occupancy
O1     O     0.50256   0.32124   0.61945   0.00000  Uiso   1.00
O2     O     0.49748   0.32084   0.38835   0.00000  Uiso   1.00
C1     C     0.49950   0.26495   0.50427   0.00000  Uiso   1.00
O3     O     0.43202   0.50441   0.63595   0.00000  Uiso   1.00
O4     O     0.42711   0.50270   0.40465   0.00000  Uiso   1.00
C2     C     0.40685   0.50584   0.52381   0.00000  Uiso   1.00
Zn1    Zn    0.50512   0.50008   0.65594   0.00000  Uiso   1.00
Zn2    Zn    0.49787   0.49979   0.35075   0.00000  Uiso   1.00
O5     O     0.50567   0.67892   0.61872   0.00000  Uiso   1.00
O6     O     0.50048   0.67896   0.38667   0.00000  Uiso   1.00
O7     O     0.57589   0.49675   0.60219   0.00000  Uiso   1.00
O8     O     0.57097   0.49489   0.37054   0.00000  Uiso   1.00
C3     C     0.50342   0.73487   0.50285   0.00000  Uiso   1.00
C4     C     0.59608   0.49483   0.48287   0.00000  Uiso   1.00
C5     C     0.17800   0.39988   0.54183   0.00000  Uiso   1.00
O9     O     0.20349   0.29705   0.53851   0.00000  Uiso   1.00
N1     N     0.20158   0.50565   0.54827   0.00000  Uiso   1.00
C6     C     0.17672   0.60976   0.54925   0.00000  Uiso   1.00
C7     C     0.27638   0.55946   0.43583   0.00000  Uiso   1.00
C8     C     0.32637   0.56111   0.42859   0.00000  Uiso   1.00
C9     C     0.33024   0.46132   0.64155   0.00000  Uiso   1.00
C10    C     0.28026   0.45923   0.64743   0.00000  Uiso   1.00
C11    C     0.25324   0.50811   0.54434   0.00000  Uiso   1.00
C12    C     0.10185   0.50253   0.53265   0.00000  Uiso   1.00
C13    C     0.12792   0.39710   0.53322   0.00000  Uiso   1.00
C14    C     0.10383   0.28935   0.52436   0.00000  Uiso   1.00
C15    C     0.12665   0.60942   0.54231   0.00000  Uiso   1.00
C16    C     0.35365   0.51035   0.53148   0.00000  Uiso   1.00
H1     H     0.35083   0.42130   0.72241   0.00000  Uiso   1.00
H2     H     0.26237   0.41948   0.73330   0.00000  Uiso   1.00
H3     H     0.12313   0.20496   0.52790   0.00000  Uiso   1.00
C17    C     0.64921   0.49399   0.47669   0.00000  Uiso   1.00
C18    C     0.97734   0.39288   0.48175   0.00000  Uiso   1.00
C19    C     0.97513   0.60568   0.52342   0.00000  Uiso   1.00
C20    C     0.95124   0.49846   0.49636   0.00000  Uiso   1.00
C21    C     0.95260   0.28966   0.44323   0.00000  Uiso   1.00
C22    C     0.90308   0.28881   0.42795   0.00000  Uiso   1.00
C23    C     0.87644   0.39233   0.45149   0.00000  Uiso   1.00
C24    C     0.90091   0.49683   0.48449   0.00000  Uiso   1.00
C25    C     0.87453   0.60011   0.50659   0.00000  Uiso   1.00
C26    C     0.82460   0.59817   0.49863   0.00000  Uiso   1.00
N2     N     0.80124   0.49598   0.46764   0.00000  Uiso   1.00
C27    C     0.82591   0.39396   0.44315   0.00000  Uiso   1.00
C28    C     0.72551   0.51256   0.58928   0.00000  Uiso   1.00
C29    C     0.67566   0.51166   0.59314   0.00000  Uiso   1.00
C30    C     0.67334   0.47608   0.35640   0.00000  Uiso   1.00
C31    C     0.72342   0.47537   0.35321   0.00000  Uiso   1.00
C32    C     0.74959   0.49433   0.46968   0.00000  Uiso   1.00
O10    O     0.80068   0.29369   0.41575   0.00000  Uiso   1.00
C33    C     0.02749   0.39293   0.50372   0.00000  Uiso   1.00
C34    C     0.05159   0.50119   0.52130   0.00000  Uiso   1.00
C35    C     0.02586   0.60817   0.52677   0.00000  Uiso   1.00
C36    C     0.05434   0.28699   0.50988   0.00000  Uiso   1.00
H4     H     0.65792   0.52631   0.68856   0.00000  Uiso   1.00
H5     H     0.74573   0.52670   0.68100   0.00000  Uiso   1.00
H6     H     0.97070   0.20700   0.41875   0.00000  Uiso   1.00
H7     H     0.03827   0.19902   0.50814   0.00000  Uiso   1.00
O11    O     0.20088   0.71430   0.55773   0.00000  Uiso   1.00
C37    C     0.10139   0.71578   0.54171   0.00000  Uiso   1.00
H8     H     0.25475   0.59765   0.35590   0.00000  Uiso   1.00
H9     H     0.11988   0.80123   0.54630   0.00000  Uiso   1.00
C38    C     0.94753   0.70802   0.54786   0.00000  Uiso   1.00
C39    C     0.89798   0.70488   0.53961   0.00000  Uiso   1.00
O12    O     0.79896   0.69882   0.52120   0.00000  Uiso   1.00
C40    C     0.05173   0.71549   0.53418   0.00000  Uiso   1.00
H10    H     0.96266   0.79249   0.57903   0.00000  Uiso   1.00
H11    H     0.65347   0.46175   0.26418   0.00000  Uiso   1.00
H12    H     0.87812   0.78646   0.56027   0.00000  Uiso   1.00
H13    H     0.74207   0.46153   0.25889   0.00000  Uiso   1.00
H14    H     0.03510   0.80268   0.52920   0.00000  Uiso   1.00
C41    C     0.49894   0.93349   0.39596   0.00000  Uiso   1.00
C42    C     0.50438   0.86642   0.50670   0.00000  Uiso   1.00
H15    H     0.49460   0.88947   0.29957   0.00000  Uiso   1.00
H16    H     0.50973   0.90607   0.60453   0.00000  Uiso   1.00
C43    C     0.49910   0.06662   0.39626   0.00000  Uiso   1.00
C44    C     0.49877   0.13338   0.50830   0.00000  Uiso   1.00
H17    H     0.49900   0.11092   0.29928   0.00000  Uiso   1.00
H18    H     0.49791   0.09353   0.60713   0.00000  Uiso   1.00
C45    C     0.49820   0.59000   0.92852   0.00000  Uiso   1.00
N3     N     0.51191   0.50093   0.85614   0.00000  Uiso   1.00
H19    H     0.48384   0.67008   0.88113   0.00000  Uiso   1.00
H20    H     0.53050   0.43471   0.90651   0.00000  Uiso   1.00
C46    C     0.50566   0.58819   0.07549   0.00000  Uiso   1.00
N4     N     0.49202   0.49983   0.15033   0.00000  Uiso   1.00
H21    H     0.52428   0.66358   0.12107   0.00000  Uiso   1.00
N5     N     0.45512   0.42796   0.09944   0.00000  Uiso   1.00
H22    H     0.46962   0.36436   0.03386   0.00000  Uiso   1.00
H23    H     0.42912   0.48186   0.05275   0.00000  Uiso   1.00
N6     N     0.88060   0.17948   0.38722   0.00000  Uiso   1.00
H24    H     0.89558   0.15436   0.29501   0.00000  Uiso   1.00
H25    H     0.88932   0.11379   0.45813   0.00000  Uiso   1.00
N7     N     0.34938   0.61864   0.31733   0.00000  Uiso   1.00
H26    H     0.32295   0.64675   0.24927   0.00000  Uiso   1.00
H27    H     0.36679   0.69533   0.35374   0.00000  Uiso   1.00
