# Generated by REPEAT Assigner based on pymatgen
data_DB0-m3_o22_o24_f0_nbo.sym.50
_audit_creation_date              2022-05-24
_audit_creation_method            REPEAT_Assigner
_cell_length_a                    18.688105
_cell_length_b                    18.587753
_cell_length_c                    18.662159
_cell_angle_alpha                 109.248260
_cell_angle_beta                  109.643619
_cell_angle_gamma                 109.461107
_cell_volume                      4994.051924
_symmetry_space_group_name_H-M    P1
_symmetry_Int_Tables_number       1
loop_
    _symmetry_equiv_pos_site_id
    _symmetry_equiv_pos_as_xyz
    1  x,y,z
loop_
    _atom_site_type_symbol
    _atom_site_label
    _atom_site_fract_x
    _atom_site_fract_y
    _atom_site_fract_z
    _atom_type_partial_charge
    O   O1   0.588082  0.537409  0.439593  -0.697574
    O   O2   0.593753  0.644794  0.551721  -0.671923
    C   C1   0.620208  0.620125  0.495899  0.449178
    O   O3   0.405603  0.447740  0.349850  -0.717455
    O   O4   0.406400  0.553161  0.459498  -0.677412
    C   C2   0.377435  0.501274  0.376617  0.634821
    Zn  Zn1  0.496460  0.429098  0.425492  1.334115
    Zn  Zn2  0.500190  0.570552  0.568487  1.292568
    O   O5   0.402582  0.354908  0.441992  -0.729026
    O   O6   0.408812  0.462230  0.554581  -0.700285
    O   O7   0.589803  0.446430  0.534720  -0.599183
    O   O8   0.591159  0.551772  0.643827  -0.603998
    C   C3   0.376238  0.379558  0.497941  0.548099
    C   C4   0.620359  0.498919  0.617804  0.392645
    C   C5   0.317137  0.518217  0.237318  -0.028376
    C   C6   0.280086  0.579512  0.254028  -0.188144
    H   H1   0.304520  0.643964  0.256559  0.063281
    H   H2   0.375509  0.531759  0.229196  0.032182
    C   C7   0.189236  0.501496  0.189505  0.360300
    C   C8   0.225136  0.440231  0.171683  -0.131168
    C   C9   0.217881  0.424583  0.244461  -0.062389
    C   C10  0.180757  0.485816  0.261205  -0.136906
    C   C11  0.272810  0.563825  0.326961  -0.044864
    C   C12  0.308671  0.502535  0.308994  0.232969
    H   H3   0.203307  0.388385  0.105732  0.047601
    H   H4   0.194286  0.360144  0.241898  0.036290
    H   H5   0.122513  0.472222  0.269554  0.043366
    H   H6   0.293997  0.615264  0.392899  0.043509
    C   C13  0.765052  0.670879  0.506287  -0.118934
    H   H7   0.740486  0.603222  0.455408  0.014387
    H   H8   0.797758  0.677982  0.571997  0.015504
    C   C14  0.830520  0.735468  0.496314  -0.092083
    H   H9   0.897116  0.763565  0.551243  0.024658
    H   H10  0.827519  0.700662  0.433424  0.011726
    H   H11  0.635176  0.627916  0.356067  -0.000817
    H   H12  0.725344  0.743722  0.356092  0.012514
    C   C15  0.652678  0.689885  0.411008  -0.054357
    C   C16  0.725006  0.779391  0.572217  -0.243171
    C   C17  0.690166  0.689486  0.496463  0.533249
    H   H13  0.673082  0.797668  0.561267  0.023305
    H   H14  0.746882  0.778891  0.635014  0.086068
    C   C18  0.808620  0.807325  0.497032  0.347303
    C   C19  0.720515  0.767246  0.416256  -0.108789
    C   C20  0.802693  0.847435  0.578306  0.000178
    H   H15  0.863623  0.869188  0.637337  -0.003942
    H   H16  0.794299  0.904977  0.583727  -0.002128
    H   H17  0.593036  0.695559  0.399052  -0.001294
    H   H18  0.699321  0.816878  0.420414  0.015685
    C   C21  0.704308  0.420548  0.646194  0.022914
    H   H19  0.640930  0.359117  0.613067  0.038338
    C   C22  0.770240  0.418736  0.719131  -0.166629
    H   H20  0.736462  0.359110  0.722180  0.036156
    H   H21  0.823161  0.415995  0.706044  0.029516
    H   H22  0.795706  0.593809  0.685677  -0.055357
    H   H23  0.896955  0.581029  0.777690  0.072342
    C   C23  0.777571  0.585559  0.734184  0.387375
    C   C24  0.662704  0.486994  0.751160  0.038472
    C   C25  0.691192  0.498828  0.686335  0.189750
    H   H24  0.641806  0.534150  0.776547  -0.004026
    H   H25  0.605706  0.420043  0.717542  -0.014981
    C   C26  0.809198  0.499959  0.805948  0.452739
    C   C27  0.849009  0.582177  0.799812  -0.416589
    C   C28  0.737024  0.497291  0.827062  -0.148479
    H   H26  0.710728  0.440622  0.836923  0.024545
    H   H27  0.763312  0.558696  0.887815  0.013849
    H   H28  0.883365  0.641776  0.864882  0.080074
    C   C29  0.264588  0.221719  0.416401  0.026500
    H   H29  0.313408  0.199714  0.419811  -0.009016
    H   H30  0.241314  0.226009  0.355790  -0.002158
    C   C30  0.188545  0.153843  0.412441  -0.211392
    H   H31  0.126043  0.135162  0.357351  0.028600
    H   H32  0.195016  0.094498  0.401427  0.035148
    H   H33  0.401721  0.287690  0.577684  0.047815
    H   H34  0.295544  0.173201  0.564715  0.013028
    C   C31  0.348264  0.301416  0.577344  -0.156801
    C   C32  0.239044  0.336490  0.504720  0.214954
    C   C33  0.306752  0.310203  0.497945  0.340818
    H   H35  0.272496  0.398567  0.567429  -0.021010
    C   C34  0.189218  0.191935  0.498139  0.473408
    C   C35  0.279106  0.226482  0.573914  -0.095832
    C   C36  0.170593  0.267073  0.507641  -0.346401
    H   H36  0.104315  0.242960  0.454679  0.053731
    H   H37  0.173568  0.296711  0.571523  0.066311
    H   H38  0.376163  0.363332  0.638340  0.021275
    H   H39  0.279452  0.251128  0.636930  0.026191
    O   O9   0.948107  0.539161  0.090801  -0.707533
    O   O10  0.051144  0.648228  0.088636  -0.681579
    C   C37  0.998978  0.622396  0.118495  0.505328
    O   O11  0.038055  0.443694  0.088918  -0.713419
    O   O12  0.144105  0.556102  0.092804  -0.695050
    C   C38  0.119993  0.500393  0.119929  0.597497
    Zn  Zn3  0.929694  0.429286  0.997399  1.327869
    Zn  Zn4  0.069307  0.571805  0.998286  1.298175
    O   O13  0.947649  0.352886  0.906788  -0.676991
    O   O14  0.051129  0.461914  0.905170  -0.674625
    O   O15  0.854965  0.445236  0.903074  -0.719988
    O   O16  0.960858  0.557064  0.906582  -0.662253
    C   C39  0.999880  0.378634  0.876932  0.468702
    C   C40  0.878750  0.500970  0.875859  0.583589
    O   O17  0.049185  0.905309  0.457779  -0.698187
    O   O18  0.946194  0.908919  0.350152  -0.698277
    C   C41  0.997465  0.877671  0.375043  0.536522
    O   O19  0.960572  0.908193  0.554038  -0.702697
    O   O20  0.854425  0.905067  0.442763  -0.703045
    C   C42  0.878326  0.877113  0.497791  0.549174
    Zn  Zn5  0.069019  0.999203  0.568088  1.313683
    Zn  Zn6  0.929186  0.999980  0.427441  1.318242
    O   O21  0.052732  0.090995  0.645387  -0.651114
    O   O22  0.948333  0.093207  0.537758  -0.716493
    O   O23  0.143867  0.093554  0.552143  -0.727733
    O   O24  0.037606  0.091620  0.442080  -0.678789
    C   C43  0.000703  0.121523  0.620530  0.522260
    C   C44  0.119881  0.121983  0.497574  0.573616
    C   C45  0.904440  0.670150  0.162309  -0.147197
    H   H40  0.864156  0.602587  0.147987  0.025581
    H   H41  0.875385  0.675587  0.103174  0.021580
    C   C46  0.904176  0.734529  0.237386  -0.063569
    H   H42  0.863164  0.760941  0.210908  0.019988
    H   H43  0.875550  0.699940  0.267599  0.008503
    H   H44  0.998985  0.631401  0.269313  0.011485
    H   H45  0.023837  0.746647  0.384582  0.016989
    C   C47  0.040302  0.693557  0.274114  -0.065556
    C   C48  0.048957  0.780841  0.198875  -0.101447
    C   C49  0.998069  0.691049  0.187700  0.448140
    H   H46  0.119475  0.800994  0.225954  0.012506
    H   H47  0.023191  0.778787  0.134879  0.021052
    C   C50  0.997556  0.808223  0.305827  0.392697
    C   C51  0.049306  0.770361  0.346222  -0.116969
    C   C52  0.039308  0.848147  0.261565  -0.139912
    H   H48  0.997436  0.868275  0.224632  0.022952
    H   H49  0.104836  0.906753  0.311598  0.037147
    H   H50  0.106090  0.701283  0.289914  0.008631
    H   H51  0.119629  0.821431  0.389808  0.018493
    C   C53  0.921050  0.220750  0.768100  -0.135263
    H   H52  0.860173  0.224384  0.743334  0.038713
    H   H53  0.925138  0.199933  0.817958  0.012600
    C   C54  0.917131  0.152450  0.692322  -0.041277
    H   H54  0.909065  0.094517  0.700912  0.002983
    H   H55  0.860195  0.131359  0.629926  0.001836
    H   H56  0.930563  0.322983  0.699203  0.013949
    H   H57  0.953765  0.239128  0.602419  0.027761
    C   C55  0.995756  0.329967  0.734001  -0.104124
    C   C56  0.082301  0.302673  0.848254  0.320240
    C   C57  0.000880  0.309775  0.807735  0.354760
    H   H58  0.080554  0.285523  0.899430  -0.036797
    C   C58  0.000948  0.191429  0.689729  0.493399
    C   C59  0.006517  0.265309  0.669633  -0.146676
    C   C60  0.079219  0.228492  0.778827  -0.523758
    H   H59  0.072599  0.176319  0.796800  0.090540
    H   H60  0.140872  0.252744  0.776677  0.120167
    H   H61  0.046104  0.397941  0.758802  0.043086
    H   H62  0.070890  0.299295  0.674896  0.038703
    C   C61  0.732208  0.418079  0.578987  0.607640
    O   O25  0.682894  0.357892  0.503495  -0.551119
    O   O26  0.815735  0.478441  0.602395  -0.555551
    H   H63  0.823122  0.464595  0.549047  0.396783
    C   C62  0.772774  0.665991  0.778497  0.478132
    O   O27  0.778886  0.716706  0.749970  -0.515829
    O   O28  0.766630  0.686613  0.854200  -0.515352
    H   H64  0.766008  0.743895  0.875231  0.383348
    C   C63  0.197061  0.352839  0.432448  0.540237
    O   O29  0.213026  0.427528  0.449544  -0.516123
    O   O30  0.136259  0.283665  0.347223  -0.530159
    H   H65  0.111823  0.306654  0.308584  0.383227
    C   C64  0.166661  0.386958  0.892392  0.509899
    O   O31  0.191273  0.415857  0.849979  -0.519139
    O   O32  0.219029  0.431428  0.983153  -0.541270
    H   H66  0.273666  0.486351  0.003010  0.389994
