# Generated by REPEAT Assigner based on pymatgen
data_DB0-m29_o89_o1500_f0_pts.sym.66
_audit_creation_date              2022-05-24
_audit_creation_method            REPEAT_Assigner
_cell_length_a                    14.155369
_cell_length_b                    16.005756
_cell_length_c                    13.197523
_cell_angle_alpha                 94.503883
_cell_angle_beta                  93.141036
_cell_angle_gamma                 65.510483
_cell_volume                      2711.909504
_symmetry_space_group_name_H-M    P1
_symmetry_Int_Tables_number       1
loop_
    _symmetry_equiv_pos_site_id
    _symmetry_equiv_pos_as_xyz
    1  x,y,z
loop_
    _atom_site_type_symbol
    _atom_site_label
    _atom_site_fract_x
    _atom_site_fract_y
    _atom_site_fract_z
    _atom_type_partial_charge
    C   C1   0.863916  0.998084  0.131354  -0.270431
    C   C2   0.774869  0.991925  0.089255  0.053639
    C   C3   0.760723  0.991288  0.983416  -0.105929
    C   C4   0.834565  0.997851  0.924226  -0.137036
    C   C5   0.923435  0.002293  0.966892  0.115860
    C   C6   0.938494  0.003304  0.070859  0.225894
    C   C7   0.997446  0.004621  0.904576  -0.319353
    C   C8   0.087900  0.007352  0.945545  0.253690
    C   C9   0.103688  0.009174  0.049442  0.080891
    C   C10  0.028553  0.008209  0.112920  -0.205296
    C   C11  0.162118  0.008523  0.882051  -0.214392
    C   C12  0.254151  0.010871  0.920962  -0.012705
    C   C13  0.269193  0.013828  0.026520  -0.046195
    C   C14  0.194244  0.013394  0.088670  -0.172065
    H   H1   0.874380  0.998096  0.212791  0.149604
    H   H2   0.824178  0.996263  0.842465  0.185966
    H   H3   0.984826  0.003452  0.823047  0.176220
    H   H4   0.147889  0.006127  0.800846  0.152152
    H   H5   0.208415  0.018500  0.169426  0.194580
    N   N1   0.992017  0.090599  0.283191  -0.330943
    C   C15  0.027861  0.071440  0.378877  0.190758
    C   C16  0.102685  0.982410  0.380858  -0.251997
    C   C17  0.112162  0.945672  0.281796  -0.167441
    C   C18  0.043214  0.014331  0.223744  0.278541
    H   H6   0.936268  0.152931  0.259186  0.321350
    H   H7   0.146246  0.948367  0.446659  0.179888
    H   H8   0.164439  0.877283  0.254827  0.136095
    O   O1   0.607863  0.992914  0.124973  -0.577166
    C   C19  0.697267  0.990801  0.159628  0.616598
    O   O2   0.690414  0.806694  0.237757  -0.491978
    O   O3   0.715947  0.991063  0.258140  -0.509461
    O   O4   0.557010  0.903929  0.336595  -0.602639
    C   C20  0.640745  0.827144  0.323533  0.570272
    Fe  Fe1  0.513155  0.994609  0.230729  1.497429
    O   O5   0.398844  0.968354  0.159028  -0.692022
    O   O6   0.392693  0.081047  0.060882  -0.468698
    C   C21  0.361467  0.017155  0.079117  0.801538
    O   O7   0.481538  0.117833  0.303370  -0.656802
    O   O8   0.314179  0.142784  0.263706  -0.558800
    C   C22  0.381534  0.166316  0.316142  0.712812
    O   O9   0.562194  0.872287  0.708832  -0.663239
    O   O10  0.724429  0.867045  0.734207  -0.552533
    C   C23  0.661995  0.832803  0.690101  0.723898
    O   O11  0.628994  0.032826  0.851336  -0.685474
    O   O12  0.648733  0.912770  0.944048  -0.479038
    C   C24  0.672010  0.982062  0.928819  0.815295
    O   O13  0.310832  0.011826  0.751205  -0.535525
    O   O14  0.474810  0.086048  0.669232  -0.598675
    C   C25  0.392661  0.164054  0.682527  0.586513
    O   O15  0.426126  0.997000  0.882084  -0.595679
    C   C26  0.333030  0.007080  0.849017  0.662463
    O   O16  0.345069  0.187266  0.769552  -0.504106
    Fe  Fe2  0.521101  0.998189  0.778046  1.505368
    H   H9   0.463352  0.118505  0.495082  0.139462
    C   C27  0.347612  0.221087  0.411490  0.007702
    C   C28  0.256815  0.299489  0.414850  -0.198756
    H   H10  0.217958  0.327849  0.344704  0.115796
    C   C29  0.212815  0.339157  0.507103  0.127002
    C   C30  0.257248  0.297082  0.596315  -0.180096
    H   H11  0.220169  0.325884  0.667990  0.128152
    C   C31  0.348685  0.217922  0.592918  0.043960
    C   C32  0.394963  0.182492  0.500360  -0.140420
    C   C33  0.110647  0.497023  0.457211  -0.232069
    H   H12  0.179930  0.493889  0.423317  0.129874
    C   C34  0.019974  0.576499  0.454633  0.138824
    C   C35  0.931322  0.579084  0.498621  -0.132777
    C   C36  0.938027  0.504482  0.549709  -0.079916
    H   H13  0.870256  0.506158  0.585374  0.088425
    C   C37  0.029961  0.427171  0.555231  -0.192405
    H   H14  0.032919  0.369146  0.594161  0.122412
    C   C38  0.116193  0.422758  0.507635  0.091780
    C   C39  0.779214  0.696241  0.409622  -0.245949
    H   H15  0.812081  0.664723  0.337022  0.128960
    C   C40  0.686941  0.774517  0.413663  0.073205
    C   C41  0.643651  0.811490  0.507065  -0.148585
    H   H16  0.573834  0.874309  0.512693  0.135823
    C   C42  0.695636  0.776427  0.595704  -0.004898
    C   C43  0.789830  0.701499  0.591726  -0.187286
    H   H17  0.832751  0.676901  0.661478  0.110797
    C   C44  0.831467  0.660159  0.499078  0.253628
    C   C45  0.024635  0.658718  0.411731  -0.178363
    C   C46  0.027226  0.727241  0.497111  0.315452
    C   C47  0.046826  0.803505  0.454339  -0.302671
    H   H18  0.123704  0.774643  0.418256  0.088734
    H   H19  0.985216  0.838272  0.397224  0.061083
    H   H20  0.045859  0.854208  0.517010  0.033858
    H   H21  0.952397  0.757979  0.536672  -0.041997
    H   H22  0.090530  0.691616  0.552363  -0.061082
    H   H23  0.096996  0.636303  0.368691  0.027286
    H   H24  0.959687  0.691892  0.357654  0.083766
    C   C48  0.992480  0.138672  0.468173  -0.178317
    C   C49  0.940838  0.104499  0.542924  0.267907
    C   C50  0.897886  0.176076  0.630070  -0.302440
    H   H25  0.961679  0.190034  0.669185  0.073810
    H   H26  0.838533  0.240563  0.600679  0.080243
    H   H27  0.861594  0.149904  0.684905  0.055090
    H   H28  0.876491  0.091547  0.503591  -0.022849
    H   H29  0.998318  0.039826  0.573639  -0.018421
    H   H30  0.060227  0.147244  0.505676  0.083383
    H   H31  0.936043  0.205886  0.442097  0.061188
