# Generated by REPEAT Assigner based on pymatgen
data_DB0-m29_o93_o1510_f0_pts.sym.3
_audit_creation_date              2022-05-24
_audit_creation_method            REPEAT_Assigner
_cell_length_a                    15.109437
_cell_length_b                    19.862132
_cell_length_c                    13.408276
_cell_angle_alpha                 96.623546
_cell_angle_beta                  101.735411
_cell_angle_gamma                 70.948151
_cell_volume                      3718.767811
_symmetry_space_group_name_H-M    P1
_symmetry_Int_Tables_number       1
loop_
    _symmetry_equiv_pos_site_id
    _symmetry_equiv_pos_as_xyz
    1  x,y,z
loop_
    _atom_site_type_symbol
    _atom_site_label
    _atom_site_fract_x
    _atom_site_fract_y
    _atom_site_fract_z
    _atom_type_partial_charge
    C   C1   0.802427  0.009989  0.172557  -0.006254
    H   H1   0.788681  0.015648  0.249601  0.161842
    C   C2   0.888737  0.011577  0.157106  -0.311552
    H   H2   0.941076  0.019512  0.221530  0.149455
    C   C3   0.909727  0.001723  0.060476  0.442520
    C   C4   0.841485  0.992395  0.977774  -0.171039
    H   H3   0.854813  0.987066  0.900711  0.083220
    C   C5   0.753479  0.991291  0.992353  -0.000961
    C   C6   0.735326  0.998335  0.091801  -0.154553
    N   N1   0.000378  0.002770  0.049000  -0.193037
    N   N2   0.013654  0.989793  0.959379  -0.130455
    C   C7   0.121397  0.983448  0.848775  -0.282110
    H   H4   0.067773  0.975492  0.785825  0.119280
    C   C8   0.204979  0.987809  0.829582  0.116226
    C   C9   0.273851  0.000273  0.908939  -0.083240
    C   C10  0.258927  0.004659  0.009827  -0.099623
    C   C11  0.172844  0.000964  0.027070  -0.135479
    H   H5   0.161180  0.005129  0.104635  0.086308
    C   C12  0.103453  0.991510  0.946210  0.404850
    O   O1   0.471722  0.097188  0.727999  -0.667998
    C   C13  0.381806  0.123613  0.686384  0.706220
    O   O2   0.378098  0.070659  0.913999  -0.482988
    O   O3   0.320885  0.092050  0.696989  -0.519701
    O   O4   0.404454  0.967125  0.816437  -0.647124
    C   C14  0.357827  0.011401  0.882668  0.820410
    Fe  Fe1  0.501977  0.000925  0.778101  1.482388
    O   O5   0.592351  0.996797  0.911193  -0.561874
    O   O6   0.700460  0.982795  0.809668  -0.466799
    C   C15  0.680145  0.988113  0.901435  0.608032
    O   O7   0.545319  0.939744  0.656417  -0.579418
    O   O8   0.615116  0.843140  0.754493  -0.482131
    C   C16  0.593027  0.871756  0.665718  0.583374
    O   O9   0.465697  0.066775  0.346264  -0.574256
    O   O10  0.365280  0.152472  0.240350  -0.483052
    C   C17  0.400785  0.129391  0.332392  0.548292
    O   O11  0.416091  0.011731  0.090770  -0.565729
    O   O12  0.317964  0.002929  0.191688  -0.472693
    C   C18  0.332957  0.008218  0.100293  0.664690
    O   O13  0.683222  0.916107  0.312420  -0.563648
    O   O14  0.607348  0.036027  0.186357  -0.671361
    C   C19  0.648990  0.991513  0.117174  0.854179
    O   O15  0.533074  0.909141  0.272925  -0.668819
    C   C20  0.622244  0.882983  0.317462  0.722740
    O   O16  0.623424  0.934445  0.085145  -0.503155
    Fe  Fe2  0.506998  0.005183  0.223960  1.491054
    H   H6   0.548726  0.918678  0.479421  0.148367
    C   C21  0.643014  0.837507  0.402439  0.064588
    C   C22  0.713586  0.772838  0.407748  -0.211022
    H   H7   0.750303  0.754153  0.343832  0.126301
    C   C23  0.737644  0.733908  0.494354  0.112298
    C   C24  0.695351  0.764318  0.579070  -0.181213
    H   H8   0.714327  0.736420  0.648577  0.129870
    C   C25  0.628957  0.831766  0.575268  0.047674
    C   C26  0.600321  0.866118  0.485050  -0.133499
    C   C27  0.031744  0.410694  0.558193  -0.139165
    H   H9   0.980080  0.420565  0.607668  0.114196
    C   C28  0.101882  0.345686  0.557628  -0.120321
    H   H10  0.101540  0.305951  0.605960  0.119960
    C   C29  0.169688  0.331871  0.495633  0.077852
    C   C30  0.162802  0.383629  0.430866  -0.150270
    H   H11  0.215206  0.375761  0.382997  0.121891
    C   C31  0.090364  0.447755  0.429062  -0.118902
    H   H12  0.086797  0.487881  0.379035  0.110797
    C   C32  0.025686  0.461993  0.494078  0.080372
    C   C33  0.289047  0.232662  0.415473  -0.220344
    H   H13  0.259776  0.255711  0.342182  0.147951
    C   C34  0.363402  0.169123  0.422367  0.092085
    C   C35  0.398780  0.138227  0.515264  -0.165485
    H   H14  0.454004  0.087344  0.522305  0.147933
    C   C36  0.357855  0.167550  0.599012  0.099701
    C   C37  0.283588  0.230157  0.592479  -0.268788
    H   H15  0.254121  0.251855  0.660469  0.132183
    C   C38  0.249271  0.264212  0.501184  0.166108
    C   C39  0.891284  0.555816  0.405860  -0.122330
    H   H16  0.898225  0.523942  0.335182  0.111656
    C   C40  0.820353  0.620411  0.406584  -0.154401
    H   H17  0.772536  0.636566  0.335801  0.122646
    C   C41  0.810209  0.662648  0.496084  0.108034
    C   C42  0.870636  0.637223  0.585599  -0.158775
    H   H18  0.867118  0.668904  0.656575  0.141697
    C   C43  0.939426  0.571309  0.585150  -0.136680
    H   H19  0.986550  0.552625  0.655460  0.113840
    C   C44  0.950968  0.530921  0.495054  0.097631
    Cl  Cl1  0.217127  0.981480  0.701194  -0.020470
