data_DB0-m2_o1_o23_f0_pcu.sym.1_repeat
_audit_creation_date              2024-02-23
_audit_creation_method            'Materials Studio'
_symmetry_space_group_name_H-M    'P1'
_symmetry_Int_Tables_number       1
_symmetry_cell_setting            triclinic
loop_
_symmetry_equiv_pos_as_xyz
  x,y,z
_cell_length_a                    10.8499
_cell_length_b                    9.4070
_cell_length_c                    15.8637
_cell_angle_alpha                 90.0000
_cell_angle_beta                  90.0009
_cell_angle_gamma                 90.0000
loop_
_atom_site_label
_atom_site_type_symbol
_atom_site_fract_x
_atom_site_fract_y
_atom_site_fract_z
_atom_site_U_iso_or_equiv
_atom_site_adp_type
_atom_site_occupancy
O1     O     0.31994   0.62187   0.50267   0.00000  Uiso   1.00
O2     O     0.32025   0.37776   0.49720   0.00000  Uiso   1.00
C1     C     0.26211   0.49968   0.50018   0.00000  Uiso   1.00
O3     O     0.50355   0.62233   0.37746   0.00000  Uiso   1.00
O4     O     0.50242   0.37808   0.37694   0.00000  Uiso   1.00
C2     C     0.49916   0.50023   0.33781   0.00000  Uiso   1.00
Cu1    Cu    0.49881   0.64219   0.49983   0.00000  Uiso   1.00
Cu2    Cu    0.49964   0.35775   0.49970   0.00000  Uiso   1.00
O5     O     0.67803   0.62255   0.50347   0.00000  Uiso   1.00
O6     O     0.67850   0.37822   0.49619   0.00000  Uiso   1.00
O7     O     0.50231   0.62180   0.62243   0.00000  Uiso   1.00
O8     O     0.50372   0.37720   0.62199   0.00000  Uiso   1.00
C3     C     0.73596   0.50048   0.50018   0.00000  Uiso   1.00
C4     C     0.49905   0.49938   0.66134   0.00000  Uiso   1.00
C5     C     0.44299   0.63592   0.04756   0.00000  Uiso   1.00
C6     C     0.42926   0.37213   0.04670   0.00000  Uiso   1.00
C7     C     0.44240   0.36399   0.95176   0.00000  Uiso   1.00
C8     C     0.42952   0.62785   0.95272   0.00000  Uiso   1.00
H1     H     0.33106   0.61708   0.93544   0.00000  Uiso   1.00
H2     H     0.35042   0.34775   0.92249   0.00000  Uiso   1.00
H3     H     0.35166   0.65314   0.07748   0.00000  Uiso   1.00
H4     H     0.33076   0.38225   0.06422   0.00000  Uiso   1.00
H5     H     0.46683   0.27394   0.07552   0.00000  Uiso   1.00
H6     H     0.50376   0.72679   0.06402   0.00000  Uiso   1.00
H7     H     0.50273   0.27294   0.93480   0.00000  Uiso   1.00
H8     H     0.46755   0.72655   0.92476   0.00000  Uiso   1.00
C9     C     0.49948   0.50003   0.75179   0.00000  Uiso   1.00
C10    C     0.50089   0.49924   0.07911   0.00000  Uiso   1.00
C11    C     0.50069   0.50047   0.92007   0.00000  Uiso   1.00
C12    C     0.63211   0.50937   0.95204   0.00000  Uiso   1.00
C13    C     0.63217   0.49027   0.04673   0.00000  Uiso   1.00
C14    C     0.49988   0.50040   0.82780   0.00000  Uiso   1.00
C15    C     0.50032   0.49900   0.17137   0.00000  Uiso   1.00
C16    C     0.49984   0.49946   0.24732   0.00000  Uiso   1.00
H9     H     0.68910   0.57456   0.07599   0.00000  Uiso   1.00
H10    H     0.67204   0.38505   0.06229   0.00000  Uiso   1.00
H11    H     0.67135   0.61490   0.93618   0.00000  Uiso   1.00
H12    H     0.68905   0.42464   0.92301   0.00000  Uiso   1.00
C17    C     0.06209   0.37301   0.49986   0.00000  Uiso   1.00
C18    C     0.06325   0.62656   0.50044   0.00000  Uiso   1.00
H13    H     0.11007   0.27250   0.49958   0.00000  Uiso   1.00
H14    H     0.11211   0.72663   0.50014   0.00000  Uiso   1.00
C19    C     0.93480   0.37381   0.49990   0.00000  Uiso   1.00
C20    C     0.93613   0.62748   0.50069   0.00000  Uiso   1.00
H15    H     0.88537   0.27399   0.49968   0.00000  Uiso   1.00
H16    H     0.88863   0.72829   0.50082   0.00000  Uiso   1.00
C21    C     0.87118   0.50105   0.50050   0.00000  Uiso   1.00
C22    C     0.12692   0.49941   0.50032   0.00000  Uiso   1.00
C23    C     0.42232   0.07197   0.44844   0.00000  Uiso   1.00
C24    C     0.42205   0.92613   0.44934   0.00000  Uiso   1.00
H17    H     0.36057   0.12524   0.40557   0.00000  Uiso   1.00
H18    H     0.35698   0.87020   0.40991   0.00000  Uiso   1.00
N1     N     0.49948   0.85485   0.50005   0.00000  Uiso   1.00
N2     N     0.49956   0.14474   0.49859   0.00000  Uiso   1.00
C25    C     0.57418   0.92712   0.55292   0.00000  Uiso   1.00
C26    C     0.57438   0.07459   0.55208   0.00000  Uiso   1.00
H19    H     0.63301   0.86980   0.59604   0.00000  Uiso   1.00
H20    H     0.63609   0.13462   0.59238   0.00000  Uiso   1.00
