# Generated by REPEAT Assigner based on pymatgen
data_DB0-m2_o16_o21_f0_pcu.sym.50_sqe
_audit_creation_date              2022-05-24
_audit_creation_method            REPEAT_Assigner
_cell_length_a                    12.189274
_cell_length_b                    13.389274
_cell_length_c                    13.913704
_cell_angle_alpha                 104.363914
_cell_angle_beta                  72.798007
_cell_angle_gamma                 116.422090
_cell_volume                      1924.529376
_symmetry_space_group_name_H-M    P1
_symmetry_Int_Tables_number       1
loop_
    _symmetry_equiv_pos_site_id
    _symmetry_equiv_pos_as_xyz
    1  x,y,z
loop_
    _atom_site_type_symbol
    _atom_site_label
    _atom_site_fract_x
    _atom_site_fract_y
    _atom_site_fract_z
    _atom_type_partial_charge
    O   O1   0.016004  0.674686  0.536350  -0.673932
    O   O2   0.186927  0.631331  0.498027  -0.546911
    C   C1   0.137465  0.705518  0.522154  0.763710
    O   O3   0.888311  0.514360  0.659174  -0.675068
    O   O4   0.051216  0.458942  0.622486  -0.661427
    C   C2   0.962064  0.484556  0.686817  0.980819
    Cu  Cu1  0.895312  0.518525  0.518016  0.886794
    Cu  Cu2  0.094885  0.468154  0.477233  0.784843
    O   O5   0.802195  0.355503  0.500408  -0.565876
    O   O6   0.975182  0.312120  0.454924  -0.574418
    O   O7   0.935424  0.523367  0.372204  -0.623337
    O   O8   0.104572  0.476032  0.336396  -0.614081
    C   C3   0.853549  0.282462  0.471102  0.637782
    C   C4   0.027240  0.501194  0.308317  0.911968
    C   C5   0.039681  0.501130  0.202425  -0.365176
    C   C6   0.046321  0.499300  0.010337  -0.076252
    C   C7   0.943482  0.486746  0.984770  -0.078931
    C   C8   0.945262  0.485469  0.880606  0.057964
    C   C9   0.044464  0.500488  0.114498  0.063717
    C   C10  0.949895  0.484724  0.792686  -0.363561
    H   H1   0.858475  0.477456  0.042374  0.146592
    H   H2   0.131349  0.508600  0.952762  0.142587
    C   C11  0.728177  0.983519  0.352674  -0.229048
    H   H3   0.910229  0.116200  0.342734  0.116338
    H   H4   0.552948  0.794075  0.298153  0.132507
    H   H5   0.761381  0.927509  0.293661  0.125835
    C   C12  0.769772  0.163646  0.451326  -0.045299
    C   C13  0.175935  0.895860  0.619061  0.393001
    C   C14  0.256762  0.003442  0.648054  -0.312496
    C   C15  0.381320  0.043730  0.602138  -0.126122
    C   C16  0.429601  0.979031  0.521701  -0.030623
    C   C17  0.347711  0.870591  0.489687  0.243745
    C   C18  0.557861  0.019431  0.473573  0.063523
    C   C19  0.601898  0.949447  0.397170  0.204338
    C   C20  0.519543  0.846091  0.361825  -0.227188
    C   C21  0.393739  0.808808  0.404750  -0.206301
    C   C22  0.643952  0.128478  0.498026  -0.170717
    C   C23  0.812522  0.089698  0.380729  -0.093471
    C   C24  0.220974  0.826648  0.541184  -0.399582
    H   H6   0.616795  0.190193  0.552277  0.115837
    H   H7   0.436697  0.126694  0.633982  0.133242
    H   H8   0.224949  0.057091  0.710844  0.163251
    H   H9   0.333755  0.730930  0.368165  0.148578
    C   C25  0.624461  0.650201  0.660117  -0.271873
    H   H10  0.800097  0.669421  0.677421  0.152293
    H   H11  0.418680  0.678354  0.701346  0.137141
    H   H12  0.613441  0.709725  0.726794  0.130555
    N   N1   0.744971  0.555506  0.548948  -0.006481
    C   C26  0.253560  0.356361  0.364192  -0.023715
    C   C27  0.355590  0.328808  0.331641  -0.144323
    C   C28  0.452389  0.380137  0.381928  -0.109036
    C   C29  0.447356  0.460525  0.466413  0.022969
    C   C30  0.340945  0.485284  0.497963  0.205090
    C   C31  0.545034  0.516946  0.520371  -0.025225
    C   C32  0.532746  0.595026  0.604445  0.280026
    C   C33  0.428101  0.617807  0.635159  -0.247053
    C   C34  0.333911  0.563991  0.583032  -0.165375
    C   C35  0.655011  0.498301  0.494295  -0.087106
    C   C36  0.729846  0.628419  0.632028  -0.029074
    N   N2   0.245281  0.432282  0.446966  -0.075694
    H   H13  0.672437  0.438530  0.430960  0.126011
    H   H14  0.179514  0.315909  0.322361  0.146968
    H   H15  0.529256  0.354473  0.351820  0.131293
    H   H16  0.360208  0.266916  0.265534  0.114711
    H   H17  0.255426  0.586142  0.612925  0.175675
    N   N3   0.049951  0.854463  0.673588  0.039160
    C   C37  0.038474  0.836245  0.774530  -0.167648
    C   C38  0.984157  0.921182  0.673500  -0.271325
    H   H18  0.088400  0.782907  0.770465  0.058025
    H   H19  0.938091  0.792669  0.809718  0.080088
    H   H20  0.079083  0.917548  0.822367  0.023014
    H   H21  0.999836  0.936664  0.594866  0.085736
    H   H22  0.016337  0.002560  0.723327  0.052311
    H   H23  0.882328  0.875368  0.702233  0.105711
