# Generated by REPEAT Assigner based on pymatgen
data_DB0-m2_o3_o18_f0_pcu.sym.55
_audit_creation_date              2022-05-24
_audit_creation_method            REPEAT_Assigner
_cell_length_a                    15.926384
_cell_length_b                    17.866007
_cell_length_c                    19.346531
_cell_angle_alpha                 89.984383
_cell_angle_beta                  90.002040
_cell_angle_gamma                 71.469736
_cell_volume                      5219.483681
_symmetry_space_group_name_H-M    P1
_symmetry_Int_Tables_number       1
loop_
    _symmetry_equiv_pos_site_id
    _symmetry_equiv_pos_as_xyz
    1  x,y,z
loop_
    _atom_site_type_symbol
    _atom_site_label
    _atom_site_fract_x
    _atom_site_fract_y
    _atom_site_fract_z
    _atom_type_partial_charge
    O   O1   0.499533  0.436984  0.600969  -0.612216
    O   O2   0.500190  0.563174  0.399361  -0.611409
    O   O3   0.502913  0.564647  0.600227  -0.580979
    O   O4   0.496654  0.435585  0.400108  -0.583428
    C   C1   0.501517  0.500897  0.633052  0.649209
    C   C2   0.498082  0.499302  0.367270  0.651453
    O   O5   0.629798  0.401294  0.496976  -0.611874
    O   O6   0.369793  0.598950  0.503258  -0.612698
    O   O7   0.627083  0.530537  0.501122  -0.579072
    O   O8   0.372509  0.469637  0.499232  -0.581184
    C   C3   0.670122  0.454805  0.498591  0.705719
    C   C4   0.329495  0.545406  0.501723  0.709177
    Cu  Cu1  0.501421  0.424863  0.500625  0.917513
    Cu  Cu2  0.498175  0.575350  0.499706  0.909640
    C   C5   0.767364  0.428884  0.497161  -0.123474
    C   C6   0.232282  0.571347  0.503305  -0.125547
    C   C7   0.904965  0.325915  0.490684  -0.285927
    C   C8   0.094722  0.674265  0.510407  -0.285965
    C   C9   0.814225  0.349740  0.492609  -0.028459
    C   C10  0.185446  0.650473  0.508236  -0.026047
    C   C11  0.812217  0.483767  0.500046  -0.099540
    C   C12  0.187442  0.516469  0.500308  -0.103051
    C   C13  0.904758  0.460406  0.498545  -0.012465
    C   C14  0.094933  0.539787  0.502247  -0.005925
    C   C15  0.949730  0.380452  0.493523  0.301097
    C   C16  0.049977  0.619716  0.507527  0.298903
    C   C17  0.953460  0.514049  0.501708  0.067910
    C   C18  0.046254  0.486122  0.499230  0.060918
    C   C19  0.088091  0.405046  0.493717  -0.156290
    C   C20  0.911635  0.595105  0.507449  -0.160387
    C   C21  0.040284  0.353614  0.491103  -0.325601
    C   C22  0.959444  0.646538  0.510188  -0.326445
    H   H1   0.075094  0.291097  0.486881  0.166035
    H   H2   0.924669  0.709039  0.514646  0.168527
    H   H3   0.227507  0.455867  0.496546  0.082478
    H   H4   0.772139  0.544405  0.503298  0.080930
    H   H5   0.218717  0.694516  0.510780  0.096845
    H   H6   0.780946  0.305696  0.490225  0.097528
    H   H7   0.941197  0.263643  0.486876  0.122962
    H   H8   0.058490  0.736515  0.514524  0.122590
    H   H9   0.158496  0.377712  0.491179  0.148373
    H   H10  0.841245  0.622385  0.510235  0.150527
    C   C23  0.500033  0.565388  0.255474  -0.084158
    C   C24  0.498900  0.434919  0.744791  -0.084000
    H   H11  0.502623  0.617609  0.282351  0.105351
    H   H12  0.496532  0.382617  0.717906  0.105266
    C   C25  0.499941  0.565551  0.184245  -0.161094
    C   C26  0.498536  0.434848  0.816012  -0.158887
    H   H13  0.503942  0.617359  0.157429  0.107455
    H   H14  0.494466  0.383033  0.842783  0.106927
    C   C27  0.497521  0.499634  0.147949  0.103031
    C   C28  0.500747  0.500795  0.852347  0.099553
    C   C29  0.495037  0.433532  0.184039  -0.152650
    C   C30  0.503409  0.566866  0.816322  -0.150593
    H   H15  0.491286  0.381778  0.157012  0.108053
    H   H16  0.506991  0.618640  0.843409  0.107895
    C   C31  0.495001  0.433358  0.255330  -0.095875
    C   C32  0.503920  0.566961  0.745035  -0.098305
    H   H17  0.492683  0.381008  0.282163  0.105388
    H   H18  0.506395  0.619290  0.718246  0.105904
    C   C33  0.497585  0.499295  0.291475  -0.043717
    C   C34  0.501628  0.500964  0.708836  -0.041916
    C   C35  0.546387  0.433438  0.035787  -0.142614
    C   C36  0.451629  0.567008  0.964500  -0.138475
    H   H19  0.585872  0.381131  0.062750  0.106460
    H   H20  0.412197  0.619367  0.937561  0.105706
    C   C37  0.547384  0.433809  0.964546  -0.131148
    C   C38  0.450610  0.566610  0.035752  -0.134485
    H   H21  0.587603  0.381731  0.937692  0.107867
    H   H22  0.410405  0.618662  0.062645  0.107956
    C   C39  0.500020  0.500599  0.928324  0.057051
    C   C40  0.498034  0.499835  0.071960  0.059182
    C   C41  0.557208  0.259451  0.457882  0.119547
    C   C42  0.550556  0.709128  0.455486  0.228964
    H   H23  0.601055  0.277229  0.423654  0.103705
    H   H24  0.592101  0.666410  0.420130  0.084099
    C   C43  0.556426  0.182478  0.456683  -0.349056
    C   C44  0.553570  0.785322  0.455366  -0.530181
    H   H25  0.599535  0.140736  0.421405  0.134569
    H   H26  0.595911  0.801875  0.418891  0.191366
    C   C45  0.499409  0.159726  0.499284  0.499100
    C   C46  0.501455  0.840049  0.500763  0.502375
    C   C47  0.444996  0.214896  0.543245  -0.526692
    C   C48  0.446406  0.817076  0.545139  -0.352430
    H   H27  0.401264  0.198625  0.578639  0.188381
    H   H28  0.405222  0.858610  0.581569  0.135696
    C   C49  0.447334  0.291304  0.543072  0.231147
    C   C50  0.445206  0.740216  0.544108  0.119076
    H   H29  0.404012  0.334335  0.577241  0.082949
    H   H30  0.402903  0.722214  0.579656  0.104442
    N   N1   0.503998  0.312199  0.501551  -0.228869
    N   N2   0.495757  0.687968  0.498711  -0.223963
    C   C51  0.420662  0.060214  0.493257  0.346695
    C   C52  0.580416  0.939349  0.505997  0.354799
    C   C53  0.422721  0.982228  0.494136  -0.251820
    C   C54  0.578382  0.017339  0.505398  -0.257193
    H   H31  0.362715  0.967269  0.487160  0.143503
    H   H32  0.638534  0.032100  0.512275  0.145850
    C   C55  0.501948  0.921960  0.500555  -0.225096
    C   C56  0.499090  0.077689  0.499145  -0.223781
    N   N3   0.340216  0.121724  0.481950  -0.132341
    C   C57  0.269253  0.118525  0.526808  -0.205189
    C   C58  0.314477  0.129080  0.410356  -0.226526
    H   H33  0.294833  0.104126  0.580148  0.071155
    H   H34  0.239564  0.073835  0.508359  0.060763
    H   H35  0.217073  0.176968  0.527266  0.089345
    H   H36  0.369346  0.136258  0.378555  0.077930
    H   H37  0.255056  0.181609  0.403395  0.105924
    H   H38  0.299298  0.075585  0.393153  0.063561
    N   N4   0.660998  0.877647  0.516169  -0.141966
    C   C59  0.689313  0.870693  0.587162  -0.230690
    C   C60  0.730404  0.880384  0.469466  -0.195381
    H   H39  0.635289  0.864436  0.620498  0.079457
    H   H40  0.705927  0.923922  0.603084  0.064355
    H   H41  0.748491  0.817783  0.593387  0.106693
    H   H42  0.703123  0.893644  0.416479  0.068954
    H   H43  0.782950  0.822146  0.469088  0.087313
    H   H44  0.760141  0.925754  0.486022  0.057981
