# Generated by REPEAT Assigner based on pymatgen
data_DB0-m3_o17_o25_f0_pcu.sym.47
_audit_creation_date              2022-05-24
_audit_creation_method            REPEAT_Assigner
_cell_length_a                    15.968374
_cell_length_b                    15.063438
_cell_length_c                    13.928576
_cell_angle_alpha                 90.005347
_cell_angle_beta                  90.002276
_cell_angle_gamma                 89.994549
_cell_volume                      3350.360275
_symmetry_space_group_name_H-M    P1
_symmetry_Int_Tables_number       1
loop_
    _symmetry_equiv_pos_site_id
    _symmetry_equiv_pos_as_xyz
    1  x,y,z
loop_
    _atom_site_type_symbol
    _atom_site_label
    _atom_site_fract_x
    _atom_site_fract_y
    _atom_site_fract_z
    _atom_type_partial_charge
    O   O1   0.513372  0.379758  0.592599  -0.674202
    O   O2   0.526252  0.639483  0.411095  -0.671290
    O   O3   0.516542  0.375552  0.426743  -0.622061
    O   O4   0.522718  0.643656  0.576873  -0.612862
    C   C1   0.512400  0.336464  0.510731  0.797038
    C   C2   0.527034  0.682898  0.493013  0.798534
    O   O5   0.392785  0.515066  0.575137  -0.530913
    O   O6   0.646749  0.503910  0.428264  -0.698525
    O   O7   0.397871  0.512457  0.409457  -0.679862
    O   O8   0.641607  0.506909  0.594088  -0.679341
    C   C3   0.356471  0.514855  0.490829  0.695249
    C   C4   0.683012  0.504224  0.512686  0.877401
    Zn  Zn1  0.515690  0.513199  0.611086  0.964699
    Zn  Zn2  0.523786  0.506009  0.392491  1.008422
    C   C5   0.992737  0.430766  0.472091  -0.167651
    C   C6   0.046801  0.586921  0.532235  -0.126559
    C   C7   0.042535  0.496451  0.411893  -0.178515
    C   C8   0.996984  0.521247  0.592408  -0.171874
    H   H1   0.063685  0.486316  0.336860  0.055344
    H   H2   0.975583  0.531451  0.667320  0.059998
    H   H3   0.968035  0.365835  0.447490  0.063131
    H   H4   0.071593  0.651765  0.556986  0.045063
    H   H5   0.959133  0.624841  0.403022  0.069052
    H   H6   0.080503  0.392909  0.601332  0.078766
    C   C9   0.266649  0.514654  0.488765  -0.062407
    C   C10  0.772842  0.503882  0.514943  -0.184708
    C   C11  0.051620  0.445462  0.556467  -0.162186
    C   C12  0.987944  0.572237  0.447861  -0.178321
    C   C13  0.099784  0.511113  0.496332  0.765976
    C   C14  0.939753  0.506596  0.507959  0.683664
    C   C15  0.191230  0.513424  0.490808  -0.463716
    C   C16  0.848279  0.504647  0.513209  -0.378762
    C   C17  0.469349  0.825066  0.444658  -0.299074
    C   C18  0.572441  0.194871  0.555715  -0.338785
    C   C19  0.531958  0.780096  0.491687  -0.146324
    C   C20  0.507756  0.239484  0.512284  -0.115172
    C   C21  0.593671  0.827123  0.541493  0.130944
    C   C22  0.443269  0.192368  0.467645  0.215334
    C   C23  0.589500  0.920150  0.543944  0.044364
    C   C24  0.449567  0.099610  0.461303  -0.041434
    C   C25  0.523373  0.963954  0.499574  -0.049129
    C   C26  0.516509  0.055867  0.504176  0.027083
    C   C27  0.464192  0.916005  0.449864  0.272693
    C   C28  0.576804  0.103920  0.551949  0.232638
    C   C29  0.650277  0.970696  0.589925  -0.161908
    C   C30  0.391157  0.049438  0.411131  -0.065041
    C   C31  0.643548  0.061464  0.593835  -0.245478
    C   C32  0.398796  0.958771  0.405518  -0.305850
    H   H7   0.421572  0.787945  0.407097  0.149419
    H   H8   0.621703  0.232244  0.590348  0.157348
    H   H9   0.704546  0.942141  0.623695  0.124838
    H   H10  0.339286  0.078548  0.373345  0.110869
    H   H11  0.691541  0.099325  0.630141  0.132321
    H   H12  0.352591  0.921239  0.365913  0.132867
    C   C33  0.456113  0.572492  0.808362  0.125453
    C   C34  0.580631  0.443879  0.195215  0.083290
    N   N1   0.507990  0.520696  0.754530  -0.013292
    N   N2   0.531487  0.498585  0.249054  0.034595
    C   C35  0.563133  0.466209  0.797771  -0.212851
    C   C36  0.479492  0.556469  0.205863  -0.283092
    C   C37  0.568683  0.461741  0.896118  0.186554
    C   C38  0.474044  0.561139  0.107518  0.238596
    C   C39  0.517986  0.513566  0.952265  0.056776
    C   C40  0.523772  0.508300  0.051354  -0.008340
    C   C41  0.461637  0.570428  0.908835  -0.030722
    C   C42  0.579132  0.450365  0.094782  0.045591
    C   C43  0.626185  0.406073  0.938141  -0.226943
    C   C44  0.419177  0.619706  0.065503  -0.244822
    C   C45  0.631966  0.400571  0.036472  -0.138407
    C   C46  0.412766  0.624603  0.967187  -0.092825
    H   H13  0.603658  0.425004  0.754565  0.189970
    H   H14  0.440538  0.599297  0.249136  0.213246
    H   H15  0.667449  0.366296  0.894159  0.140826
    H   H16  0.380474  0.662274  0.109489  0.139540
    H   H17  0.679472  0.357166  0.064665  0.130696
    H   H18  0.369157  0.672470  0.939174  0.111113
    C   C47  0.665919  0.778139  0.587494  -0.387790
    C   C48  0.663909  0.783422  0.694973  0.334105
    C   C49  0.738228  0.792689  0.744890  -0.234656
    C   C50  0.738037  0.796815  0.843762  -0.098926
    C   C51  0.663638  0.791376  0.893430  -0.163841
    C   C52  0.589414  0.781611  0.844159  -0.066754
    C   C53  0.589385  0.777412  0.745255  -0.210780
    H   H19  0.725654  0.805656  0.559987  0.102706
    H   H20  0.668171  0.707339  0.567196  0.144233
    H   H21  0.797084  0.796616  0.706804  0.115631
    H   H22  0.796354  0.804195  0.882352  0.106856
    H   H23  0.663505  0.794582  0.970959  0.108848
    H   H24  0.531039  0.777181  0.883140  0.087705
    H   H25  0.530423  0.769722  0.708367  0.086576
    C   C54  0.366310  0.240787  0.431664  -0.416392
    C   C55  0.292010  0.220736  0.493331  0.222478
    C   C56  0.218570  0.189731  0.452838  -0.200779
    C   C57  0.149540  0.173791  0.509747  -0.082491
    C   C58  0.153251  0.189539  0.607102  -0.174425
    C   C59  0.225880  0.221832  0.647502  -0.016420
    C   C60  0.294997  0.237809  0.590752  -0.212382
    H   H26  0.353930  0.223971  0.355596  0.138961
    H   H27  0.373375  0.313541  0.433084  0.170408
    H   H28  0.214471  0.178078  0.376417  0.102460
    H   H29  0.092314  0.149285  0.477877  0.102571
    H   H30  0.099025  0.177264  0.651610  0.101811
    H   H31  0.228549  0.235081  0.723713  0.074712
    H   H32  0.351151  0.264381  0.623117  0.111915
    C   C61  0.392954  0.631236  0.760028  -0.167769
    C   C62  0.305439  0.598334  0.775545  0.097179
    C   C63  0.242773  0.657591  0.799729  -0.130282
    C   C64  0.161868  0.628176  0.813196  -0.116697
    C   C65  0.143020  0.539526  0.802174  -0.106655
    C   C66  0.205037  0.480294  0.777230  -0.168060
    C   C67  0.286038  0.509465  0.763845  -0.047858
    H   H33  0.404575  0.633894  0.682726  0.077849
    H   H34  0.399732  0.700616  0.785249  0.113121
    H   H35  0.256632  0.727390  0.808153  0.080656
    H   H36  0.113138  0.674750  0.832302  0.105539
    H   H37  0.079602  0.516490  0.812822  0.096478
    H   H38  0.190153  0.410808  0.768075  0.122717
    H   H39  0.333676  0.461901  0.744184  0.068515
    C   C68  0.635020  0.375798  0.243452  -0.268647
    C   C69  0.606960  0.283172  0.221186  0.229254
    C   C70  0.665303  0.219387  0.196222  -0.196656
    C   C71  0.640156  0.133747  0.176565  -0.119694
    C   C72  0.556688  0.111254  0.182108  -0.109060
    C   C73  0.498385  0.174371  0.207709  -0.095177
    C   C74  0.523369  0.260027  0.227775  -0.152799
    H   H40  0.632470  0.383574  0.321356  0.131105
    H   H41  0.701435  0.385764  0.222981  0.103849
    H   H42  0.731025  0.236087  0.191973  0.110139
    H   H43  0.685995  0.084179  0.156870  0.109058
    H   H44  0.536980  0.044096  0.166711  0.098958
    H   H45  0.432948  0.156580  0.212327  0.084006
    H   H46  0.476840  0.308464  0.248455  0.078534
