# Generated by REPEAT Assigner based on pymatgen
data_DB0-m3_o24_o29_f0_nbo.sym.39_sqe
_audit_creation_date              2022-05-24
_audit_creation_method            REPEAT_Assigner
_cell_length_a                    21.506845
_cell_length_b                    21.506306
_cell_length_c                    55.254586
_cell_angle_alpha                 90.000000
_cell_angle_beta                  90.000000
_cell_angle_gamma                 90.000000
_cell_volume                      25557.057329
_symmetry_space_group_name_H-M    P1
_symmetry_Int_Tables_number       1
loop_
    _symmetry_equiv_pos_site_id
    _symmetry_equiv_pos_as_xyz
    1  x,y,z
loop_
    _atom_site_type_symbol
    _atom_site_label
    _atom_site_fract_x
    _atom_site_fract_y
    _atom_site_fract_z
    _atom_type_partial_charge
    O   O1    0.092647  0.997026  0.479223  -0.729347
    O   O2    0.998929  0.091708  0.479075  -0.730087
    O   O3    0.907199  0.997975  0.478531  -0.706788
    O   O4    0.997990  0.906248  0.478676  -0.708034
    O   O5    0.592088  0.499955  0.979102  -0.727974
    O   O6    0.498302  0.592109  0.978059  -0.713549
    O   O7    0.406645  0.500695  0.978417  -0.706490
    O   O8    0.497515  0.406687  0.979451  -0.724425
    O   O9    0.093961  0.001738  0.521022  -0.722903
    O   O10   0.003096  0.093296  0.520882  -0.726382
    O   O11   0.908631  0.002447  0.520333  -0.744780
    O   O12   0.002397  0.907958  0.520478  -0.740713
    O   O13   0.593430  0.498735  0.020921  -0.727116
    O   O14   0.502557  0.592622  0.019890  -0.738427
    O   O15   0.408113  0.499390  0.020235  -0.745412
    O   O16   0.501878  0.407325  0.021279  -0.725835
    C   C1    0.122104  0.999176  0.500008  0.637508
    C   C2    0.001076  0.121298  0.499831  0.635373
    C   C3    0.879111  0.000393  0.499564  0.645886
    C   C4    0.000108  0.878299  0.499743  0.643380
    C   C5    0.621566  0.499252  0.999891  0.642417
    C   C6    0.500573  0.621154  0.998924  0.634177
    C   C7    0.378567  0.500103  0.999465  0.645358
    C   C8    0.499526  0.378210  0.000435  0.642478
    H   H1    0.349341  0.042823  0.311309  0.128737
    H   H2    0.965253  0.349011  0.311463  0.127756
    H   H3    0.648677  0.967082  0.310454  0.128354
    H   H4    0.041243  0.648289  0.310431  0.128614
    H   H5    0.849012  0.541276  0.811320  0.127786
    H   H6    0.464850  0.849042  0.811502  0.127875
    H   H7    0.148749  0.467127  0.810573  0.127945
    H   H8    0.540530  0.148393  0.810266  0.127985
    C   C9    0.500550  0.001985  0.427270  -0.212561
    C   C10   0.002938  0.500442  0.427334  -0.216077
    C   C11   0.000081  0.501438  0.927329  -0.212332
    C   C12   0.502614  0.000661  0.927274  -0.216584
    Zn  Zn1   0.000064  0.999034  0.472360  1.333364
    Zn  Zn2   0.499495  0.499068  0.972226  1.333041
    Zn  Zn3   0.001158  0.000568  0.527205  1.346318
    Zn  Zn4   0.500642  0.500304  0.027123  1.346320
    C   C13   0.956457  0.538979  0.612079  -0.158851
    C   C14   0.461014  0.956312  0.612112  -0.160934
    C   C15   0.034872  0.460466  0.612558  -0.159196
    C   C16   0.539794  0.034466  0.612404  -0.160675
    C   C17   0.456071  0.038893  0.112006  -0.158698
    C   C18   0.960617  0.457252  0.112211  -0.161346
    C   C19   0.534175  0.960073  0.112509  -0.158629
    C   C20   0.039491  0.535313  0.112432  -0.159489
    H   H9    0.926377  0.571406  0.621365  0.138935
    H   H10   0.428655  0.926320  0.621476  0.139450
    H   H11   0.064784  0.428618  0.622223  0.138310
    H   H12   0.571918  0.064250  0.621991  0.138314
    H   H13   0.426144  0.071484  0.121280  0.138842
    H   H14   0.928281  0.427295  0.121605  0.139499
    H   H15   0.563984  0.928148  0.122184  0.137793
    H   H16   0.071712  0.565055  0.121989  0.137854
    N   N1    0.499749  0.004863  0.351102  -0.118436
    N   N2    0.004082  0.499367  0.351164  -0.120452
    N   N3    0.999502  0.504031  0.851165  -0.113888
    N   N4    0.503538  0.999611  0.851102  -0.119962
    H   H17   0.925089  0.567841  0.577249  0.113074
    H   H18   0.431610  0.924953  0.577341  0.113876
    H   H19   0.067887  0.430412  0.578148  0.126680
    H   H20   0.569508  0.067304  0.577930  0.126462
    H   H21   0.424775  0.067764  0.077167  0.113520
    H   H22   0.931028  0.425858  0.077472  0.115638
    H   H23   0.567041  0.929793  0.078105  0.127263
    H   H24   0.069099  0.568044  0.077926  0.125174
    C   C21   0.996543  0.499061  0.574875  -0.035159
    C   C22   0.500551  0.996215  0.574815  -0.036308
    C   C23   0.495949  0.998693  0.074814  -0.035573
    C   C24   0.000043  0.497031  0.074879  -0.037427
    H   H25   0.345962  0.038967  0.268667  0.133775
    H   H26   0.967490  0.345867  0.268804  0.133999
    H   H27   0.650208  0.970016  0.267794  0.134572
    H   H28   0.036669  0.650065  0.267789  0.133867
    H   H29   0.845798  0.537593  0.768676  0.133865
    H   H30   0.467185  0.845682  0.768848  0.133679
    H   H31   0.150401  0.470205  0.767916  0.135210
    H   H32   0.536031  0.149949  0.767620  0.134098
    C   C25   0.055303  0.229404  0.507693  -0.126373
    C   C26   0.771088  0.055042  0.507738  -0.122009
    C   C27   0.958125  0.770943  0.516250  -0.106174
    C   C28   0.229707  0.957019  0.515806  -0.096487
    C   C29   0.554795  0.729092  0.007223  -0.123808
    C   C30   0.270647  0.553957  0.008511  -0.128594
    C   C31   0.457530  0.270555  0.016597  -0.117198
    C   C32   0.729198  0.452284  0.013417  -0.106869
    C   C33   0.010675  0.269270  0.522313  -0.120962
    C   C34   0.731312  0.010927  0.522650  -0.116106
    C   C35   0.013779  0.730276  0.522453  -0.149728
    C   C36   0.270369  0.012625  0.522018  -0.154965
    C   C37   0.510061  0.768705  0.021901  -0.121238
    C   C38   0.230856  0.508407  0.022748  -0.113660
    C   C39   0.513191  0.229820  0.022712  -0.140273
    C   C40   0.769615  0.505352  0.022542  -0.137851
    H   H33   0.018680  0.287184  0.540871  0.046449
    H   H34   0.713561  0.019598  0.541187  0.044837
    H   H35   0.025829  0.712345  0.540674  0.054312
    H   H36   0.288515  0.024504  0.540224  0.056759
    H   H37   0.517918  0.786246  0.040523  0.045784
    H   H38   0.213177  0.515205  0.041413  0.043526
    H   H39   0.525225  0.211604  0.040892  0.053708
    H   H40   0.787588  0.510889  0.041228  0.050393
    H   H41   0.100459  0.210640  0.514057  0.067670
    H   H42   0.789905  0.100409  0.513846  0.067056
    H   H43   0.924051  0.790223  0.529308  0.055971
    H   H44   0.210616  0.922782  0.528842  0.052292
    H   H45   0.599889  0.710188  0.013590  0.067258
    H   H46   0.289551  0.598634  0.015309  0.067215
    H   H47   0.423424  0.289602  0.029694  0.058534
    H   H48   0.710088  0.413793  0.024506  0.059113
    C   C41   0.000835  0.309394  0.500309  0.410672
    C   C42   0.690997  0.000316  0.500746  0.403468
    C   C43   0.998718  0.690178  0.500886  0.436850
    C   C44   0.310213  0.997806  0.500361  0.437087
    C   C45   0.500428  0.809259  0.000002  0.413308
    C   C46   0.190449  0.500119  0.000720  0.406162
    C   C47   0.498182  0.190059  0.001046  0.427690
    C   C48   0.809673  0.498296  0.000360  0.431111
    C   C49   0.045505  0.270698  0.485670  -0.161296
    C   C50   0.729579  0.044461  0.485829  -0.162088
    C   C51   0.943092  0.729683  0.494692  -0.164263
    C   C52   0.270676  0.942209  0.494147  -0.172161
    C   C53   0.545203  0.770817  0.985309  -0.162659
    C   C54   0.229054  0.545693  0.986474  -0.152951
    C   C55   0.442546  0.229638  0.994935  -0.158177
    C   C56   0.770384  0.445239  0.991229  -0.173340
    C   C57   0.991254  0.230374  0.477582  -0.097644
    C   C58   0.769773  0.989924  0.477990  -0.100288
    C   C59   0.984599  0.769210  0.478571  -0.068055
    C   C60   0.230870  0.983837  0.478156  -0.060605
    C   C61   0.491005  0.730680  0.977034  -0.098995
    C   C62   0.269141  0.491939  0.977779  -0.102030
    C   C63   0.484054  0.269453  0.978918  -0.070633
    C   C64   0.730553  0.491899  0.977513  -0.067803
    C   C65   0.946559  0.270301  0.492224  -0.135239
    C   C66   0.730020  0.945749  0.492916  -0.127377
    C   C67   0.040158  0.728528  0.484750  -0.173776
    C   C68   0.271642  0.039371  0.484348  -0.173318
    C   C69   0.446205  0.770342  0.991734  -0.136167
    C   C70   0.229354  0.446335  0.992025  -0.135466
    C   C71   0.539625  0.228687  0.985011  -0.164449
    C   C72   0.771084  0.544906  0.986621  -0.160405
    C   C73   0.956371  0.229039  0.514230  -0.108698
    C   C74   0.771504  0.956314  0.514809  -0.114608
    C   C75   0.055247  0.769799  0.506332  -0.078943
    C   C76   0.230646  0.054210  0.506036  -0.082354
    C   C77   0.455809  0.728647  0.013630  -0.107878
    C   C78   0.270931  0.454577  0.014044  -0.112615
    C   C79   0.554660  0.269618  0.006698  -0.092128
    C   C80   0.729872  0.551966  0.008831  -0.091786
    C   C81   0.001031  0.190284  0.499616  0.324444
    C   C82   0.810115  0.000465  0.499907  0.314909
    C   C83   0.999630  0.809303  0.500149  0.293906
    C   C84   0.191094  0.998636  0.499839  0.296080
    C   C85   0.500576  0.690152  0.998959  0.321655
    C   C86   0.309566  0.500163  0.999823  0.317032
    C   C87   0.499034  0.309201  0.000599  0.301863
    C   C88   0.690559  0.498926  0.999723  0.297177
    H   H49   0.082647  0.289697  0.473880  0.075315
    H   H50   0.710498  0.081157  0.473848  0.076039
    H   H51   0.896436  0.711723  0.489781  0.069820
    H   H52   0.288634  0.895615  0.489145  0.071296
    H   H53   0.582466  0.790013  0.973626  0.075559
    H   H54   0.210006  0.583545  0.975039  0.073265
    H   H55   0.395904  0.211735  0.989973  0.068957
    H   H56   0.788651  0.400911  0.983842  0.073046
    H   H57   0.983190  0.212967  0.458955  0.045441
    H   H58   0.786905  0.981185  0.459370  0.046413
    H   H59   0.972407  0.786925  0.460338  0.038351
    H   H60   0.212820  0.971840  0.459953  0.035717
    H   H61   0.483082  0.713648  0.958345  0.045693
    H   H62   0.286234  0.485069  0.959035  0.046162
    H   H63   0.471880  0.287424  0.960720  0.039483
    H   H64   0.712776  0.486355  0.958804  0.036097
    H   H65   0.901306  0.288656  0.485788  0.055459
    H   H66   0.711637  0.900274  0.486733  0.055109
    H   H67   0.074068  0.709200  0.471637  0.058388
    H   H68   0.290797  0.073440  0.471259  0.057591
    H   H69   0.401013  0.788834  0.985292  0.056076
    H   H70   0.210844  0.401576  0.985148  0.056798
    H   H71   0.573568  0.209589  0.971861  0.056565
    H   H72   0.790142  0.583308  0.975473  0.056931
    H   H73   0.919314  0.210018  0.526057  0.057028
    H   H74   0.790615  0.919693  0.526818  0.059145
    H   H75   0.101792  0.788237  0.511132  0.059317
    H   H76   0.212225  0.100699  0.510930  0.060120
    H   H77   0.418640  0.709418  0.025353  0.057145
    H   H78   0.290016  0.416721  0.025466  0.060609
    H   H79   0.601190  0.287998  0.011552  0.062223
    H   H80   0.711258  0.596287  0.016090  0.059899
    C   C89   0.499974  0.004101  0.377019  0.232306
    C   C90   0.004102  0.499978  0.377081  0.233429
    C   C91   0.999682  0.503311  0.877080  0.228709
    C   C92   0.503683  0.000277  0.877019  0.235358
    O   O17   0.602915  0.971291  0.350707  -0.517590
    O   O18   0.037786  0.602483  0.350689  -0.519155
    O   O19   0.396609  0.038520  0.351300  -0.518958
    O   O20   0.970346  0.396242  0.351443  -0.516625
    O   O21   0.102858  0.471055  0.850809  -0.516326
    O   O22   0.537128  0.102762  0.850558  -0.520020
    O   O23   0.896168  0.537083  0.851330  -0.517120
    O   O24   0.469859  0.896466  0.851447  -0.516667
    C   C93   0.455002  0.971639  0.389473  -0.293265
    C   C94   0.035844  0.455020  0.389833  -0.295268
    C   C95   0.545241  0.035558  0.389720  -0.295170
    C   C96   0.972033  0.545333  0.389485  -0.294104
    C   C97   0.954893  0.470584  0.889531  -0.291427
    C   C98   0.535497  0.955338  0.889754  -0.296763
    C   C99   0.044702  0.535116  0.889781  -0.295121
    C   C100  0.471651  0.045627  0.889443  -0.295754
    C   C101  0.995616  0.500161  0.625010  0.196932
    C   C102  0.500165  0.995347  0.624950  0.201120
    C   C103  0.495106  0.999978  0.124949  0.197093
    C   C104  0.999902  0.496226  0.125014  0.199177
    C   C105  0.955862  0.537278  0.587133  -0.067165
    C   C106  0.462362  0.955678  0.587159  -0.066937
    C   C107  0.036445  0.461128  0.587633  -0.083627
    C   C108  0.538779  0.036014  0.587486  -0.082374
    C   C109  0.455429  0.037102  0.087061  -0.066940
    C   C110  0.961844  0.456581  0.087260  -0.067382
    C   C111  0.535717  0.960645  0.087583  -0.084696
    C   C112  0.038358  0.536827  0.087512  -0.079622
    O   O25   0.945350  0.501773  0.536639  -0.751419
    O   O26   0.497990  0.944805  0.536614  -0.751492
    O   O27   0.052622  0.496999  0.537840  -0.732042
    O   O28   0.502641  0.052092  0.537744  -0.731045
    O   O29   0.444816  0.001457  0.036565  -0.752193
    O   O30   0.997386  0.445303  0.036754  -0.753672
    O   O31   0.552086  0.996681  0.037792  -0.731304
    O   O32   0.002208  0.552591  0.037728  -0.733864
    C   C113  0.998198  0.499319  0.548482  0.788513
    C   C114  0.500200  0.997721  0.548421  0.787888
    C   C115  0.497642  0.998951  0.048421  0.788746
    C   C116  0.999689  0.498324  0.048484  0.791989
    O   O33   0.947515  0.407482  0.499994  -0.707926
    O   O34   0.592959  0.946922  0.500243  -0.706064
    O   O35   0.051781  0.592043  0.502635  -0.710025
    O   O36   0.408259  0.050989  0.502266  -0.709732
    O   O37   0.447100  0.907352  0.999844  -0.707176
    O   O38   0.092334  0.446855  0.000380  -0.706150
    O   O39   0.551277  0.091915  0.002664  -0.709550
    O   O40   0.907788  0.551353  0.002262  -0.710213
    O   O41   0.054880  0.406767  0.501962  -0.696226
    O   O42   0.593537  0.054296  0.502126  -0.695414
    O   O43   0.944526  0.592762  0.499892  -0.692841
    O   O44   0.407695  0.943714  0.499602  -0.691166
    O   O45   0.554458  0.906642  0.001839  -0.696442
    O   O46   0.093069  0.554250  0.002076  -0.696195
    O   O47   0.444028  0.092632  0.999890  -0.691466
    O   O48   0.907063  0.444052  0.999751  -0.692310
    C   C117  0.001059  0.378339  0.500846  0.535399
    C   C118  0.622041  0.000492  0.501171  0.535215
    C   C119  0.998299  0.621202  0.501283  0.531717
    C   C120  0.379182  0.997472  0.500841  0.533363
    C   C121  0.500645  0.878206  0.000687  0.533969
    C   C122  0.121494  0.500392  0.001206  0.534660
    C   C123  0.497792  0.121074  0.001321  0.533072
    C   C124  0.878634  0.497870  0.000910  0.533336
    Zn  Zn5   0.929276  0.499902  0.500508  1.351644
    Zn  Zn6   0.500557  0.928576  0.500499  1.349707
    Zn  Zn7   0.070110  0.499647  0.501841  1.349270
    Zn  Zn8   0.500646  0.069420  0.501728  1.347387
    Zn  Zn9   0.428820  0.999762  0.000428  1.350350
    Zn  Zn10  0.999891  0.428715  0.000665  1.349123
    Zn  Zn11  0.569648  0.999530  0.001801  1.347920
    Zn  Zn12  0.000212  0.569580  0.001687  1.347816
    O   O49   0.946709  0.501371  0.464500  -0.652019
    O   O50   0.499748  0.945852  0.464476  -0.651393
    O   O51   0.054095  0.498900  0.465708  -0.667267
    O   O52   0.502078  0.053248  0.465610  -0.665276
    O   O53   0.446326  0.001433  0.964427  -0.650724
    O   O54   0.999133  0.445647  0.964617  -0.648606
    O   O55   0.553711  0.998971  0.965662  -0.665671
    O   O56   0.001536  0.553051  0.965594  -0.662802
    C   C125  0.001198  0.500184  0.453838  0.570156
    C   C126  0.501000  0.000296  0.453776  0.566067
    C   C127  0.500835  0.000303  0.953779  0.568008
    C   C128  0.000413  0.499988  0.953837  0.564613
    C   C129  0.053333  0.501365  0.738311  0.049885
    C   C130  0.503106  0.053036  0.738235  0.051477
    C   C131  0.941669  0.505538  0.738622  0.053902
    C   C132  0.498446  0.941391  0.738587  0.049245
    C   C133  0.553204  0.001553  0.238221  0.053716
    C   C134  0.003541  0.553350  0.238341  0.050266
    C   C135  0.441564  0.006276  0.238587  0.051006
    C   C136  0.998754  0.441709  0.238607  0.050737
    C   C137  0.997259  0.503216  0.725995  0.026419
    C   C138  0.500491  0.996963  0.725940  0.028503
    C   C139  0.497099  0.003617  0.225933  0.025252
    C   C140  0.000817  0.497347  0.226003  0.028185
    C   C141  0.108165  0.505609  0.725067  -0.182495
    C   C142  0.498531  0.107882  0.725016  -0.182330
    C   C143  0.886331  0.500949  0.725711  -0.185370
    C   C144  0.502255  0.886025  0.725655  -0.183020
    C   C145  0.608012  0.005466  0.224947  -0.184113
    C   C146  0.998995  0.608273  0.225169  -0.182768
    C   C147  0.386161  0.001883  0.225708  -0.184690
    C   C148  0.002464  0.386408  0.225628  -0.185670
    C   C149  0.107003  0.508647  0.700251  -0.028799
    C   C150  0.494458  0.106721  0.700223  -0.031654
    C   C151  0.886545  0.496905  0.700906  -0.030952
    C   C152  0.505309  0.886210  0.700828  -0.031841
    C   C153  0.606781  0.008381  0.200129  -0.027782
    C   C154  0.994825  0.607251  0.200377  -0.030491
    C   C155  0.386273  0.997687  0.200906  -0.031789
    C   C156  0.005418  0.386724  0.200800  -0.029551
    C   C157  0.051372  0.505750  0.688030  -0.129554
    C   C158  0.496641  0.051070  0.687991  -0.123182
    C   C159  0.941715  0.499119  0.688349  -0.124405
    C   C160  0.502840  0.941384  0.688280  -0.123505
    C   C161  0.551096  0.005680  0.187938  -0.129809
    C   C162  0.996877  0.551663  0.188099  -0.125450
    C   C163  0.441410  0.999563  0.188319  -0.122843
    C   C164  0.002947  0.441968  0.188298  -0.126053
    C   C165  0.996779  0.502703  0.700878  0.124333
    C   C166  0.499976  0.996469  0.700824  0.120624
    C   C167  0.496532  0.002965  0.200816  0.123942
    C   C168  0.000201  0.496989  0.200887  0.122925
    C   C169  0.452621  0.972989  0.414468  0.126963
    C   C170  0.032827  0.452557  0.414816  0.125967
    C   C171  0.548171  0.032120  0.414691  0.126383
    C   C172  0.973838  0.548194  0.414470  0.128454
    C   C173  0.952402  0.472028  0.914523  0.132790
    C   C174  0.532518  0.952821  0.914735  0.128387
    C   C175  0.047562  0.531819  0.914755  0.124475
    C   C176  0.473500  0.048440  0.914431  0.128401
    C   C177  0.050201  0.507107  0.663013  0.436904
    C   C178  0.494357  0.049898  0.662986  0.434255
    C   C179  0.941988  0.496418  0.663333  0.436716
    C   C180  0.504643  0.941642  0.663251  0.437198
    C   C181  0.549848  0.006896  0.162921  0.435848
    C   C182  0.994463  0.550624  0.163094  0.436164
    C   C183  0.441589  0.996699  0.163305  0.436511
    C   C184  0.004619  0.442354  0.163270  0.438392
    N   N5    0.995898  0.501305  0.650935  -0.162559
    N   N6    0.499563  0.995576  0.650878  -0.164574
    N   N7    0.495479  0.001264  0.150874  -0.161908
    N   N8    0.999518  0.496355  0.150942  -0.165252
    H   H81   0.153267  0.509477  0.733351  0.132336
    H   H82   0.495191  0.153000  0.733323  0.133341
    H   H83   0.841538  0.497505  0.734271  0.133538
    H   H84   0.505840  0.841221  0.734199  0.132361
    H   H85   0.653158  0.009159  0.233206  0.132654
    H   H86   0.995745  0.653352  0.233513  0.133533
    H   H87   0.341382  0.998706  0.234295  0.133576
    H   H88   0.006037  0.341556  0.234134  0.132867
    H   H89   0.150671  0.512335  0.690702  0.127458
    H   H90   0.490566  0.150400  0.690693  0.127601
    H   H91   0.842523  0.492875  0.691628  0.129428
    H   H92   0.508786  0.842166  0.691531  0.129992
    H   H93   0.650434  0.011809  0.190555  0.127155
    H   H94   0.990951  0.650985  0.190885  0.127369
    H   H95   0.342202  0.993811  0.191654  0.129620
    H   H96   0.008811  0.342726  0.191466  0.129460
    O   O57   0.103463  0.515590  0.650725  -0.497751
    O   O58   0.485644  0.103192  0.650742  -0.497866
    O   O59   0.888297  0.487439  0.651389  -0.502310
    O   O60   0.513010  0.887914  0.651263  -0.502366
    O   O61   0.603108  0.015068  0.150599  -0.497374
    O   O62   0.985768  0.603992  0.150897  -0.498597
    O   O63   0.387818  0.987882  0.151397  -0.502713
    O   O64   0.012876  0.388679  0.151235  -0.502241
    H   H97   0.420607  0.945992  0.379352  0.167594
    H   H98   0.061915  0.420502  0.379941  0.168483
    H   H99   0.579533  0.061858  0.379800  0.168658
    H   H100  0.946234  0.579558  0.379335  0.167747
    H   H101  0.920720  0.444657  0.879405  0.167933
    H   H102  0.561572  0.920855  0.879846  0.168524
    H   H103  0.078846  0.561610  0.879861  0.169161
    H   H104  0.445825  0.079868  0.879311  0.167727
    C   C185  0.553233  0.996191  0.263412  0.056854
    C   C186  0.010117  0.553171  0.263486  0.058851
    C   C187  0.442698  0.012568  0.263746  0.058827
    C   C188  0.993663  0.442644  0.263808  0.057901
    C   C189  0.053305  0.495893  0.763498  0.060383
    C   C190  0.509609  0.053000  0.763383  0.057162
    C   C191  0.942685  0.511709  0.763786  0.055502
    C   C192  0.493277  0.942457  0.763786  0.056418
    C   C193  0.498245  0.004559  0.276050  0.018394
    C   C194  0.002261  0.498098  0.276118  0.016608
    C   C195  0.998232  0.503926  0.776114  0.016862
    C   C196  0.501784  0.997985  0.776055  0.019694
    C   C197  0.389656  0.027234  0.276972  -0.196949
    C   C198  0.979570  0.389511  0.277074  -0.195281
    C   C199  0.606876  0.981950  0.276339  -0.196741
    C   C200  0.025019  0.606701  0.276370  -0.196147
    C   C201  0.889524  0.526044  0.776994  -0.196697
    C   C202  0.479202  0.889380  0.777088  -0.194504
    C   C203  0.106978  0.481880  0.776445  -0.199115
    C   C204  0.524416  0.106614  0.776231  -0.198329
    C   C205  0.391527  0.030888  0.301773  -0.016908
    C   C206  0.976878  0.391239  0.301896  -0.015378
    C   C207  0.606089  0.978844  0.301159  -0.015750
    C   C208  0.029099  0.605762  0.301167  -0.016606
    C   C209  0.891291  0.529596  0.801798  -0.014192
    C   C210  0.476451  0.891234  0.801907  -0.016116
    C   C211  0.106128  0.478691  0.801263  -0.014630
    C   C212  0.528450  0.105806  0.801031  -0.012462
    C   C213  0.445773  0.018287  0.314007  -0.117921
    C   C214  0.989910  0.445424  0.314103  -0.124274
    C   C215  0.552352  0.991586  0.313704  -0.123161
    C   C216  0.016703  0.551982  0.313737  -0.126060
    C   C217  0.945562  0.517237  0.814051  -0.122407
    C   C218  0.489410  0.945493  0.814076  -0.122064
    C   C219  0.052286  0.491113  0.813787  -0.121402
    C   C220  0.516098  0.052075  0.813638  -0.127683
    C   C221  0.498796  0.004841  0.301167  0.092648
    C   C222  0.002973  0.498496  0.301233  0.098147
    C   C223  0.998698  0.504116  0.801231  0.095665
    C   C224  0.502444  0.998512  0.801170  0.096471
    C   C225  0.551744  0.989721  0.338724  0.437165
    C   C226  0.019143  0.551322  0.338747  0.440198
    C   C227  0.447347  0.020184  0.339019  0.434333
    C   C228  0.988578  0.446953  0.339121  0.436284
    C   C229  0.051616  0.489201  0.838806  0.431840
    C   C230  0.518532  0.051531  0.838651  0.440323
    C   C231  0.947047  0.519072  0.839064  0.434075
    C   C232  0.488060  0.947137  0.839093  0.435202
    C   C233  0.396850  0.944710  0.426888  0.411539
    C   C234  0.336917  0.971480  0.416731  -0.522809
    C   C235  0.397305  0.874512  0.424095  -0.307362
    H   H105  0.395490  0.955215  0.446425  0.028938
    H   H106  0.326664  0.952678  0.398496  0.133499
    H   H107  0.340640  0.022865  0.415871  0.125174
    H   H108  0.298007  0.958897  0.428926  0.108850
    H   H109  0.391704  0.861023  0.404863  0.054360
    H   H110  0.358544  0.854398  0.434765  0.064070
    H   H111  0.441979  0.855886  0.431006  0.041987
    C   C236  0.059839  0.396525  0.427480  0.411474
    C   C237  0.033253  0.336850  0.416997  -0.471117
    C   C238  0.130193  0.396456  0.425391  -0.332740
    H   H112  0.048104  0.395234  0.446909  0.024995
    H   H113  0.053331  0.326486  0.398979  0.120107
    H   H114  0.982002  0.341118  0.415533  0.110948
    H   H115  0.044436  0.297691  0.429287  0.092151
    H   H116  0.144915  0.391037  0.406289  0.060174
    H   H117  0.149290  0.357378  0.436167  0.070172
    H   H118  0.148682  0.440882  0.432595  0.048538
    C   C239  0.604316  0.059094  0.427289  0.405091
    C   C240  0.663892  0.032714  0.416648  -0.470060
    C   C241  0.604249  0.129473  0.425316  -0.328381
    H   H119  0.605857  0.047148  0.446698  0.028174
    H   H120  0.673967  0.052993  0.398639  0.120416
    H   H121  0.659677  0.981472  0.415109  0.110584
    H   H122  0.703192  0.043822  0.428884  0.093029
    H   H123  0.609468  0.144420  0.406232  0.059172
    H   H124  0.643395  0.148517  0.436069  0.069389
    H   H125  0.559863  0.147813  0.432615  0.047926
    C   C242  0.945812  0.604188  0.426824  0.409863
    C   C243  0.972567  0.663918  0.416482  -0.526855
    C   C244  0.875578  0.603828  0.424166  -0.306964
    H   H126  0.956570  0.605784  0.446341  0.031121
    H   H127  0.953595  0.673894  0.398250  0.134869
    H   H128  0.023934  0.660088  0.415546  0.125613
    H   H129  0.960186  0.703051  0.428602  0.111078
    H   H130  0.861850  0.609259  0.404953  0.054260
    H   H131  0.855669  0.642736  0.434814  0.064507
    H   H132  0.856957  0.559260  0.431182  0.041810
    C   C245  0.896818  0.443326  0.926933  0.392139
    C   C246  0.836656  0.469401  0.916706  -0.507350
    C   C247  0.897975  0.373112  0.924229  -0.309834
    H   H133  0.895235  0.453991  0.946453  0.033959
    H   H134  0.826680  0.450365  0.898485  0.130157
    H   H135  0.839841  0.520817  0.915796  0.119751
    H   H136  0.797822  0.456477  0.928891  0.106389
    H   H137  0.892670  0.359424  0.905005  0.054911
    H   H138  0.859323  0.352705  0.934874  0.066721
    H   H139  0.942771  0.354974  0.931217  0.043340
    C   C248  0.559571  0.896766  0.927371  0.407995
    C   C249  0.533014  0.837105  0.916863  -0.470562
    C   C250  0.629923  0.896746  0.925272  -0.331922
    H   H140  0.547853  0.895410  0.946800  0.026189
    H   H141  0.553034  0.826834  0.898827  0.119897
    H   H142  0.481752  0.841317  0.915433  0.111255
    H   H143  0.544296  0.797905  0.929118  0.093168
    H   H144  0.644630  0.891373  0.906166  0.060029
    H   H145  0.649056  0.857660  0.936034  0.070525
    H   H146  0.648390  0.941170  0.932487  0.048205
    C   C251  0.103470  0.559273  0.927364  0.409761
    C   C252  0.163302  0.533370  0.916770  -0.474058
    C   C253  0.102838  0.629645  0.925365  -0.327907
    H   H147  0.105091  0.547371  0.946775  0.025887
    H   H148  0.173292  0.553697  0.898762  0.120673
    H   H149  0.159531  0.482090  0.915249  0.111194
    H   H150  0.202431  0.544852  0.929040  0.095150
    H   H151  0.107988  0.644581  0.906277  0.058817
    H   H152  0.141802  0.649028  0.936127  0.069487
    H   H153  0.058287  0.647647  0.932637  0.047152
    C   C254  0.445488  0.104402  0.926813  0.412833
    C   C255  0.472253  0.164159  0.916498  -0.523104
    C   C256  0.375252  0.104067  0.924162  -0.307037
    H   H154  0.456258  0.105934  0.946329  0.029256
    H   H155  0.453230  0.174216  0.898281  0.134163
    H   H156  0.523614  0.160292  0.915533  0.124273
    H   H157  0.459950  0.203253  0.928653  0.108300
    H   H158  0.361510  0.109543  0.904952  0.054163
    H   H159  0.355362  0.142958  0.934825  0.064293
    H   H160  0.356623  0.059489  0.931166  0.041672
