# Generated by REPEAT Assigner based on pymatgen
data_DB0-m9_o13_o27_f0_sra.sym.97_sqe
_audit_creation_date              2022-05-24
_audit_creation_method            REPEAT_Assigner
_cell_length_a                    6.718366
_cell_length_b                    21.584013
_cell_length_c                    23.790678
_cell_angle_alpha                 112.248214
_cell_angle_beta                  89.303468
_cell_angle_gamma                 90.778630
_cell_volume                      3192.648136
_symmetry_space_group_name_H-M    P1
_symmetry_Int_Tables_number       1
loop_
    _symmetry_equiv_pos_site_id
    _symmetry_equiv_pos_as_xyz
    1  x,y,z
loop_
    _atom_site_type_symbol
    _atom_site_label
    _atom_site_fract_x
    _atom_site_fract_y
    _atom_site_fract_z
    _atom_type_partial_charge
    O  O1   0.464745  0.437266  0.420356  -0.460155
    O  O2   0.800449  0.441220  0.540475  -0.526217
    O  O3   0.963441  0.566019  0.573478  -0.497795
    C  C1   0.625623  0.434106  0.561154  0.503330
    O  O4   0.805083  0.423493  0.420228  -0.524960
    O  O5   0.968266  0.547463  0.445723  -0.540630
    C  C2   0.630410  0.409852  0.395202  0.525094
    O  O6   0.459629  0.455987  0.548164  -0.492231
    O  O7   0.639930  0.543206  0.506689  -0.529152
    V  V1   0.912245  0.493186  0.494659  1.488581
    O  O8   0.309844  0.561922  0.453020  -0.517962
    C  C3   0.137236  0.568815  0.432240  0.548101
    O  O9   0.304939  0.579866  0.573420  -0.519422
    C  C4   0.129492  0.593504  0.598587  0.542970
    V  V2   0.412800  0.510147  0.499086  1.409621
    O  O10  0.136992  0.460123  0.487057  -0.546563
    C  C5   0.223108  0.852826  0.843307  0.020317
    C  C6   0.114285  0.648978  0.657288  0.035744
    C  C7   0.917878  0.715175  0.742966  -0.240043
    C  C8   0.934568  0.661972  0.688027  -0.119088
    C  C9   0.277118  0.689455  0.681367  -0.280467
    C  C10  0.259269  0.743508  0.735643  0.230023
    C  C11  0.080022  0.756247  0.766682  0.201340
    C  C12  0.062360  0.810509  0.820957  -0.271022
    C  C13  0.401516  0.840281  0.811900  -0.096250
    C  C14  0.420225  0.785377  0.758427  -0.269625
    H  H1   0.921885  0.820541  0.845224  0.161220
    H  H2   0.527305  0.873532  0.829420  0.115656
    H  H3   0.776990  0.725201  0.767006  0.145334
    H  H4   0.560402  0.775624  0.733993  0.147359
    H  H5   0.806636  0.630350  0.669050  0.108807
    H  H6   0.417506  0.679764  0.657049  0.170112
    C  C15  0.325397  0.861817  0.097238  -0.197428
    H  H7   0.460527  0.867101  0.074253  0.116743
    C  C16  0.324764  0.824416  0.133289  0.196111
    H  H8   0.459409  0.800240  0.138376  0.011460
    C  C17  0.152186  0.818004  0.162878  -0.534637
    C  C18  0.980839  0.848880  0.156437  0.179094
    H  H9   0.845912  0.844053  0.179728  0.011145
    C  C19  0.982366  0.887048  0.121397  -0.174443
    H  H10  0.848402  0.912068  0.117153  0.119653
    C  C20  0.154113  0.893597  0.091764  0.056994
    N  N1   0.975439  0.769260  0.225856  -0.314961
    N  N2   0.971487  0.735680  0.262202  -0.334480
    C  C21  0.141569  0.712437  0.275711  0.869483
    N  N3   0.315420  0.723023  0.251923  -0.325812
    N  N4   0.319211  0.756256  0.215256  -0.328985
    C  C22  0.149150  0.779778  0.201995  0.890443
    C  C23  0.314746  0.659063  0.335362  0.138327
    H  H11  0.454834  0.672598  0.320053  0.025941
    C  C24  0.312846  0.624992  0.373993  -0.201089
    H  H12  0.451600  0.611514  0.388706  0.122285
    C  C25  0.134510  0.607019  0.393135  0.114872
    C  C26  0.957341  0.623848  0.374113  -0.227017
    H  H13  0.817357  0.609656  0.388936  0.144782
    C  C27  0.959247  0.658937  0.336133  0.144200
    H  H14  0.820592  0.672304  0.321272  0.027029
    C  C28  0.138097  0.676144  0.316454  -0.466659
    C  C29  0.442731  0.382560  0.623923  -0.185127
    H  H15  0.306823  0.405876  0.618474  0.109794
    C  C30  0.442885  0.343330  0.658347  0.123436
    H  H16  0.306933  0.335911  0.679860  0.037394
    C  C31  0.616875  0.313585  0.665192  -0.456902
    C  C32  0.789970  0.323109  0.637866  0.135926
    H  H17  0.926170  0.299964  0.643349  0.028073
    C  C33  0.790289  0.362719  0.604218  -0.220276
    H  H18  0.926799  0.370492  0.583159  0.152226
    C  C34  0.617278  0.392431  0.597120  0.111266
    N  N5   0.791681  0.241546  0.704624  -0.334162
    N  N6   0.799990  0.205259  0.738484  -0.314740
    C  C35  0.638927  0.199592  0.770318  0.881753
    N  N7   0.469108  0.230626  0.767481  -0.306618
    N  N8   0.460556  0.266738  0.733392  -0.346892
    C  C36  0.622124  0.272611  0.701770  0.867785
    C  C37  0.490739  0.159987  0.845582  0.211595
    H  H19  0.356939  0.187043  0.845121  0.006647
    C  C38  0.503454  0.125398  0.883604  -0.259190
    H  H20  0.379315  0.125244  0.912889  0.161849
    C  C39  0.674513  0.091239  0.884605  0.146621
    C  C40  0.833127  0.091468  0.847357  -0.200760
    H  H21  0.967499  0.064864  0.848216  0.105719
    C  C41  0.821145  0.126679  0.809714  0.206323
    H  H22  0.946218  0.127616  0.781019  -0.001262
    C  C42  0.650016  0.161003  0.808917  -0.549903
    C  C43  0.685762  0.146406  0.152098  0.048278
    C  C44  0.613474  0.355242  0.336128  0.051689
    C  C45  0.423847  0.299422  0.246444  -0.104648
    C  C46  0.446030  0.350820  0.302103  -0.169274
    C  C47  0.757372  0.306876  0.315221  -0.227025
    C  C48  0.731829  0.253650  0.260604  0.163946
    C  C49  0.567008  0.250173  0.225062  0.044393
    C  C50  0.547558  0.196958  0.169399  0.052835
    C  C51  0.847571  0.149799  0.188116  -0.255870
    C  C52  0.871866  0.203741  0.241941  -0.162065
    H  H23  0.954464  0.109783  0.174308  0.143177
    H  H24  0.289203  0.297975  0.222030  0.152718
    H  H25  0.999348  0.206437  0.270091  0.106929
    H  H26  0.331647  0.388261  0.318989  0.098724
    H  H27  0.887070  0.309367  0.342470  0.147046
    O  O11  0.861901  0.029546  0.929002  -0.485899
    O  O12  0.491161  0.059534  0.082221  -0.542373
    O  O13  0.308779  0.936526  0.022687  -0.474164
    C  C53  0.665772  0.090636  0.093761  0.525901
    O  O14  0.548659  0.072953  0.969977  -0.465078
    O  O15  0.364908  0.952544  0.912006  -0.557033
    C  C54  0.686149  0.056155  0.926118  0.442722
    O  O16  0.816667  0.081028  0.055167  -0.506864
    O  O17  0.676108  0.958442  0.985540  -0.598374
    V  V3   0.402561  0.009678  0.998064  1.494636
    O  O18  0.042865  0.916906  0.933625  -0.572346
    C  C55  0.207534  0.911734  0.899501  0.601549
    O  O19  0.988824  0.971167  0.061821  -0.520915
    C  C56  0.150514  0.935759  0.056221  0.536416
    V  V4   0.902737  0.994628  0.993402  1.508963
    O  O20  0.179172  0.046030  0.004474  -0.643182
    N  N9   0.403592  0.196620  0.126525  -0.300449
    C  C57  0.418573  0.253425  0.108814  0.097593
    C  C58  0.255727  0.249876  0.064420  0.221292
    O  O21  0.071314  0.247745  0.091054  -0.407981
    C  C59  0.060158  0.184188  0.093336  -0.081148
    C  C60  0.205656  0.179107  0.139572  0.049601
    H  H28  0.565026  0.252524  0.086519  -0.002530
    H  H29  0.408303  0.301097  0.148431  -0.011881
    H  H30  0.274550  0.204713  0.022357  -0.028282
    H  H31  0.264499  0.294917  0.052692  0.016224
    H  H32  0.093369  0.145550  0.047927  0.182465
    H  H33  0.907339  0.175764  0.107063  0.227051
    H  H34  0.206700  0.126721  0.136867  0.054172
    H  H35  0.156635  0.211473  0.185722  0.053408
