# Generated by REPEAT Assigner based on pymatgen
data_DB0-m2_o13_o21_f0_pcu.sym.4
_audit_creation_date              2022-05-24
_audit_creation_method            REPEAT_Assigner
_cell_length_a                    11.723870
_cell_length_b                    12.955957
_cell_length_c                    13.971918
_cell_angle_alpha                 89.571102
_cell_angle_beta                  90.432087
_cell_angle_gamma                 99.640020
_cell_volume                      2092.181214
_symmetry_space_group_name_H-M    P1
_symmetry_Int_Tables_number       1
loop_
    _symmetry_equiv_pos_site_id
    _symmetry_equiv_pos_as_xyz
    1  x,y,z
loop_
    _atom_site_type_symbol
    _atom_site_label
    _atom_site_fract_x
    _atom_site_fract_y
    _atom_site_fract_z
    _atom_type_partial_charge
    O   O1   0.576751  0.352984  0.488040  -0.549317
    O   O2   0.423264  0.646982  0.512083  -0.549558
    O   O3   0.381312  0.343043  0.510140  -0.541060
    O   O4   0.618691  0.656921  0.489975  -0.540872
    C   C1   0.473250  0.298834  0.498858  0.576036
    C   C2   0.526764  0.701141  0.501262  0.576232
    O   O5   0.614907  0.508335  0.630965  -0.546916
    O   O6   0.385096  0.491628  0.369156  -0.547221
    O   O7   0.417832  0.491436  0.646077  -0.509140
    O   O8   0.582170  0.508518  0.354044  -0.508638
    C   C3   0.521567  0.500015  0.683021  0.772515
    C   C4   0.478433  0.499916  0.317105  0.772313
    Cu  Cu1  0.614741  0.505460  0.491154  0.824225
    Cu  Cu2  0.385267  0.494505  0.508964  0.826417
    C   C5   0.467158  0.499600  0.214773  -0.306151
    C   C6   0.532841  0.500310  0.785360  -0.306580
    C   C7   0.452464  0.499121  0.025928  -0.079496
    C   C8   0.547517  0.500784  0.974215  -0.080138
    C   C9   0.540209  0.500530  0.871430  0.048103
    C   C10  0.459780  0.499369  0.128707  0.047629
    H   H1   0.630441  0.502340  0.009506  0.154491
    H   H2   0.369535  0.497572  0.990646  0.154316
    C   C11  0.537492  0.815713  0.499823  0.051259
    C   C12  0.462541  0.184288  0.500295  0.051983
    C   C13  0.348822  0.013655  0.515254  -0.255774
    C   C14  0.651231  0.986355  0.484853  -0.256784
    C   C15  0.356362  0.121096  0.512419  -0.132463
    C   C16  0.643681  0.878904  0.487695  -0.131657
    C   C17  0.560743  0.138688  0.490876  -0.285505
    C   C18  0.439302  0.861329  0.509242  -0.284662
    C   C19  0.552970  0.031275  0.493928  0.224141
    C   C20  0.447070  0.968739  0.506184  0.223055
    H   H3   0.355252  0.813685  0.518698  0.156880
    H   H4   0.644809  0.186337  0.481428  0.157135
    H   H5   0.721483  0.845314  0.480073  0.128354
    H   H6   0.278575  0.154697  0.520044  0.128410
    H   H7   0.265343  0.964906  0.524860  0.145470
    H   H8   0.734733  0.035082  0.475234  0.145677
    N   N1   0.786658  0.512156  0.477900  -0.333644
    N   N2   0.213352  0.487822  0.522217  -0.335103
    C   C21  0.033941  0.422195  0.599638  -0.316500
    C   C22  0.966067  0.577772  0.400446  -0.316179
    C   C23  0.152015  0.427743  0.591826  0.344964
    C   C24  0.847979  0.572220  0.408263  0.344069
    C   C25  0.151290  0.540115  0.459446  0.358179
    C   C26  0.848744  0.459876  0.540655  0.357386
    C   C27  0.029873  0.529314  0.464929  -0.013113
    C   C28  0.970149  0.470666  0.535156  -0.012544
    H   H9   0.994415  0.379826  0.660538  0.151131
    H   H10  0.005612  0.620134  0.339556  0.151128
    C   C29  0.792098  0.383607  0.615058  -0.352517
    H   H11  0.698662  0.364066  0.612473  0.145914
    H   H12  0.820649  0.306902  0.605544  0.083603
    H   H13  0.815316  0.414612  0.687734  0.097282
    C   C30  0.207976  0.616379  0.385038  -0.353297
    H   H14  0.301426  0.635919  0.387600  0.146129
    H   H15  0.184749  0.585356  0.312369  0.097367
    H   H16  0.179407  0.693083  0.394533  0.083776
    C   C31  0.794833  0.628234  0.329403  -0.340579
    H   H17  0.860901  0.687727  0.294870  0.064147
    H   H18  0.760423  0.572029  0.272609  0.110208
    H   H19  0.729518  0.673082  0.354432  0.125929
    C   C32  0.205124  0.371718  0.670689  -0.341395
    H   H20  0.139057  0.312219  0.705214  0.064276
    H   H21  0.270420  0.326865  0.645659  0.126175
    H   H22  0.239531  0.427913  0.727483  0.110496
