# Generated by REPEAT Assigner based on pymatgen
data_DB0-m2_o11_o26_f0_pcu.sym.92
_audit_creation_date              2022-05-24
_audit_creation_method            REPEAT_Assigner
_cell_length_a                    9.540010
_cell_length_b                    11.003903
_cell_length_c                    17.371838
_cell_angle_alpha                 90.006727
_cell_angle_beta                  86.248727
_cell_angle_gamma                 90.019919
_cell_volume                      1819.742107
_symmetry_space_group_name_H-M    P1
_symmetry_Int_Tables_number       1
loop_
    _symmetry_equiv_pos_site_id
    _symmetry_equiv_pos_as_xyz
    1  x,y,z
loop_
    _atom_site_type_symbol
    _atom_site_label
    _atom_site_fract_x
    _atom_site_fract_y
    _atom_site_fract_z
    _atom_type_partial_charge
    O   O1   0.380419  0.682187  0.504680  -0.603180
    O   O2   0.620261  0.682181  0.513422  -0.588866
    C   C1   0.500733  0.738938  0.506236  0.738861
    O   O3   0.360861  0.512680  0.626254  -0.546130
    O   O4   0.601953  0.518232  0.627940  -0.551141
    C   C2   0.476312  0.517394  0.663239  0.562747
    Cu  Cu1  0.357360  0.506468  0.514008  0.891284
    Cu  Cu2  0.637315  0.505292  0.516283  0.914319
    O   O5   0.374412  0.329824  0.518298  -0.661784
    O   O6   0.614182  0.329320  0.524315  -0.651209
    O   O7   0.393553  0.491999  0.402411  -0.492803
    O   O8   0.633149  0.501250  0.404084  -0.538781
    C   C3   0.493671  0.272887  0.523568  0.854700
    C   C4   0.518774  0.494986  0.366531  0.529035
    C   C5   0.465659  0.515573  0.747810  0.008347
    C   C6   0.586398  0.515875  0.787563  -0.103967
    C   C7   0.578565  0.506638  0.866732  -0.207271
    C   C8   0.449409  0.498071  0.907619  0.247409
    C   C9   0.328809  0.497013  0.867816  -0.232110
    C   C10  0.336514  0.506414  0.788402  -0.102446
    C   C11  0.406702  0.503403  0.164305  -0.346001
    C   C12  0.404840  0.497739  0.243552  0.016460
    C   C13  0.655895  0.497963  0.236748  0.007547
    C   C14  0.657165  0.500294  0.156987  -0.381006
    C   C15  0.532567  0.505439  0.120374  0.413068
    C   C16  0.437947  0.482780  0.992043  -0.168959
    C   C17  0.536569  0.525185  0.036331  -0.276586
    C   C18  0.528461  0.496185  0.281117  -0.063152
    H   H1   0.688967  0.520551  0.757419  0.105931
    H   H2   0.303972  0.497943  0.275568  0.044707
    H   H3   0.622757  0.577898  0.010224  0.130007
    H   H4   0.227369  0.488722  0.898864  0.121049
    H   H5   0.307867  0.511124  0.137848  0.163133
    H   H6   0.240492  0.504457  0.758701  0.116246
    H   H7   0.347781  0.434161  0.017535  0.101906
    H   H8   0.675734  0.501430  0.895069  0.140547
    C   C19  0.606682  0.073497  0.515764  -0.018761
    C   C20  0.490408  0.140207  0.529037  -0.375472
    H   H9   0.707671  0.118036  0.506388  0.106041
    H   H10  0.389984  0.097516  0.543734  0.189166
    C   C21  0.604439  0.939468  0.519231  -0.021002
    C   C22  0.500914  0.870848  0.493605  -0.326986
    H   H11  0.690650  0.895599  0.545890  0.102185
    C   C23  0.070129  0.573962  0.559931  0.042692
    N   N1   0.147854  0.509122  0.512557  -0.243855
    H   H12  0.118262  0.625964  0.604151  0.102182
    H   H13  0.102767  0.475996  0.464802  0.173834
    C   C24  0.916246  0.584552  0.553569  0.105546
    N   N2   0.846748  0.503808  0.518455  -0.301078
    H   H14  0.861549  0.661336  0.580536  0.107319
    H   H15  0.897440  0.423258  0.505786  0.229890
    C   C25  0.792183  0.495283  0.111487  0.440211
    C   C26  0.823244  0.413210  0.053188  -0.197469
    C   C27  0.956534  0.439444  0.026353  -0.263056
    C   C28  0.997615  0.535627  0.070004  -0.038296
    O   O9   0.898059  0.570034  0.122198  -0.191071
    H   H16  0.756470  0.341986  0.033215  0.127918
    H   H17  0.017565  0.393884  0.980358  0.172962
    H   H18  0.099214  0.579120  0.062950  0.122534
    C   C29  0.392307  0.920910  0.446094  0.378129
    C   C30  0.417747  0.002510  0.386797  -0.196257
    C   C31  0.291907  0.019638  0.356290  -0.212296
    C   C32  0.198679  0.946713  0.398443  -0.122669
    O   O10  0.259313  0.885496  0.452866  -0.107326
    H   H19  0.517058  0.042539  0.366842  0.145066
    H   H20  0.270018  0.077321  0.308161  0.153162
    H   H21  0.088473  0.938504  0.388325  0.156740
    C   C33  0.791513  0.494277  0.271159  0.483357
    C   C34  0.856919  0.594434  0.299455  -0.264342
    C   C35  0.983011  0.553728  0.320540  -0.171138
    C   C36  0.985903  0.431788  0.303242  0.044912
    O   O11  0.869774  0.395086  0.272399  -0.294083
    H   H22  0.817345  0.686446  0.303008  0.112548
    H   H23  0.064672  0.606609  0.344954  0.149205
    H   H24  0.072983  0.371998  0.312699  0.107653
