# Generated by REPEAT Assigner based on pymatgen
data_DB0-m3_o156_o150_f0_fsc.sym.41
_audit_creation_date              2022-05-24
_audit_creation_method            REPEAT_Assigner
_cell_length_a                    17.577807
_cell_length_b                    8.547762
_cell_length_c                    15.114260
_cell_angle_alpha                 90.000000
_cell_angle_beta                  90.983099
_cell_angle_gamma                 90.000000
_cell_volume                      2270.597250
_symmetry_space_group_name_H-M    P1
_symmetry_Int_Tables_number       1
loop_
    _symmetry_equiv_pos_site_id
    _symmetry_equiv_pos_as_xyz
    1  x,y,z
loop_
    _atom_site_type_symbol
    _atom_site_label
    _atom_site_fract_x
    _atom_site_fract_y
    _atom_site_fract_z
    _atom_type_partial_charge
    H   H1   0.027896  0.001949  0.562284  0.172677
    H   H2   0.971889  0.000701  0.437719  0.175655
    C   C1   0.005930  0.140967  0.674603  0.107257
    C   C2   0.994060  0.861721  0.325438  0.111635
    C   C3   0.993501  0.140647  0.325639  0.101516
    C   C4   0.006473  0.862023  0.674406  0.114027
    C   C5   0.996317  0.141773  0.764966  -0.041985
    C   C6   0.003786  0.860923  0.235095  -0.049048
    C   C7   0.003179  0.141869  0.235349  -0.030618
    C   C8   0.996970  0.860810  0.764732  -0.052852
    H   H3   0.993537  0.252565  0.799049  0.058911
    H   H4   0.006602  0.750134  0.201015  0.051210
    H   H5   0.009313  0.252333  0.201488  0.059285
    H   H6   0.990957  0.750356  0.798632  0.050172
    C   C9   0.995816  0.001070  0.811041  -0.117975
    C   C10  0.004350  0.001628  0.189034  -0.126809
    C   C11  0.016028  0.001661  0.631563  -0.340005
    C   C12  0.983858  0.001011  0.368459  -0.339248
    C   C13  0.960219  0.116116  0.955024  -0.221535
    C   C14  0.040004  0.886614  0.045063  -0.239684
    H   H7   0.926972  0.204672  0.921182  0.139642
    H   H8   0.073240  0.798038  0.078907  0.140598
    C   C15  0.963792  0.117303  0.046236  -0.156665
    C   C16  0.036439  0.885445  0.953848  -0.190401
    H   H9   0.932706  0.206146  0.081322  0.109317
    H   H10  0.067533  0.796621  0.918759  0.123617
    C   C17  0.003762  0.002737  0.091887  0.214732
    C   C18  0.996458  0.999996  0.908196  0.212774
    O   O1   0.067744  0.670622  0.586875  -0.601475
    O   O2   0.932237  0.332138  0.413108  -0.648115
    O   O3   0.932418  0.670707  0.412914  -0.607384
    O   O4   0.067558  0.332063  0.587160  -0.645572
    O   O5   0.936867  0.665275  0.596364  -0.627828
    O   O6   0.063081  0.337331  0.403718  -0.643435
    O   O7   0.063275  0.664391  0.403426  -0.628788
    O   O8   0.936721  0.338218  0.596548  -0.655336
    C   C19  0.003882  0.720007  0.620684  0.653579
    C   C20  0.996085  0.282665  0.379346  0.721231
    C   C21  0.996354  0.719484  0.379007  0.659508
    C   C22  0.003631  0.283216  0.621037  0.733325
    Zn  Zn1  0.915080  0.501624  0.503228  0.976571
    Zn  Zn2  0.084897  0.501066  0.496797  0.969856
    C   C23  0.775588  0.501985  0.426279  -0.007175
    C   C24  0.224399  0.501035  0.573722  0.008858
    N   N1   0.815020  0.501791  0.504477  -0.074473
    N   N2   0.184957  0.500780  0.495532  -0.088163
    C   C25  0.776582  0.499837  0.581532  -0.049054
    C   C26  0.223387  0.498871  0.418460  -0.035894
    C   C27  0.656327  0.496795  0.344342  -0.250235
    C   C28  0.343674  0.495745  0.655627  -0.244906
    C   C29  0.696527  0.497463  0.424214  0.096089
    C   C30  0.303463  0.496542  0.575760  0.089407
    C   C31  0.657478  0.493677  0.502034  0.044995
    C   C32  0.342506  0.493025  0.497921  0.047380
    C   C33  0.697533  0.495911  0.581109  0.076343
    C   C34  0.302442  0.495233  0.418850  0.069193
    C   C35  0.657986  0.494335  0.659543  -0.249246
    C   C36  0.341987  0.493864  0.340392  -0.242935
    C   C37  0.536852  0.480746  0.262436  -0.008069
    C   C38  0.463187  0.480533  0.737494  -0.004162
    C   C39  0.577658  0.486708  0.342261  0.069193
    C   C40  0.422355  0.486189  0.657680  0.062511
    C   C41  0.538900  0.488335  0.421173  0.050690
    C   C42  0.461094  0.488084  0.578757  0.057343
    C   C43  0.458576  0.487249  0.263065  -0.261293
    C   C44  0.541440  0.487296  0.736838  -0.265035
    C   C45  0.420360  0.491001  0.341691  0.210147
    C   C46  0.579628  0.491217  0.658221  0.217439
    C   C47  0.578741  0.490594  0.500707  -0.008745
    C   C48  0.421245  0.490205  0.499227  -0.012612
    C   C49  0.539741  0.489508  0.579150  -0.044785
    C   C50  0.460245  0.489365  0.420773  -0.037524
    H   H11  0.686023  0.511139  0.283491  0.183334
    H   H12  0.313971  0.509461  0.716523  0.184504
    H   H13  0.686888  0.495581  0.723118  0.128487
    H   H14  0.313069  0.495134  0.276820  0.129098
    H   H15  0.426831  0.483503  0.201226  0.177531
    H   H16  0.573204  0.483613  0.798657  0.178635
    C   C51  0.817460  0.502528  0.666827  0.867097
    O   O9   0.828360  0.380595  0.706958  -0.554943
    O   O10  0.828709  0.644430  0.710243  -0.625233
    H   H17  0.851652  0.625628  0.771183  0.394931
    C   C52  0.182500  0.501052  0.333170  0.862732
    O   O11  0.171586  0.378847  0.293317  -0.555513
    O   O12  0.171332  0.642645  0.289400  -0.626695
    H   H18  0.148383  0.623418  0.228503  0.392989
    C   C53  0.815344  0.504269  0.341770  0.742407
    O   O13  0.824455  0.382281  0.301483  -0.500694
    O   O14  0.824448  0.645800  0.297650  -0.597921
    H   H19  0.845812  0.626655  0.236851  0.384700
    C   C54  0.184649  0.503583  0.658242  0.734009
    O   O15  0.175510  0.381710  0.698629  -0.502521
    O   O16  0.175600  0.645229  0.702259  -0.600298
    H   H20  0.154380  0.626243  0.763146  0.385336
    C   C55  0.573052  0.460608  0.176145  0.595053
    O   O17  0.628227  0.375525  0.168564  -0.478109
    O   O18  0.538776  0.524097  0.100651  -0.556579
    H   H21  0.568594  0.494262  0.046504  0.395405
    C   C56  0.427072  0.460566  0.823827  0.593637
    O   O19  0.372191  0.374756  0.831624  -0.477717
    O   O20  0.461174  0.525076  0.899148  -0.556977
    H   H22  0.431533  0.495102  0.953399  0.395692
