# Generated by REPEAT Assigner based on pymatgen
data_DB0-m3_o160_o1470_f0_fsc.sym.3
_audit_creation_date              2022-05-24
_audit_creation_method            REPEAT_Assigner
_cell_length_a                    13.419175
_cell_length_b                    8.564063
_cell_length_c                    10.773282
_cell_angle_alpha                 90.000000
_cell_angle_beta                  97.847913
_cell_angle_gamma                 90.000000
_cell_volume                      1226.498175
_symmetry_space_group_name_H-M    P1
_symmetry_Int_Tables_number       1
loop_
    _symmetry_equiv_pos_site_id
    _symmetry_equiv_pos_as_xyz
    1  x,y,z
loop_
    _atom_site_type_symbol
    _atom_site_label
    _atom_site_fract_x
    _atom_site_fract_y
    _atom_site_fract_z
    _atom_type_partial_charge
    C   C1   0.040453  0.998368  0.686476  -0.130323
    C   C2   0.026943  0.138281  0.744459  -0.180126
    C   C3   0.025654  0.859542  0.745309  -0.213371
    C   C4   0.012443  0.141024  0.868653  0.073812
    C   C5   0.004755  0.861902  0.867731  0.016121
    C   C6   0.001587  0.295823  0.927514  -0.318763
    C   C7   0.975197  0.717364  0.929910  0.131247
    C   C8   0.996303  0.295849  0.067614  0.200104
    C   C9   0.022669  0.717283  0.065185  0.011682
    C   C10  0.005657  0.002182  0.931773  -0.054696
    C   C11  0.992328  0.002171  0.063466  0.028547
    C   C12  0.985631  0.141057  0.126589  -0.022668
    C   C13  0.993243  0.861832  0.127474  -0.018701
    C   C14  0.971420  0.138412  0.250883  -0.209041
    C   C15  0.972619  0.859405  0.250014  -0.171556
    C   C16  0.958145  0.998377  0.308992  -0.098894
    H   H1   0.067557  0.367222  0.911649  0.179926
    H   H2   0.000042  0.612649  0.883056  -0.076494
    H   H3   0.065315  0.352383  0.115706  -0.025291
    H   H4   0.105644  0.714695  0.068849  0.023140
    H   H5   0.052676  0.997552  0.589612  0.122498
    H   H6   0.946184  0.997578  0.405950  0.132456
    H   H7   0.932525  0.352152  0.879359  0.111854
    H   H8   0.892219  0.714928  0.926259  -0.002031
    H   H9   0.930264  0.367092  0.083463  0.008835
    H   H10  0.997730  0.612583  0.111965  -0.022026
    O   O1   0.927061  0.330507  0.626096  -0.733988
    O   O2   0.926907  0.667361  0.626346  -0.764106
    O   O3   0.098932  0.335186  0.628751  -0.726051
    O   O4   0.098721  0.663509  0.628544  -0.733276
    C   C17  0.017800  0.279997  0.667988  0.923069
    C   C18  0.017342  0.718170  0.668159  1.001586
    O   O5   0.071648  0.331002  0.368846  -0.716333
    O   O6   0.071741  0.666919  0.368588  -0.724199
    O   O7   0.898987  0.335816  0.366034  -0.718665
    O   O8   0.899142  0.662826  0.366248  -0.718799
    C   C19  0.980550  0.280413  0.327216  0.903683
    C   C20  0.980937  0.717758  0.327043  0.889027
    Zn  Zn1  0.110731  0.499167  0.497399  0.990380
    Zn  Zn2  0.888167  0.499121  0.498219  1.022082
    C   C21  0.692802  0.499070  0.390192  -0.392311
    N   N1   0.757416  0.499099  0.497387  0.251010
    C   C22  0.723014  0.499101  0.608706  -0.220687
    C   C23  0.621401  0.499058  0.615479  -0.052767
    C   C24  0.552812  0.499081  0.506584  -0.288059
    C   C25  0.590107  0.499049  0.393129  0.741692
    C   C26  0.404978  0.499333  0.615974  -0.169862
    C   C27  0.448821  0.499141  0.506994  0.289619
    C   C28  0.386043  0.499071  0.394291  -0.033987
    C   C29  0.426661  0.499005  0.283420  0.278552
    N   N2   0.527037  0.499010  0.284654  -0.670067
    C   C30  0.302136  0.499367  0.610742  0.015844
    N   N3   0.241772  0.499204  0.499644  0.247394
    C   C31  0.282524  0.499088  0.392056  -0.292947
    H   H11  0.775523  0.499150  0.694224  0.179221
    H   H12  0.233823  0.498993  0.303418  0.220315
    H   H13  0.377890  0.498998  0.194831  0.078514
    H   H14  0.600075  0.498965  0.707967  0.144619
    H   H15  0.447238  0.499497  0.708062  0.099739
    H   H16  0.721316  0.499070  0.301074  0.207720
    Cl  Cl1  0.252995  0.499620  0.753333  -0.024200
