# Generated by REPEAT Assigner based on pymatgen
data_DB0-m3_o3_o20_f0_pcu.sym.54
_audit_creation_date              2022-05-24
_audit_creation_method            REPEAT_Assigner
_cell_length_a                    19.461437
_cell_length_b                    18.393928
_cell_length_c                    14.525989
_cell_angle_alpha                 90.000000
_cell_angle_beta                  90.008087
_cell_angle_gamma                 90.000000
_cell_volume                      5199.901479
_symmetry_space_group_name_H-M    P1
_symmetry_Int_Tables_number       1
loop_
    _symmetry_equiv_pos_site_id
    _symmetry_equiv_pos_as_xyz
    1  x,y,z
loop_
    _atom_site_type_symbol
    _atom_site_label
    _atom_site_fract_x
    _atom_site_fract_y
    _atom_site_fract_z
    _atom_type_partial_charge
    O   O1   0.397358  0.562952  0.498998  -0.663350
    O   O2   0.602059  0.437009  0.501501  -0.663325
    O   O3   0.602096  0.562825  0.501462  -0.662837
    O   O4   0.397321  0.437136  0.499036  -0.663791
    C   C1   0.365118  0.500054  0.499573  0.710831
    C   C2   0.634299  0.499908  0.500926  0.709766
    O   O5   0.500991  0.562686  0.363207  -0.541057
    O   O6   0.498425  0.437275  0.637292  -0.540603
    O   O7   0.498460  0.562743  0.637259  -0.540802
    O   O8   0.500957  0.437219  0.363240  -0.541374
    C   C3   0.501426  0.499946  0.320493  0.701380
    C   C4   0.497991  0.500016  0.680006  0.700367
    Zn  Zn1  0.499739  0.583120  0.500226  0.976167
    Zn  Zn2  0.499678  0.416841  0.500273  0.977485
    C   C5   0.501816  0.499935  0.221778  -0.188211
    C   C6   0.497600  0.500027  0.778720  -0.188038
    C   C7   0.501501  0.499944  0.138847  0.128253
    C   C8   0.497915  0.500019  0.861652  0.128468
    C   C9   0.500338  0.499969  0.041703  -0.040987
    C   C10  0.499078  0.499995  0.958796  -0.041617
    C   C11  0.745956  0.435204  0.495167  -0.007637
    C   C12  0.253461  0.564756  0.505342  -0.008445
    C   C13  0.253462  0.435377  0.505372  -0.007182
    C   C14  0.745955  0.564583  0.495122  -0.005891
    H   H1   0.719606  0.383772  0.492928  0.082605
    H   H2   0.279810  0.616188  0.507587  0.082719
    H   H3   0.279809  0.383967  0.508541  0.082843
    H   H4   0.719608  0.615993  0.491946  0.082367
    C   C15  0.816787  0.435161  0.494952  -0.186465
    C   C16  0.182629  0.564799  0.505559  -0.185713
    C   C17  0.182634  0.435350  0.505311  -0.183466
    C   C18  0.816783  0.564610  0.495186  -0.184553
    H   H5   0.843462  0.383660  0.495982  0.105315
    H   H6   0.155955  0.616299  0.504535  0.105184
    H   H7   0.155867  0.383932  0.507996  0.099437
    H   H8   0.843551  0.616027  0.492497  0.099700
    C   C19  0.852794  0.499893  0.496183  0.107860
    C   C20  0.146622  0.500067  0.504322  0.107120
    C   C21  0.709880  0.499896  0.497659  -0.118506
    C   C22  0.289536  0.500065  0.502840  -0.118084
    C   C23  0.963428  0.550214  0.550944  -0.132235
    C   C24  0.035988  0.449745  0.449563  -0.131817
    C   C25  0.034242  0.550200  0.553188  -0.157688
    C   C26  0.965174  0.449759  0.447320  -0.158059
    H   H9   0.935932  0.588883  0.593100  0.108516
    H   H10  0.063484  0.411076  0.407405  0.108397
    H   H11  0.060244  0.588887  0.596989  0.110212
    H   H12  0.939172  0.411072  0.403519  0.110254
    C   C27  0.071091  0.499955  0.502508  0.080203
    C   C28  0.928325  0.500004  0.497999  0.080305
    C   C29  0.525802  0.731047  0.572613  0.115105
    C   C30  0.473622  0.268915  0.427881  0.118374
    C   C31  0.473818  0.731060  0.427769  0.118256
    C   C32  0.525599  0.268901  0.572730  0.118385
    C   C33  0.525456  0.806029  0.573167  -0.269150
    C   C34  0.473972  0.193932  0.427324  -0.271462
    C   C35  0.474121  0.806040  0.427264  -0.269884
    C   C36  0.525301  0.193921  0.573230  -0.270412
    H   H13  0.545458  0.834088  0.632765  0.103083
    H   H14  0.453973  0.165874  0.367724  0.103514
    H   H15  0.454129  0.834106  0.367666  0.103242
    H   H16  0.545290  0.165853  0.632830  0.103045
    C   C37  0.499767  0.844499  0.500232  0.242159
    C   C38  0.499660  0.155462  0.500259  0.243361
    N   N1   0.499800  0.692438  0.500191  -0.165356
    N   N2   0.499618  0.307524  0.500307  -0.166951
    C   C39  0.444658  0.962489  0.464355  -0.115321
    C   C40  0.554771  0.037472  0.536134  -0.114937
    C   C41  0.554796  0.962529  0.536136  -0.115327
    C   C42  0.444633  0.037433  0.464352  -0.116251
    H   H17  0.400176  0.934165  0.438005  0.104040
    H   H18  0.599252  0.065798  0.562485  0.103703
    H   H19  0.599297  0.934237  0.562485  0.103868
    H   H20  0.400132  0.065725  0.438004  0.104314
    C   C43  0.499689  0.075531  0.500242  0.039535
    C   C44  0.499739  0.924430  0.500246  0.039287
    C   C45  0.556376  0.697357  0.653673  0.351074
    C   C46  0.623906  0.675215  0.651499  -0.284307
    C   C47  0.655351  0.649867  0.730216  0.079334
    C   C48  0.619934  0.649292  0.812360  -0.105170
    Br  Br1  0.663706  0.615506  0.921656  -0.061914
    C   C49  0.553433  0.674976  0.815805  0.039974
    C   C50  0.521882  0.699577  0.736715  -0.343807
    H   H21  0.652577  0.679758  0.588406  0.131487
    H   H22  0.708180  0.631820  0.727852  0.052713
    H   H23  0.526052  0.675910  0.880534  0.076390
    H   H24  0.470033  0.720503  0.739744  0.137206
    C   C51  0.443049  0.302604  0.346820  0.348845
    C   C52  0.477544  0.300383  0.263779  -0.343851
    C   C53  0.445994  0.324983  0.184688  0.041421
    C   C54  0.379493  0.350667  0.188131  -0.105789
    Br  Br2  0.335721  0.384449  0.078834  -0.061785
    C   C55  0.344075  0.350094  0.270274  0.078599
    C   C56  0.375519  0.324747  0.348992  -0.282639
    H   H25  0.529393  0.279457  0.260752  0.137166
    H   H26  0.473376  0.324047  0.119959  0.075975
    H   H27  0.291247  0.368142  0.272637  0.053052
    H   H28  0.346848  0.320206  0.412086  0.130914
    C   C57  0.443351  0.697395  0.346623  0.345898
    C   C58  0.477990  0.699582  0.263689  -0.340319
    C   C59  0.446529  0.675082  0.184484  0.037793
    C   C60  0.379976  0.649533  0.187706  -0.106576
    Br  Br3  0.336311  0.615938  0.078239  -0.061173
    C   C61  0.344427  0.650121  0.269748  0.084846
    C   C62  0.375785  0.675368  0.348580  -0.282999
    H   H29  0.529874  0.720426  0.260830  0.136443
    H   H30  0.474017  0.676006  0.119836  0.077071
    H   H31  0.291563  0.632181  0.271938  0.049189
    H   H32  0.347019  0.679948  0.411587  0.131057
    C   C63  0.556053  0.302565  0.653885  0.346501
    C   C64  0.623617  0.324597  0.651947  -0.282504
    C   C65  0.654964  0.349838  0.730790  0.084668
    C   C66  0.619404  0.350415  0.812824  -0.106340
    Br  Br4  0.663054  0.383997  0.922309  -0.061212
    C   C67  0.552852  0.324863  0.816026  0.037328
    C   C68  0.521403  0.300369  0.736811  -0.340094
    H   H33  0.652392  0.320026  0.588946  0.130691
    H   H34  0.707828  0.367781  0.728616  0.049140
    H   H35  0.525356  0.323930  0.880669  0.077127
    H   H36  0.469519  0.279521  0.739655  0.136332
