data_DB0-m3_o115_o6_f0_fsc.sym.2_repeat
_audit_creation_date              2024-02-23
_audit_creation_method            'Materials Studio'
_symmetry_space_group_name_H-M    'P1'
_symmetry_Int_Tables_number       1
_symmetry_cell_setting            triclinic
loop_
_symmetry_equiv_pos_as_xyz
  x,y,z
_cell_length_a                    14.3733
_cell_length_b                    16.5504
_cell_length_c                    16.6625
_cell_angle_alpha                 90.0000
_cell_angle_beta                  98.8173
_cell_angle_gamma                 90.0000
loop_
_atom_site_label
_atom_site_type_symbol
_atom_site_fract_x
_atom_site_fract_y
_atom_site_fract_z
_atom_site_U_iso_or_equiv
_atom_site_adp_type
_atom_site_occupancy
H1     H     0.07299   0.92055   0.72218   0.00000  Uiso   1.00
H2     H     0.92701   0.07946   0.27782   0.00000  Uiso   1.00
H3     H     0.92701   0.92055   0.27782   0.00000  Uiso   1.00
H4     H     0.07299   0.07946   0.72218   0.00000  Uiso   1.00
C1     C     0.00034   0.25636   0.95881   0.00000  Uiso   1.00
C2     C     0.99966   0.74364   0.04119   0.00000  Uiso   1.00
C3     C     0.99966   0.25636   0.04119   0.00000  Uiso   1.00
C4     C     0.00034   0.74364   0.95881   0.00000  Uiso   1.00
C5     C     0.99886   0.17628   0.06455   0.00000  Uiso   1.00
C6     C     0.00114   0.82372   0.93545   0.00000  Uiso   1.00
C7     C     0.00114   0.17628   0.93545   0.00000  Uiso   1.00
C8     C     0.99886   0.82372   0.06455   0.00000  Uiso   1.00
N1     N     0.00000   0.12751   0.00000   0.00000  Uiso   1.00
N2     N     0.00000   0.87250   0.00000   0.00000  Uiso   1.00
C9     C     0.99457   0.15116   0.14027   0.00000  Uiso   1.00
C10    C     0.00543   0.84884   0.85973   0.00000  Uiso   1.00
C11    C     0.00543   0.15116   0.85973   0.00000  Uiso   1.00
C12    C     0.99457   0.84884   0.14027   0.00000  Uiso   1.00
C13    C     0.98490   0.06555   0.16290   0.00000  Uiso   1.00
C14    C     0.01510   0.93446   0.83710   0.00000  Uiso   1.00
C15    C     0.01510   0.06555   0.83710   0.00000  Uiso   1.00
C16    C     0.98490   0.93446   0.16290   0.00000  Uiso   1.00
C17    C     0.95071   0.04154   0.23218   0.00000  Uiso   1.00
C18    C     0.04929   0.95846   0.76782   0.00000  Uiso   1.00
C19    C     0.04929   0.04154   0.76782   0.00000  Uiso   1.00
C20    C     0.95071   0.95846   0.23218   0.00000  Uiso   1.00
N3     N     0.00733   0.00000   0.12154   0.00000  Uiso   1.00
N4     N     0.99267   0.00000   0.87846   0.00000  Uiso   1.00
H5     H     0.00128   0.30977   0.92158   0.00000  Uiso   1.00
H6     H     0.99872   0.69023   0.07842   0.00000  Uiso   1.00
H7     H     0.99872   0.30977   0.07842   0.00000  Uiso   1.00
H8     H     0.00128   0.69023   0.92158   0.00000  Uiso   1.00
H9     H     0.04148   0.00000   0.07092   0.00000  Uiso   1.00
H10    H     0.95852   0.00000   0.92908   0.00000  Uiso   1.00
C21    C     0.92328   0.76224   0.75195   0.00000  Uiso   1.00
C22    C     0.07672   0.23776   0.24805   0.00000  Uiso   1.00
C23    C     0.07672   0.76224   0.24805   0.00000  Uiso   1.00
C24    C     0.92328   0.23776   0.75195   0.00000  Uiso   1.00
H11    H     0.85741   0.78710   0.76433   0.00000  Uiso   1.00
H12    H     0.14259   0.21290   0.23566   0.00000  Uiso   1.00
H13    H     0.14259   0.78710   0.23566   0.00000  Uiso   1.00
H14    H     0.85741   0.21290   0.76433   0.00000  Uiso   1.00
C25    C     0.92334   0.70457   0.69238   0.00000  Uiso   1.00
C26    C     0.07666   0.29543   0.30762   0.00000  Uiso   1.00
C27    C     0.07666   0.70457   0.30762   0.00000  Uiso   1.00
C28    C     0.92334   0.29543   0.69238   0.00000  Uiso   1.00
C29    C     0.00739   0.67257   0.67603   0.00000  Uiso   1.00
C30    C     0.99261   0.32743   0.32397   0.00000  Uiso   1.00
C31    C     0.99261   0.67257   0.32397   0.00000  Uiso   1.00
C32    C     0.00739   0.32743   0.67603   0.00000  Uiso   1.00
C33    C     0.09134   0.69890   0.72015   0.00000  Uiso   1.00
C34    C     0.90866   0.30110   0.27985   0.00000  Uiso   1.00
C35    C     0.90866   0.69890   0.27985   0.00000  Uiso   1.00
C36    C     0.09134   0.30110   0.72015   0.00000  Uiso   1.00
H15    H     0.15788   0.67466   0.70873   0.00000  Uiso   1.00
H16    H     0.84212   0.32534   0.29127   0.00000  Uiso   1.00
H17    H     0.84212   0.67466   0.29127   0.00000  Uiso   1.00
H18    H     0.15788   0.32534   0.70873   0.00000  Uiso   1.00
C37    C     0.09091   0.75620   0.78028   0.00000  Uiso   1.00
C38    C     0.90909   0.24380   0.21972   0.00000  Uiso   1.00
C39    C     0.90909   0.75620   0.21972   0.00000  Uiso   1.00
C40    C     0.09091   0.24380   0.78028   0.00000  Uiso   1.00
H19    H     0.15658   0.77633   0.81495   0.00000  Uiso   1.00
H20    H     0.84342   0.22367   0.18506   0.00000  Uiso   1.00
H21    H     0.84342   0.77633   0.18506   0.00000  Uiso   1.00
H22    H     0.15658   0.22367   0.81495   0.00000  Uiso   1.00
C41    C     0.00685   0.78800   0.79611   0.00000  Uiso   1.00
C42    C     0.99315   0.21200   0.20389   0.00000  Uiso   1.00
C43    C     0.99315   0.78800   0.20389   0.00000  Uiso   1.00
C44    C     0.00685   0.21200   0.79611   0.00000  Uiso   1.00
H23    H     0.85670   0.31463   0.65879   0.00000  Uiso   1.00
H24    H     0.14330   0.68537   0.34121   0.00000  Uiso   1.00
H25    H     0.14330   0.31463   0.34121   0.00000  Uiso   1.00
H26    H     0.85670   0.68537   0.65879   0.00000  Uiso   1.00
O1     O     0.92485   0.58242   0.57870   0.00000  Uiso   1.00
O2     O     0.07515   0.41758   0.42130   0.00000  Uiso   1.00
O3     O     0.07515   0.58242   0.42130   0.00000  Uiso   1.00
O4     O     0.92485   0.41758   0.57870   0.00000  Uiso   1.00
O5     O     0.08679   0.58617   0.59282   0.00000  Uiso   1.00
O6     O     0.91321   0.41383   0.40718   0.00000  Uiso   1.00
O7     O     0.91321   0.58617   0.40718   0.00000  Uiso   1.00
O8     O     0.08679   0.41383   0.59282   0.00000  Uiso   1.00
C45    C     0.00656   0.61081   0.61279   0.00000  Uiso   1.00
C46    C     0.99344   0.38919   0.38721   0.00000  Uiso   1.00
C47    C     0.99344   0.61081   0.38721   0.00000  Uiso   1.00
C48    C     0.00656   0.38919   0.61279   0.00000  Uiso   1.00
Zn1    Zn    0.10479   0.50000   0.51093   0.00000  Uiso   1.00
Zn2    Zn    0.89521   0.50000   0.48907   0.00000  Uiso   1.00
C49    C     0.54669   0.42703   0.49363   0.00000  Uiso   1.00
C50    C     0.45331   0.57297   0.50637   0.00000  Uiso   1.00
C51    C     0.45331   0.42703   0.50637   0.00000  Uiso   1.00
C52    C     0.54669   0.57297   0.49363   0.00000  Uiso   1.00
C53    C     0.59324   0.50000   0.48763   0.00000  Uiso   1.00
C54    C     0.40676   0.50000   0.51237   0.00000  Uiso   1.00
C55    C     0.69184   0.50000   0.48083   0.00000  Uiso   1.00
C56    C     0.30815   0.50000   0.51917   0.00000  Uiso   1.00
N5     N     0.22826   0.50000   0.52216   0.00000  Uiso   1.00
N6     N     0.77174   0.50000   0.47784   0.00000  Uiso   1.00
C57    C     0.40402   0.34751   0.51306   0.00000  Uiso   1.00
H27    H     0.33140   0.35287   0.52661   0.00000  Uiso   1.00
H28    H     0.39988   0.31383   0.45511   0.00000  Uiso   1.00
H29    H     0.44316   0.31125   0.56312   0.00000  Uiso   1.00
C58    C     0.59598   0.65249   0.48694   0.00000  Uiso   1.00
H30    H     0.66860   0.64713   0.47339   0.00000  Uiso   1.00
H31    H     0.55684   0.68875   0.43688   0.00000  Uiso   1.00
H32    H     0.60012   0.68617   0.54489   0.00000  Uiso   1.00
C59    C     0.59598   0.34751   0.48694   0.00000  Uiso   1.00
H33    H     0.66860   0.35287   0.47339   0.00000  Uiso   1.00
H34    H     0.60012   0.31383   0.54489   0.00000  Uiso   1.00
H35    H     0.55684   0.31125   0.43688   0.00000  Uiso   1.00
C60    C     0.40402   0.65249   0.51306   0.00000  Uiso   1.00
H36    H     0.33140   0.64713   0.52661   0.00000  Uiso   1.00
H37    H     0.44316   0.68875   0.56312   0.00000  Uiso   1.00
H38    H     0.39988   0.68617   0.45511   0.00000  Uiso   1.00
