# Generated by REPEAT Assigner based on pymatgen
data_DB0-m2_o13_o27_f0_pcu.sym.50_sqe
_audit_creation_date              2022-05-24
_audit_creation_method            REPEAT_Assigner
_cell_length_a                    19.320941
_cell_length_b                    13.060254
_cell_length_c                    11.563721
_cell_angle_alpha                 99.746357
_cell_angle_beta                  94.224673
_cell_angle_gamma                 89.998736
_cell_volume                      2867.788429
_symmetry_space_group_name_H-M    P1
_symmetry_Int_Tables_number       1
loop_
    _symmetry_equiv_pos_site_id
    _symmetry_equiv_pos_as_xyz
    1  x,y,z
loop_
    _atom_site_type_symbol
    _atom_site_label
    _atom_site_fract_x
    _atom_site_fract_y
    _atom_site_fract_z
    _atom_type_partial_charge
    O   O1   0.507606  0.362838  0.588380  -0.559409
    O   O2   0.491075  0.646121  0.411621  -0.512356
    O   O3   0.497505  0.345806  0.386972  -0.606326
    O   O4   0.501494  0.663170  0.612861  -0.650598
    C   C1   0.504152  0.305522  0.483564  0.696353
    C   C2   0.495250  0.703560  0.516352  0.676267
    O   O5   0.401373  0.503242  0.594168  -0.538809
    O   O6   0.597259  0.505827  0.405597  -0.561977
    O   O7   0.395846  0.493672  0.393978  -0.410249
    O   O8   0.602933  0.515026  0.606055  -0.412417
    C   C3   0.365559  0.494978  0.492039  0.470812
    C   C4   0.633177  0.512959  0.507523  0.541680
    Cu  Cu1  0.502517  0.514216  0.617091  0.866450
    Cu  Cu2  0.496104  0.494791  0.382747  0.768176
    C   C5   0.258074  0.511479  0.596220  0.116674
    C   C6   0.738700  0.497023  0.399189  0.167514
    H   H1   0.289561  0.526231  0.678573  0.037139
    H   H2   0.705520  0.487243  0.318771  0.046798
    C   C7   0.186879  0.518131  0.599826  -0.193233
    C   C8   0.809415  0.486772  0.390163  -0.078225
    C   C9   0.144665  0.503913  0.496159  -0.352464
    C   C10  0.853663  0.495074  0.491532  -0.401518
    C   C11  0.174575  0.483968  0.390355  0.013813
    C   C12  0.825545  0.510301  0.599316  0.023264
    H   H3   0.141872  0.469048  0.309231  0.057804
    H   H4   0.859445  0.519663  0.679098  0.088534
    C   C13  0.245466  0.474285  0.385853  -0.100548
    C   C14  0.755013  0.521555  0.608728  -0.113175
    C   C15  0.288678  0.491208  0.489861  0.021765
    C   C16  0.710070  0.513358  0.507336  -0.060323
    N   N1   0.029933  0.541219  0.411850  -0.390400
    N   N2   0.968481  0.455988  0.573319  -0.387295
    N   N3   0.961426  0.538393  0.409807  -0.277782
    N   N4   0.036931  0.459033  0.575537  -0.291891
    C   C17  0.929775  0.494871  0.489846  0.895184
    C   C18  0.068565  0.502457  0.495527  0.918265
    C   C19  0.500311  0.817411  0.526905  -0.025220
    C   C20  0.500938  0.191623  0.472846  0.031998
    C   C21  0.449645  0.032305  0.370002  -0.272304
    C   C22  0.553357  0.976153  0.628660  -0.384641
    C   C23  0.460412  0.137314  0.379680  -0.146195
    C   C24  0.541674  0.871176  0.619397  -0.055248
    C   C25  0.532681  0.138601  0.556928  -0.353630
    C   C26  0.469567  0.870877  0.442726  -0.303984
    C   C27  0.522116  0.031316  0.546752  0.342337
    C   C28  0.480502  0.977845  0.452812  0.231960
    H   H5   0.567873  0.830729  0.683783  0.142071
    H   H6   0.434051  0.177300  0.314989  0.155483
    H   H7   0.415666  0.995917  0.296355  0.189226
    H   H8   0.588289  0.011958  0.701116  0.205747
    N   N5   0.506882  0.529289  0.792758  -0.095493
    N   N6   0.491549  0.479960  0.207122  0.054568
    C   C29  0.456745  0.383558  0.018870  -0.285890
    C   C30  0.545916  0.622059  0.980824  -0.436877
    C   C31  0.463487  0.393643  0.140014  -0.033050
    C   C32  0.539104  0.612354  0.859663  0.113657
    C   C33  0.519112  0.554657  0.156665  -0.184158
    C   C34  0.480895  0.453224  0.843019  -0.022286
    C   C35  0.517091  0.546001  0.034813  0.298675
    C   C36  0.483921  0.460930  0.964856  0.082970
    H   H9   0.457997  0.386416  0.786016  0.119451
    H   H10  0.541384  0.622115  0.213482  0.170356
    H   H11  0.562135  0.670622  0.817953  0.160956
    H   H12  0.441792  0.334167  0.181266  0.179458
    C   C37  0.418823  0.291072  0.953798  0.807478
    O   O9   0.426751  0.207772  0.987066  -0.517818
    O   O10  0.369976  0.299699  0.866510  -0.426767
    C   C38  0.331742  0.214898  0.810113  0.143965
    H   H13  0.295912  0.238572  0.740213  0.028016
    H   H14  0.300886  0.183571  0.873809  0.031192
    H   H15  0.366902  0.154279  0.769353  0.014352
    C   C39  0.585543  0.712569  0.046130  0.875089
    O   O11  0.579066  0.796433  0.013785  -0.545683
    O   O12  0.634219  0.701430  0.132793  -0.384047
    C   C40  0.673937  0.784472  0.189639  0.051302
    H   H16  0.710236  0.758594  0.257467  0.044666
    H   H17  0.640058  0.845618  0.233036  0.055010
    H   H18  0.704402  0.816111  0.125743  0.052933
    C   C41  0.157268  0.546547  0.713795  0.772328
    O   O13  0.121208  0.623451  0.731945  -0.499865
    O   O14  0.163762  0.482114  0.793351  -0.391826
    C   C42  0.122918  0.494387  0.886808  -0.092549
    H   H19  0.134544  0.432461  0.939883  0.107935
    H   H20  0.067408  0.487906  0.853984  0.104915
    H   H21  0.133279  0.571412  0.942738  0.083899
    C   C43  0.834127  0.459939  0.271711  0.554492
    O   O15  0.805120  0.495838  0.190613  -0.486090
    O   O16  0.884893  0.389840  0.250395  -0.299132
    C   C44  0.906406  0.361083  0.139227  0.114913
    H   H22  0.948481  0.303544  0.141419  0.042248
    H   H23  0.926475  0.430101  0.107503  0.037496
    H   H24  0.862475  0.325292  0.078687  0.036305
    C   C45  0.270841  0.442800  0.268883  0.730045
    O   O17  0.308630  0.367974  0.249529  -0.544494
    O   O18  0.248315  0.492793  0.180745  -0.334477
    C   C46  0.275343  0.471365  0.073191  -0.217517
    H   H25  0.252773  0.524624  0.016036  0.154399
    H   H26  0.263331  0.389711  0.031935  0.174976
    H   H27  0.332114  0.484969  0.084241  0.103195
    C   C47  0.732143  0.544929  0.728186  0.790493
    O   O19  0.698105  0.622265  0.758048  -0.558290
    O   O20  0.754710  0.485980  0.807943  -0.404064
    C   C48  0.736402  0.507253  0.921653  -0.029566
    H   H28  0.757805  0.446493  0.969861  0.108870
    H   H29  0.679102  0.506441  0.922665  0.040814
    H   H30  0.757666  0.584313  0.964902  0.114690
    C   C49  0.422163  0.815707  0.347625  0.789202
    O   O21  0.437137  0.805866  0.245658  -0.525495
    O   O22  0.361841  0.776295  0.373428  -0.411834
    C   C50  0.314722  0.730119  0.285745  0.077046
    H   H31  0.269139  0.702853  0.325558  0.057259
    H   H32  0.338904  0.662914  0.232379  0.047299
    H   H33  0.297352  0.787106  0.228929  0.035130
    C   C51  0.580179  0.194879  0.651904  0.760280
    O   O23  0.630480  0.241246  0.627534  -0.547241
    O   O24  0.567601  0.197126  0.765572  -0.313656
    C   C52  0.612717  0.246186  0.854955  -0.038446
    H   H34  0.593084  0.238204  0.940743  0.071180
    H   H35  0.616877  0.329805  0.849272  0.095225
    H   H36  0.664558  0.210044  0.848689  0.072792
