# Generated by REPEAT Assigner based on pymatgen
data_DB0-m3_o16_o460_f0_fsc.sym.24
_audit_creation_date              2022-05-24
_audit_creation_method            REPEAT_Assigner
_cell_length_a                    8.519420
_cell_length_b                    8.836596
_cell_length_c                    12.161036
_cell_angle_alpha                 107.875942
_cell_angle_beta                  90.092897
_cell_angle_gamma                 97.836035
_cell_volume                      862.263192
_symmetry_space_group_name_H-M    P1
_symmetry_Int_Tables_number       1
loop_
    _symmetry_equiv_pos_site_id
    _symmetry_equiv_pos_as_xyz
    1  x,y,z
loop_
    _atom_site_type_symbol
    _atom_site_label
    _atom_site_fract_x
    _atom_site_fract_y
    _atom_site_fract_z
    _atom_type_partial_charge
    C   C1   0.088743  0.193672  0.988743  -0.307511
    C   C2   0.957916  0.261159  0.973132  -0.166212
    H   H1   0.974057  0.376287  0.958827  0.098358
    C   C3   0.807711  0.191189  0.984833  0.117033
    C   C4   0.786053  0.042305  0.001866  -0.364666
    H   H2   0.667594  0.987999  0.011831  0.140244
    C   C5   0.916540  0.965445  0.007438  0.208721
    C   C6   0.069285  0.042711  0.003264  0.232394
    H   H3   0.318218  0.020031  0.998722  0.123911
    C   C7   0.199731  0.965791  0.008678  -0.348010
    C   C8   0.178012  0.816883  0.025572  0.013174
    H   H4   0.011906  0.631855  0.051786  0.151345
    C   C9   0.027977  0.746995  0.037500  -0.159199
    C   C10  0.897199  0.814477  0.022025  -0.252994
    O   O1   0.690986  0.691316  0.110233  -0.761742
    O   O2   0.676813  0.635386  0.912413  -0.715577
    C   C11  0.743022  0.715678  0.015048  0.963976
    O   O3   0.632405  0.312637  0.896081  -0.672103
    O   O4   0.637473  0.367916  0.094611  -0.788673
    C   C12  0.679108  0.287653  0.991332  0.877377
    O   O5   0.294535  0.317127  0.900243  -0.685118
    O   O6   0.310479  0.370989  0.098409  -0.751873
    C   C13  0.243184  0.292177  0.995610  1.018757
    O   O7   0.352363  0.694739  0.114050  -0.790962
    O   O8   0.348668  0.640693  0.916085  -0.715182
    C   C14  0.306446  0.720472  0.019105  0.886936
    Zn  Zn1  0.485294  0.463828  0.876543  0.958131
    Zn  Zn2  0.500361  0.544331  0.133660  1.086592
    C   C15  0.572680  0.813776  0.455582  -0.206374
    H   H5   0.562494  0.838162  0.288329  0.152669
    H   H6   0.599652  0.941903  0.493963  0.084652
    N   N1   0.511587  0.596932  0.284940  0.164837
    C   C16  0.430865  0.252293  0.675631  0.053206
    C   C17  0.407161  0.186263  0.558241  -0.122263
    C   C18  0.433350  0.280820  0.487804  -0.077641
    C   C19  0.480549  0.444841  0.535977  -0.026628
    C   C20  0.495410  0.508585  0.656520  0.183842
    C   C21  0.507880  0.547457  0.467362  0.097522
    C   C22  0.554819  0.710536  0.521115  0.213491
    C   C23  0.574475  0.770650  0.640117  -0.309886
    C   C24  0.533755  0.672009  0.705899  -0.122486
    C   C25  0.490808  0.492539  0.346239  -0.264064
    C   C26  0.549481  0.755215  0.338103  -0.093134
    N   N2   0.473840  0.411590  0.724817  -0.050616
    H   H7   0.461391  0.367947  0.297410  0.206651
    H   H8   0.412277  0.173694  0.728173  0.081084
    H   H9   0.413487  0.220409  0.396790  0.122592
    H   H10  0.367288  0.059030  0.521090  0.118599
    H   H11  0.536320  0.727327  0.797081  0.196130
    C   C27  0.639398  0.938020  0.701917  0.805673
    O   O9   0.584288  0.005245  0.793382  -0.485218
    N   N3   0.784774  0.010730  0.669461  -0.635185
    H   H12  0.762760  0.111620  0.647712  0.260501
    H   H13  0.825749  0.928341  0.597986  0.254922
