# Generated by REPEAT Assigner based on pymatgen
data_DB0-m29_o91_o430_f0_pts.sym.49
_audit_creation_date              2022-05-24
_audit_creation_method            REPEAT_Assigner
_cell_length_a                    16.357159
_cell_length_b                    19.318737
_cell_length_c                    13.040405
_cell_angle_alpha                 112.641969
_cell_angle_beta                  91.711263
_cell_angle_gamma                 69.915179
_cell_volume                      3546.897815
_symmetry_space_group_name_H-M    P1
_symmetry_Int_Tables_number       1
loop_
    _symmetry_equiv_pos_site_id
    _symmetry_equiv_pos_as_xyz
    1  x,y,z
loop_
    _atom_site_type_symbol
    _atom_site_label
    _atom_site_fract_x
    _atom_site_fract_y
    _atom_site_fract_z
    _atom_type_partial_charge
    H   H1   0.431223  0.944624  0.981803  0.142411
    C   C1   0.316282  0.965825  0.076476  0.006163
    C   C2   0.228517  0.977248  0.078258  -0.168751
    H   H2   0.191085  0.992060  0.155613  0.122332
    C   C3   0.187634  0.973462  0.982980  0.102999
    C   C4   0.233862  0.963363  0.887587  -0.185192
    H   H3   0.200883  0.964767  0.814941  0.130703
    C   C5   0.322285  0.951709  0.886027  0.079383
    C   C6   0.363527  0.949518  0.979310  -0.130169
    C   C7   0.035392  0.040677  0.953831  -0.169189
    H   H4   0.057676  0.075558  0.921127  0.141537
    C   C8   0.946912  0.054606  0.966253  -0.134711
    H   H5   0.901102  0.099366  0.941520  0.114059
    C   C9   0.916856  0.012606  0.011599  0.045455
    C   C10  0.976477  0.953906  0.039308  -0.074531
    H   H6   0.954835  0.916391  0.066896  0.092752
    C   C11  0.064491  0.941360  0.029622  -0.174513
    H   H7   0.110196  0.895840  0.053146  0.116416
    C   C12  0.094359  0.984926  0.987430  0.103949
    C   C13  0.775897  0.045327  0.120778  0.096949
    C   C14  0.687383  0.052628  0.121554  -0.005689
    C   C15  0.648056  0.047894  0.024712  -0.120583
    H   H8   0.580702  0.051842  0.021283  0.148114
    C   C16  0.695593  0.027654  0.925964  -0.016802
    C   C17  0.783654  0.013678  0.922556  -0.173091
    H   H9   0.821767  0.994110  0.843589  0.137505
    C   C18  0.823356  0.024755  0.019456  0.049200
    O   O1   0.552084  0.062757  0.201804  -0.604227
    C   C19  0.634910  0.053089  0.212528  0.579849
    O   O2   0.639637  0.872605  0.178459  -0.508485
    O   O3   0.672466  0.025656  0.286151  -0.502206
    O   O4   0.568973  0.946644  0.354074  -0.574793
    C   C20  0.631358  0.882757  0.283594  0.645311
    Fe  Fe1  0.498222  0.020204  0.286201  1.470678
    O   O5   0.440913  0.950738  0.176722  -0.612055
    O   O6   0.314896  0.056934  0.261879  -0.517424
    C   C21  0.356245  0.987417  0.180042  0.667405
    O   O7   0.424803  0.122173  0.412286  -0.638386
    O   O8   0.384847  0.035262  0.458156  -0.445677
    C   C22  0.382606  0.108473  0.482069  0.766174
    O   O9   0.578201  0.881718  0.588583  -0.619074
    O   O10  0.624800  0.967762  0.549475  -0.474901
    C   C23  0.623496  0.895236  0.521771  0.760511
    O   O11  0.572495  0.049576  0.823839  -0.643878
    O   O12  0.689889  0.933075  0.746242  -0.558868
    C   C24  0.654530  0.006039  0.823399  0.721591
    O   O13  0.330765  0.977250  0.719866  -0.468329
    O   O14  0.440212  0.060566  0.652320  -0.565976
    C   C25  0.374819  0.121899  0.721251  0.637865
    O   O15  0.454389  0.944042  0.803461  -0.579659
    C   C26  0.371448  0.953146  0.795050  0.546394
    O   O16  0.363898  0.130074  0.825125  -0.494633
    Fe  Fe2  0.509670  0.984460  0.717126  1.475658
    C   C27  0.950293  0.627071  0.404325  0.462333
    N   N1   0.863776  0.639506  0.409704  -0.180189
    C   C28  0.831900  0.598161  0.450569  0.428030
    C   C29  0.887367  0.542801  0.488147  -0.072161
    C   C30  0.975596  0.529798  0.483494  0.085599
    C   C31  0.007455  0.571880  0.440975  -0.102692
    C   C32  0.855192  0.500610  0.530825  -0.073201
    C   C33  0.911115  0.445979  0.568502  -0.051785
    C   C34  0.999732  0.433081  0.563951  -0.114664
    C   C35  0.031625  0.475138  0.521430  0.092935
    C   C36  0.119867  0.462101  0.516781  -0.075744
    C   C37  0.151987  0.504558  0.474565  -0.066860
    C   C38  0.096045  0.559220  0.436886  -0.058447
    C   C39  0.056854  0.377723  0.600285  0.456077
    N   N2   0.143388  0.365090  0.594651  -0.161754
    C   C40  0.175341  0.406495  0.554002  0.428034
    O   O17  0.980566  0.670379  0.366460  -0.484345
    O   O18  0.745863  0.610313  0.453576  -0.469978
    H   H10  0.786241  0.509607  0.535619  0.138295
    H   H11  0.884160  0.413864  0.601386  0.127472
    O   O19  0.026531  0.334416  0.638085  -0.478402
    O   O20  0.261430  0.394129  0.550810  -0.473066
    H   H12  0.220912  0.495721  0.470129  0.138352
    H   H13  0.122964  0.591518  0.404321  0.132606
    C   C41  0.265657  0.238695  0.547497  -0.146784
    H   H14  0.269831  0.233756  0.462221  0.185913
    C   C42  0.320678  0.177049  0.574023  -0.060391
    C   C43  0.314603  0.182454  0.683876  -0.018094
    C   C44  0.250870  0.249219  0.762662  -0.118181
    H   H15  0.244062  0.255762  0.848385  0.133220
    C   C45  0.194840  0.309225  0.734025  -0.114156
    H   H16  0.145702  0.360571  0.796998  0.132547
    C   C46  0.202249  0.304362  0.626246  0.182580
    C   C47  0.740752  0.765372  0.456586  -0.183826
    H   H17  0.736265  0.770202  0.541778  0.204886
    C   C48  0.685488  0.826877  0.430066  -0.040768
    C   C49  0.691767  0.822004  0.320616  -0.033731
    C   C50  0.755830  0.755519  0.241836  -0.117008
    H   H18  0.762904  0.749322  0.156308  0.134689
    C   C51  0.812193  0.695569  0.270400  -0.129938
    H   H19  0.861666  0.644532  0.207483  0.134858
    C   C52  0.804701  0.700130  0.378039  0.218362
    N   N3   0.815060  0.070700  0.220655  -0.008741
    C   C53  0.767833  0.151463  0.300018  -0.245251
    C   C54  0.849804  0.013012  0.270160  -0.186814
    H   H20  0.744321  0.191746  0.255016  0.100745
    H   H21  0.812511  0.172675  0.359468  0.133881
    H   H22  0.711307  0.154307  0.348127  0.126468
    H   H23  0.838476  0.956680  0.220047  0.129056
    H   H24  0.818845  0.038053  0.357487  0.134954
    H   H25  0.921259  0.999456  0.272283  0.085509
