# Generated by REPEAT Assigner based on pymatgen
data_DB0-m3_o2_o25_f0_nbo.sym.52
_audit_creation_date              2022-05-24
_audit_creation_method            REPEAT_Assigner
_cell_length_a                    43.950980
_cell_length_b                    30.353714
_cell_length_c                    30.204485
_cell_angle_alpha                 90.000000
_cell_angle_beta                  46.888271
_cell_angle_gamma                 90.000000
_cell_volume                      29416.297863
_symmetry_space_group_name_H-M    P1
_symmetry_Int_Tables_number       1
loop_
    _symmetry_equiv_pos_site_id
    _symmetry_equiv_pos_as_xyz
    1  x,y,z
loop_
    _atom_site_type_symbol
    _atom_site_label
    _atom_site_fract_x
    _atom_site_fract_y
    _atom_site_fract_z
    _atom_type_partial_charge
    O   O1    0.499146  0.962123  0.066617  -0.708008
    O   O2    0.499086  0.960029  0.934791  -0.691006
    O   O3    0.999146  0.462123  0.066617  -0.708001
    O   O4    0.999086  0.460029  0.934791  -0.691009
    O   O5    0.501543  0.038138  0.064401  -0.679144
    O   O6    0.500364  0.036089  0.933803  -0.692083
    O   O7    0.001543  0.538138  0.064401  -0.679149
    O   O8    0.000364  0.536089  0.933803  -0.692081
    C   C1    0.500432  0.000082  0.085978  0.621679
    C   C2    0.499623  0.998113  0.913854  0.617958
    C   C3    0.000432  0.500082  0.085978  0.621678
    C   C4    0.999623  0.498113  0.913854  0.617962
    O   O9    0.437739  0.960148  0.060907  -0.699514
    O   O10   0.562098  0.961988  0.937130  -0.711026
    O   O11   0.937739  0.460148  0.060907  -0.699519
    O   O12   0.062098  0.461988  0.937130  -0.711021
    O   O13   0.438017  0.036207  0.063120  -0.714612
    O   O14   0.562297  0.038068  0.938455  -0.700651
    O   O15   0.938017  0.536207  0.063120  -0.714605
    O   O16   0.062297  0.538068  0.938455  -0.700653
    C   C5    0.418411  0.998251  0.081472  0.767130
    C   C6    0.581667  0.999994  0.918340  0.764158
    C   C7    0.918411  0.498251  0.081472  0.767119
    C   C8    0.081667  0.499994  0.918340  0.764146
    Zn  Zn1   0.500069  0.949176  0.999938  1.344694
    Zn  Zn2   0.000069  0.449176  0.999938  1.344695
    Zn  Zn3   0.499998  0.049017  0.999884  1.343214
    Zn  Zn4   0.999998  0.549017  0.999884  1.343216
    C   C9    0.236449  0.983827  0.300884  -0.188240
    C   C10   0.763524  0.984504  0.698882  -0.190233
    C   C11   0.736449  0.483827  0.300884  -0.188239
    C   C12   0.263524  0.484504  0.698882  -0.190232
    C   C13   0.263901  0.024356  0.268264  -0.171155
    C   C14   0.736307  0.025188  0.731438  -0.172766
    C   C15   0.763901  0.524356  0.268264  -0.171156
    C   C16   0.236307  0.525188  0.731438  -0.172768
    H   H1    0.276453  0.044916  0.283038  0.064673
    H   H2    0.723860  0.045931  0.716645  0.064875
    H   H3    0.776453  0.544916  0.283038  0.064673
    H   H4    0.223860  0.545931  0.716645  0.064875
    H   H5    0.224161  0.970723  0.344787  0.073111
    H   H6    0.775720  0.971439  0.655015  0.073921
    H   H7    0.724161  0.470723  0.344787  0.073110
    H   H8    0.275720  0.471439  0.655015  0.073920
    H   H9    0.224495  0.074374  0.265208  0.089281
    H   H10   0.776020  0.074793  0.734353  0.090221
    H   H11   0.724495  0.574374  0.265208  0.089278
    H   H12   0.276020  0.574793  0.734353  0.090219
    C   C17   0.373504  0.998504  0.126200  0.026954
    C   C18   0.626574  0.999945  0.873595  0.028461
    C   C19   0.873504  0.498504  0.126200  0.026962
    C   C20   0.126574  0.499945  0.873595  0.028471
    C   C21   0.126545  0.000104  0.373104  -0.032600
    C   C22   0.873537  0.000052  0.626570  -0.030098
    C   C23   0.626545  0.500104  0.373104  -0.032608
    C   C24   0.373537  0.500052  0.626570  -0.030108
    C   C25   0.263357  0.958766  0.241170  -0.200543
    C   C26   0.736487  0.959493  0.758645  -0.199758
    C   C27   0.763357  0.458766  0.241170  -0.200543
    C   C28   0.236487  0.459493  0.758645  -0.199759
    C   C29   0.290059  0.999292  0.209302  0.880316
    C   C30   0.710022  0.000171  0.790447  0.884283
    C   C31   0.790059  0.499292  0.209302  0.880318
    C   C32   0.210022  0.500171  0.790447  0.884287
    C   C33   0.236112  0.974847  0.230327  -0.205499
    C   C34   0.763844  0.975257  0.769423  -0.208010
    C   C35   0.736112  0.474847  0.230327  -0.205498
    C   C36   0.263844  0.475257  0.769423  -0.208009
    C   C37   0.209963  0.999899  0.289287  0.847654
    C   C38   0.790120  0.000263  0.710415  0.852643
    C   C39   0.709963  0.499899  0.289287  0.847647
    C   C40   0.290120  0.500263  0.710415  0.852635
    C   C41   0.263580  0.015378  0.197687  -0.199624
    C   C42   0.736612  0.015944  0.801996  -0.201766
    C   C43   0.763580  0.515378  0.197687  -0.199626
    C   C44   0.236612  0.515944  0.801996  -0.201769
    C   C45   0.236644  0.040441  0.257432  -0.242623
    C   C46   0.763674  0.040955  0.742205  -0.244010
    C   C47   0.736644  0.540441  0.257432  -0.242615
    C   C48   0.263674  0.540955  0.742205  -0.244006
    C   C49   0.335842  0.998845  0.163688  -0.568918
    C   C50   0.664237  0.000030  0.836087  -0.571296
    C   C51   0.835842  0.498845  0.163688  -0.568924
    C   C52   0.164237  0.500030  0.836087  -0.571304
    C   C53   0.164195  0.000084  0.335178  -0.522360
    C   C54   0.835888  0.000192  0.664503  -0.525475
    C   C55   0.664195  0.500084  0.335178  -0.522352
    C   C56   0.335888  0.500192  0.664503  -0.525465
    H   H13   0.275860  0.028484  0.153790  0.077113
    H   H14   0.724424  0.029011  0.845858  0.078284
    H   H15   0.775860  0.528484  0.153790  0.077115
    H   H16   0.224424  0.529011  0.845858  0.078285
    H   H17   0.223553  0.954288  0.215563  0.075552
    H   H18   0.776299  0.954516  0.784205  0.075803
    H   H19   0.723553  0.454288  0.215563  0.075552
    H   H20   0.276299  0.454516  0.784205  0.075803
    H   H21   0.275455  0.924815  0.233422  0.071722
    H   H22   0.724191  0.925637  0.766470  0.071619
    H   H23   0.775455  0.424815  0.233422  0.071722
    H   H24   0.224191  0.425637  0.766470  0.071620
    C   C57   0.514335  0.036262  0.188904  -0.086688
    C   C58   0.486194  0.035254  0.810737  -0.087295
    C   C59   0.014335  0.536262  0.188904  -0.086690
    C   C60   0.986194  0.535254  0.810737  -0.087299
    H   H25   0.524245  0.065372  0.196762  0.101130
    H   H26   0.476598  0.064578  0.802726  0.101986
    H   H27   0.024245  0.565372  0.196762  0.101131
    H   H28   0.976598  0.564578  0.802726  0.101986
    C   C61   0.513528  0.036770  0.144184  -0.199972
    C   C62   0.487028  0.035454  0.855429  -0.196589
    C   C63   0.013528  0.536770  0.144184  -0.199969
    C   C64   0.987028  0.535454  0.855429  -0.196586
    H   H29   0.523574  0.066088  0.116937  0.134136
    H   H30   0.477331  0.064769  0.882561  0.130293
    H   H31   0.023574  0.566088  0.116937  0.134135
    H   H32   0.977331  0.564769  0.882561  0.130293
    C   C65   0.500742  0.999870  0.133908  0.156674
    C   C66   0.499317  0.998210  0.865936  0.158725
    C   C67   0.000742  0.499870  0.133908  0.156676
    C   C68   0.999317  0.498210  0.865936  0.158723
    C   C69   0.488332  0.962671  0.169001  -0.197648
    C   C70   0.511257  0.960988  0.831077  -0.194232
    C   C71   0.988332  0.462671  0.169001  -0.197652
    C   C72   0.011257  0.460988  0.831077  -0.194239
    H   H33   0.478037  0.933552  0.161809  0.150490
    H   H34   0.521185  0.931633  0.838478  0.147183
    H   H35   0.978037  0.433552  0.161809  0.150490
    H   H36   0.021185  0.431633  0.838478  0.147184
    C   C73   0.488109  0.962633  0.214743  -0.131225
    C   C74   0.511582  0.961290  0.785234  -0.129807
    C   C75   0.988109  0.462633  0.214743  -0.131221
    C   C76   0.011582  0.461290  0.785234  -0.129801
    H   H37   0.478307  0.933359  0.242000  0.108961
    H   H38   0.521107  0.932053  0.758016  0.109175
    H   H39   0.978307  0.433359  0.242000  0.108960
    H   H40   0.021107  0.432053  0.758016  0.109173
    C   C77   0.501335  0.999321  0.224535  0.064917
    C   C78   0.498796  0.998310  0.775273  0.059816
    C   C79   0.001335  0.499321  0.224535  0.064916
    C   C80   0.998796  0.498310  0.775273  0.059819
    C   C81   0.466342  0.985107  0.330176  -0.092405
    C   C82   0.534017  0.985028  0.669398  -0.094521
    C   C83   0.966342  0.485107  0.330176  -0.092403
    C   C84   0.034017  0.485028  0.669398  -0.094513
    H   H41   0.438940  0.974313  0.339667  0.092252
    H   H42   0.561485  0.974413  0.659837  0.092349
    H   H43   0.938940  0.474313  0.339667  0.092252
    H   H44   0.061485  0.474413  0.659837  0.092348
    C   C85   0.465730  0.986063  0.376281  -0.141696
    C   C86   0.534672  0.986339  0.623259  -0.137862
    C   C87   0.965730  0.486063  0.376281  -0.141700
    C   C88   0.034672  0.486339  0.623259  -0.137877
    H   H45   0.438049  0.975166  0.420985  0.139044
    H   H46   0.562468  0.975895  0.578363  0.135561
    H   H47   0.938049  0.475166  0.420985  0.139045
    H   H48   0.062468  0.475895  0.578363  0.135562
    C   C89   0.500413  0.000071  0.364860  0.031214
    C   C90   0.499825  0.999989  0.634915  0.037222
    C   C91   0.000413  0.500071  0.364860  0.031226
    C   C92   0.999825  0.499989  0.634915  0.037246
    C   C93   0.535603  0.013346  0.307226  -0.134766
    C   C94   0.464455  0.012637  0.692764  -0.139130
    C   C95   0.035603  0.513346  0.307226  -0.134770
    C   C96   0.964455  0.512637  0.692764  -0.139148
    H   H49   0.563003  0.024485  0.297505  0.110131
    H   H50   0.436948  0.023496  0.702599  0.109405
    H   H51   0.063003  0.524485  0.297505  0.110132
    H   H52   0.936948  0.523496  0.702599  0.109409
    C   C97   0.535755  0.013496  0.261546  -0.115707
    C   C98   0.464289  0.012565  0.738457  -0.115708
    C   C99   0.035755  0.513496  0.261546  -0.115705
    C   C100  0.964289  0.512565  0.738457  -0.115699
    H   H53   0.563402  0.024080  0.216596  0.100462
    H   H54   0.436542  0.022726  0.783584  0.100998
    H   H55   0.063402  0.524080  0.216596  0.100462
    H   H56   0.936542  0.522726  0.783584  0.100997
    C   C101  0.501195  0.999212  0.272893  0.040576
    C   C102  0.498987  0.998548  0.726892  0.044521
    C   C103  0.001195  0.499212  0.272893  0.040575
    C   C104  0.998987  0.498548  0.726892  0.044511
    O   O17   0.001915  0.934518  0.535104  -0.721453
    O   O18   0.998351  0.934277  0.462361  -0.702858
    O   O19   0.501915  0.434518  0.535104  -0.721455
    O   O20   0.498351  0.434277  0.462361  -0.702852
    C   C105  0.000207  0.913815  0.498708  0.620672
    C   C106  0.500207  0.413815  0.498708  0.620674
    O   O21   0.062804  0.001463  0.475787  -0.702847
    O   O22   0.937282  0.999299  0.523871  -0.701584
    O   O23   0.562804  0.501463  0.475787  -0.702848
    O   O24   0.437282  0.499299  0.523871  -0.701585
    O   O25   0.061592  0.999032  0.400572  -0.687816
    O   O26   0.938489  0.000836  0.599110  -0.685681
    O   O27   0.561592  0.499032  0.400572  -0.687819
    O   O28   0.438489  0.500836  0.599110  -0.685684
    C   C107  0.081658  0.000055  0.418504  0.820946
    C   C108  0.918424  0.999887  0.581175  0.817201
    C   C109  0.581658  0.500055  0.418504  0.820954
    C   C110  0.418424  0.499887  0.581175  0.817213
    Zn  Zn5   0.000637  0.999995  0.549337  1.331701
    Zn  Zn6   0.999455  0.000097  0.450280  1.329892
    Zn  Zn7   0.500637  0.499995  0.549337  1.331694
    Zn  Zn8   0.499455  0.500097  0.450280  1.329889
    O   O29   0.001199  0.065881  0.537873  -0.635718
    O   O30   0.998708  0.065644  0.463910  -0.650652
    O   O31   0.501199  0.565881  0.537873  -0.635713
    O   O32   0.498708  0.565644  0.463910  -0.650658
    C   C111  0.999895  0.086308  0.500900  0.435683
    C   C112  0.499895  0.586308  0.500900  0.435691
    O   O33   0.465189  0.066116  0.532675  -0.718239
    O   O34   0.537040  0.066250  0.465014  -0.701151
    O   O35   0.965189  0.566116  0.532675  -0.718244
    O   O36   0.037040  0.566250  0.465014  -0.701156
    C   C113  0.501093  0.086754  0.498797  0.635510
    C   C114  0.001093  0.586754  0.498797  0.635518
    O   O37   0.463763  0.999045  0.469654  -0.726372
    O   O38   0.536488  0.000966  0.530135  -0.725066
    O   O39   0.963763  0.499045  0.469654  -0.726365
    O   O40   0.036488  0.500966  0.530135  -0.725053
    O   O41   0.535674  0.001896  0.398969  -0.682125
    O   O42   0.464522  0.000181  0.600871  -0.675876
    O   O43   0.035674  0.501896  0.398969  -0.682125
    O   O44   0.964522  0.500181  0.600871  -0.675868
    C   C115  0.499914  0.000595  0.413575  0.724967
    C   C116  0.500305  0.000667  0.586236  0.718188
    C   C117  0.999914  0.500595  0.413575  0.724952
    C   C118  0.000305  0.500667  0.586235  0.718174
    Zn  Zn9   0.452890  0.000632  0.546474  1.339773
    Zn  Zn10  0.547331  0.000393  0.453322  1.340468
    Zn  Zn11  0.952890  0.500632  0.546474  1.339768
    Zn  Zn12  0.047331  0.500393  0.453322  1.340466
    O   O45   0.463096  0.934767  0.535992  -0.659036
    O   O46   0.535117  0.934894  0.465937  -0.672261
    O   O47   0.963096  0.434767  0.535992  -0.659031
    O   O48   0.035117  0.434894  0.465937  -0.672261
    C   C119  0.499128  0.914318  0.500983  0.517527
    C   C120  0.999128  0.414318  0.500983  0.517516
    C   C121  0.987026  0.797130  0.475381  -0.109340
    C   C122  0.014175  0.797436  0.521913  -0.110190
    C   C123  0.487026  0.297130  0.475381  -0.109344
    C   C124  0.514175  0.297436  0.521913  -0.110194
    H   H57   0.976842  0.779551  0.456332  0.112066
    H   H58   0.024469  0.780096  0.540953  0.111785
    H   H59   0.476842  0.279551  0.456332  0.112067
    H   H60   0.524469  0.280096  0.540953  0.111785
    C   C125  0.987398  0.842530  0.474639  -0.239676
    C   C126  0.013497  0.842834  0.522703  -0.237829
    C   C127  0.487398  0.342530  0.474639  -0.239669
    C   C128  0.513497  0.342834  0.522703  -0.237823
    H   H61   0.976820  0.859655  0.455878  0.158214
    H   H62   0.023959  0.860204  0.541480  0.158541
    H   H63   0.476820  0.359655  0.455878  0.158213
    H   H64   0.523959  0.360204  0.541480  0.158540
    C   C129  0.000366  0.865595  0.498689  0.207686
    C   C130  0.500366  0.365595  0.498689  0.207675
    C   C131  0.000674  0.774394  0.498639  0.059067
    C   C132  0.500674  0.274394  0.498639  0.059071
    C   C133  0.535438  0.203414  0.478771  -0.117606
    C   C134  0.466265  0.203150  0.518590  -0.120775
    C   C135  0.035438  0.703414  0.478771  -0.117602
    C   C136  0.966265  0.703150  0.518590  -0.120768
    H   H65   0.562891  0.220979  0.462348  0.108298
    H   H66   0.438728  0.220505  0.534994  0.108897
    H   H67   0.062891  0.720979  0.462348  0.108297
    H   H68   0.938728  0.720505  0.534994  0.108896
    C   C137  0.535772  0.158012  0.478019  -0.214511
    C   C138  0.466138  0.157755  0.519412  -0.211563
    C   C139  0.035772  0.658012  0.478019  -0.214517
    C   C140  0.966138  0.657755  0.519412  -0.211575
    H   H69   0.563307  0.140864  0.461917  0.156411
    H   H70   0.438679  0.140406  0.535543  0.156516
    H   H71   0.063307  0.640864  0.461917  0.156412
    H   H72   0.938679  0.640406  0.535543  0.156519
    C   C141  0.501005  0.134971  0.498737  0.151649
    C   C142  0.001005  0.634971  0.498737  0.151658
    C   C143  0.500798  0.226171  0.498663  0.077003
    C   C144  0.000798  0.726171  0.498663  0.077000
    C   C145  0.032405  0.203316  0.449839  0.030530
    C   C146  0.966822  0.203227  0.551894  0.032745
    C   C147  0.532405  0.703316  0.449839  0.030528
    C   C148  0.466822  0.703227  0.551894  0.032745
    H   H73   0.058803  0.221261  0.410679  0.068122
    H   H74   0.940331  0.221087  0.591053  0.067974
    H   H75   0.558803  0.721261  0.410679  0.068122
    H   H76   0.440331  0.721087  0.591053  0.067973
    C   C149  0.033280  0.157829  0.449651  -0.427252
    C   C150  0.966164  0.157738  0.552078  -0.434122
    C   C151  0.533280  0.657829  0.449651  -0.427249
    C   C152  0.466164  0.657738  0.552078  -0.434122
    C   C153  0.999779  0.134614  0.500872  0.453510
    C   C154  0.499779  0.634614  0.500872  0.453506
    C   C155  0.999561  0.226163  0.500872  0.015370
    C   C156  0.499561  0.726163  0.500872  0.015373
    C   C157  0.486059  0.797471  0.550960  0.021182
    C   C158  0.512715  0.797423  0.450872  0.016268
    C   C159  0.986059  0.297471  0.550960  0.021181
    C   C160  0.012715  0.297423  0.450872  0.016264
    H   H77   0.477172  0.779631  0.589257  0.073782
    H   H78   0.521702  0.779536  0.412538  0.074865
    H   H79   0.977172  0.279631  0.589257  0.073782
    H   H80   0.021702  0.279536  0.412538  0.074867
    C   C161  0.486593  0.842955  0.551069  -0.402438
    C   C162  0.511944  0.842901  0.450847  -0.392044
    C   C163  0.986593  0.342955  0.551069  -0.402441
    C   C164  0.011944  0.342901  0.450847  -0.392042
    C   C165  0.499207  0.866051  0.500979  0.385962
    C   C166  0.999207  0.366051  0.500979  0.385968
    C   C167  0.499445  0.774550  0.500897  0.016158
    C   C168  0.999445  0.274550  0.500897  0.016161
    C   C169  0.071030  0.135818  0.395169  0.736484
    O   O49   0.082019  0.100237  0.398825  -0.418275
    O   O50   0.095375  0.156704  0.341265  -0.301648
    C   C170  0.131519  0.137719  0.290374  -0.064490
    H   H81   0.146654  0.160075  0.251148  0.091494
    H   H82   0.124371  0.105948  0.280986  0.074303
    H   H83   0.153073  0.132103  0.297108  0.072464
    C   C171  0.928502  0.135612  0.606530  0.741652
    O   O51   0.917627  0.099972  0.602811  -0.419299
    O   O52   0.904083  0.156466  0.660462  -0.303768
    C   C172  0.867990  0.137383  0.711318  -0.060502
    H   H84   0.852778  0.159729  0.750575  0.090335
    H   H85   0.875229  0.105664  0.720674  0.074143
    H   H86   0.846465  0.131646  0.704555  0.070888
    C   C173  0.571030  0.635818  0.395169  0.736484
    O   O53   0.582019  0.600237  0.398825  -0.418276
    O   O54   0.595375  0.656704  0.341265  -0.301649
    C   C174  0.631519  0.637719  0.290374  -0.064490
    H   H87   0.646654  0.660075  0.251148  0.091494
    H   H88   0.624371  0.605948  0.280986  0.074303
    H   H89   0.653073  0.632103  0.297108  0.072464
    C   C175  0.428502  0.635612  0.606530  0.741650
    O   O55   0.417627  0.599972  0.602811  -0.419300
    O   O56   0.404083  0.656466  0.660462  -0.303765
    C   C176  0.367990  0.637383  0.711318  -0.060507
    H   H90   0.352778  0.659729  0.750575  0.090336
    H   H91   0.375229  0.605664  0.720674  0.074145
    H   H92   0.346465  0.631646  0.704555  0.070890
    C   C177  0.474976  0.865225  0.604210  0.732136
    O   O57   0.489895  0.900843  0.599091  -0.424909
    O   O58   0.449810  0.844646  0.658361  -0.304922
    C   C178  0.439728  0.864131  0.707933  -0.045501
    H   H93   0.418687  0.842043  0.747708  0.089131
    H   H94   0.423586  0.895873  0.717821  0.067948
    H   H95   0.468414  0.869944  0.699074  0.063550
    C   C179  0.523465  0.865112  0.397740  0.723864
    O   O59   0.508339  0.900597  0.402931  -0.421070
    O   O60   0.548795  0.844614  0.343529  -0.303333
    C   C180  0.558823  0.864052  0.293972  -0.048508
    H   H96   0.580024  0.842053  0.254137  0.090168
    H   H97   0.574763  0.895920  0.284220  0.067429
    H   H98   0.530134  0.869617  0.302766  0.064918
    C   C181  0.974976  0.365225  0.604210  0.732137
    O   O61   0.989895  0.400843  0.599091  -0.424909
    O   O62   0.949810  0.344646  0.658361  -0.304920
    C   C182  0.939728  0.364131  0.707933  -0.045504
    H   H99   0.918687  0.342043  0.747708  0.089132
    H   H100  0.923586  0.395873  0.717821  0.067948
    H   H101  0.968414  0.369944  0.699074  0.063552
    C   C183  0.023465  0.365112  0.397740  0.723860
    O   O63   0.008339  0.400597  0.402931  -0.421062
    O   O64   0.048795  0.344614  0.343529  -0.303333
    C   C184  0.058823  0.364052  0.293972  -0.048507
    H   H102  0.080024  0.342053  0.254137  0.090168
    H   H103  0.074763  0.395920  0.284220  0.067429
    H   H104  0.030134  0.369617  0.302766  0.064917
