data_DB0-m3_o540_o156_f0_fsc.sym.10_repeat
_audit_creation_date              2024-02-20
_audit_creation_method            'Materials Studio'
_symmetry_space_group_name_H-M    'P1'
_symmetry_Int_Tables_number       1
_symmetry_cell_setting            triclinic
loop_
_symmetry_equiv_pos_as_xyz
  x,y,z
_cell_length_a                    17.5078
_cell_length_b                    8.5470
_cell_length_c                    23.2941
_cell_angle_alpha                 90.0000
_cell_angle_beta                  93.8452
_cell_angle_gamma                 90.0000
loop_
_atom_site_label
_atom_site_type_symbol
_atom_site_fract_x
_atom_site_fract_y
_atom_site_fract_z
_atom_site_U_iso_or_equiv
_atom_site_adp_type
_atom_site_occupancy
C1     C     0.04921   0.08954   0.79329   0.00000  Uiso   1.00
C2     C     0.95437   0.90382   0.20666   0.00000  Uiso   1.00
C3     C     0.05297   0.08849   0.21157   0.00000  Uiso   1.00
C4     C     0.94517   0.91779   0.78830   0.00000  Uiso   1.00
O1     O     0.10204   0.17082   0.76648   0.00000  Uiso   1.00
O2     O     0.90340   0.81698   0.23326   0.00000  Uiso   1.00
O3     O     0.10364   0.17616   0.24324   0.00000  Uiso   1.00
O4     O     0.89240   0.83563   0.75646   0.00000  Uiso   1.00
N1     N     0.99705   0.00365   0.76206   0.00000  Uiso   1.00
N2     N     0.00367   0.99627   0.23793   0.00000  Uiso   1.00
C5     C     0.00049   0.86006   0.67172   0.00000  Uiso   1.00
C6     C     0.99860   0.14023   0.32826   0.00000  Uiso   1.00
C7     C     0.99911   0.85957   0.32931   0.00000  Uiso   1.00
C8     C     0.00201   0.14073   0.67096   0.00000  Uiso   1.00
C9     C     0.01269   0.85946   0.61379   0.00000  Uiso   1.00
C10    C     0.98667   0.14063   0.38623   0.00000  Uiso   1.00
C11    C     0.98646   0.86151   0.38704   0.00000  Uiso   1.00
C12    C     0.01332   0.13866   0.61302   0.00000  Uiso   1.00
C13    C     0.99905   0.00125   0.70098   0.00000  Uiso   1.00
C14    C     0.00121   0.99896   0.29906   0.00000  Uiso   1.00
C15    C     0.99821   0.00298   0.88048   0.00000  Uiso   1.00
C16    C     0.00291   0.99685   0.11943   0.00000  Uiso   1.00
C17    C     0.05047   0.09001   0.85267   0.00000  Uiso   1.00
C18    C     0.95381   0.90227   0.14730   0.00000  Uiso   1.00
C19    C     0.05283   0.09040   0.15212   0.00000  Uiso   1.00
C20    C     0.94502   0.91689   0.84773   0.00000  Uiso   1.00
C21    C     0.10494   0.17496   0.88425   0.00000  Uiso   1.00
C22    C     0.90394   0.80649   0.11584   0.00000  Uiso   1.00
C23    C     0.10203   0.18675   0.12528   0.00000  Uiso   1.00
C24    C     0.89139   0.83128   0.87446   0.00000  Uiso   1.00
C25    C     0.02304   0.99840   0.58578   0.00000  Uiso   1.00
C26    C     0.97619   0.00167   0.41419   0.00000  Uiso   1.00
H1     H     0.99552   0.25120   0.69270   0.00000  Uiso   1.00
H2     H     0.00707   0.74906   0.30795   0.00000  Uiso   1.00
H3     H     0.00206   0.25030   0.30578   0.00000  Uiso   1.00
H4     H     0.99599   0.75031   0.69428   0.00000  Uiso   1.00
H5     H     0.14751   0.24210   0.86347   0.00000  Uiso   1.00
H6     H     0.86573   0.72892   0.13672   0.00000  Uiso   1.00
H7     H     0.14101   0.26319   0.14983   0.00000  Uiso   1.00
H8     H     0.84803   0.76518   0.84978   0.00000  Uiso   1.00
C27    C     0.05276   0.09311   0.03243   0.00000  Uiso   1.00
C28    C     0.94674   0.91081   0.96744   0.00000  Uiso   1.00
C29    C     0.05316   0.09087   0.97234   0.00000  Uiso   1.00
C30    C     0.94974   0.90500   0.02761   0.00000  Uiso   1.00
C31    C     0.00184   0.99825   0.05963   0.00000  Uiso   1.00
C32    C     0.99934   0.00164   0.94028   0.00000  Uiso   1.00
C33    C     0.10189   0.18905   0.06634   0.00000  Uiso   1.00
C34    C     0.89177   0.82872   0.93340   0.00000  Uiso   1.00
C35    C     0.10667   0.17514   0.94321   0.00000  Uiso   1.00
C36    C     0.90212   0.80672   0.05688   0.00000  Uiso   1.00
H9     H     0.14057   0.27154   0.04928   0.00000  Uiso   1.00
H10    H     0.84633   0.76255   0.95032   0.00000  Uiso   1.00
H11    H     0.15260   0.24108   0.96416   0.00000  Uiso   1.00
H12    H     0.86311   0.72454   0.03609   0.00000  Uiso   1.00
H13    H     0.03363   0.99725   0.54084   0.00000  Uiso   1.00
H14    H     0.96523   0.00278   0.45906   0.00000  Uiso   1.00
O5     O     0.07168   0.66835   0.55720   0.00000  Uiso   1.00
O6     O     0.92785   0.33180   0.44283   0.00000  Uiso   1.00
O7     O     0.92776   0.67026   0.44374   0.00000  Uiso   1.00
O8     O     0.07181   0.32991   0.55632   0.00000  Uiso   1.00
O9     O     0.94067   0.66177   0.56321   0.00000  Uiso   1.00
O10    O     0.05885   0.33826   0.43685   0.00000  Uiso   1.00
O11    O     0.05878   0.66442   0.43769   0.00000  Uiso   1.00
O12    O     0.94078   0.33562   0.56233   0.00000  Uiso   1.00
C37    C     0.00879   0.71681   0.57922   0.00000  Uiso   1.00
C38    C     0.99069   0.28327   0.42082   0.00000  Uiso   1.00
C39    C     0.99063   0.71986   0.42207   0.00000  Uiso   1.00
C40    C     0.00898   0.28031   0.57800   0.00000  Uiso   1.00
Zn1    Zn    0.91479   0.49984   0.50208   0.00000  Uiso   1.00
Zn2    Zn    0.08476   0.50026   0.49796   0.00000  Uiso   1.00
C41    C     0.77264   0.49665   0.45252   0.00000  Uiso   1.00
C42    C     0.22691   0.50347   0.54752   0.00000  Uiso   1.00
N3     N     0.81470   0.49960   0.50325   0.00000  Uiso   1.00
N4     N     0.18484   0.50049   0.49679   0.00000  Uiso   1.00
C43    C     0.78022   0.50217   0.55333   0.00000  Uiso   1.00
C44    C     0.21932   0.49787   0.44671   0.00000  Uiso   1.00
C45    C     0.65043   0.49039   0.39916   0.00000  Uiso   1.00
C46    C     0.34912   0.50969   0.60088   0.00000  Uiso   1.00
C47    C     0.69356   0.49530   0.45107   0.00000  Uiso   1.00
C48    C     0.30599   0.50479   0.54897   0.00000  Uiso   1.00
C49    C     0.65762   0.49936   0.50175   0.00000  Uiso   1.00
C50    C     0.34193   0.50069   0.49829   0.00000  Uiso   1.00
C51    C     0.70107   0.50327   0.55324   0.00000  Uiso   1.00
C52    C     0.29848   0.49676   0.44680   0.00000  Uiso   1.00
C53    C     0.66522   0.50812   0.60429   0.00000  Uiso   1.00
C54    C     0.33433   0.49187   0.39575   0.00000  Uiso   1.00
C55    C     0.52812   0.48598   0.34630   0.00000  Uiso   1.00
C56    C     0.47142   0.51403   0.65374   0.00000  Uiso   1.00
C57    C     0.57144   0.49053   0.39812   0.00000  Uiso   1.00
C58    C     0.42811   0.50950   0.60192   0.00000  Uiso   1.00
C59    C     0.53556   0.49535   0.44906   0.00000  Uiso   1.00
C60    C     0.46398   0.50468   0.55098   0.00000  Uiso   1.00
C61    C     0.44941   0.48641   0.34545   0.00000  Uiso   1.00
C62    C     0.55013   0.51358   0.65459   0.00000  Uiso   1.00
C63    C     0.41336   0.49135   0.39642   0.00000  Uiso   1.00
C64    C     0.58618   0.50865   0.60362   0.00000  Uiso   1.00
C65    C     0.57870   0.49961   0.50089   0.00000  Uiso   1.00
C66    C     0.42085   0.50042   0.49916   0.00000  Uiso   1.00
C67    C     0.54294   0.50427   0.55184   0.00000  Uiso   1.00
C68    C     0.45660   0.49575   0.44820   0.00000  Uiso   1.00
H15    H     0.67831   0.48599   0.35925   0.00000  Uiso   1.00
H16    H     0.32124   0.51411   0.64079   0.00000  Uiso   1.00
H17    H     0.69890   0.51204   0.64482   0.00000  Uiso   1.00
H18    H     0.30065   0.48794   0.35522   0.00000  Uiso   1.00
O13    O     0.82369   0.50393   0.60428   0.00000  Uiso   1.00
H19    H     0.82114   0.39531   0.61881   0.00000  Uiso   1.00
O14    O     0.17585   0.49606   0.39576   0.00000  Uiso   1.00
H20    H     0.17841   0.60467   0.38122   0.00000  Uiso   1.00
O15    O     0.80845   0.49567   0.40218   0.00000  Uiso   1.00
H21    H     0.80153   0.60317   0.38685   0.00000  Uiso   1.00
O16    O     0.19109   0.50453   0.59786   0.00000  Uiso   1.00
H22    H     0.19801   0.39704   0.61321   0.00000  Uiso   1.00
O17    O     0.56271   0.48128   0.29545   0.00000  Uiso   1.00
H23    H     0.56709   0.59236   0.28407   0.00000  Uiso   1.00
O18    O     0.43683   0.51872   0.70459   0.00000  Uiso   1.00
H24    H     0.43245   0.40764   0.71596   0.00000  Uiso   1.00
O19    O     0.40759   0.48207   0.29379   0.00000  Uiso   1.00
H25    H     0.40185   0.59320   0.28231   0.00000  Uiso   1.00
O20    O     0.59195   0.51788   0.70625   0.00000  Uiso   1.00
H26    H     0.59769   0.40674   0.71772   0.00000  Uiso   1.00
