# Generated by REPEAT Assigner based on pymatgen
data_DB0-m3_o530_o6_f0_fsc.sym.13
_audit_creation_date              2022-05-24
_audit_creation_method            REPEAT_Assigner
_cell_length_a                    18.931553
_cell_length_b                    8.536999
_cell_length_c                    14.436914
_cell_angle_alpha                 90.000000
_cell_angle_beta                  102.069137
_cell_angle_gamma                 90.000000
_cell_volume                      2281.699866
_symmetry_space_group_name_H-M    P1
_symmetry_Int_Tables_number       1
loop_
    _symmetry_equiv_pos_site_id
    _symmetry_equiv_pos_as_xyz
    1  x,y,z
loop_
    _atom_site_type_symbol
    _atom_site_label
    _atom_site_fract_x
    _atom_site_fract_y
    _atom_site_fract_z
    _atom_type_partial_charge
    C   C1   0.870693  0.912952  0.078472  0.466079
    C   C2   0.129326  0.090972  0.921489  0.424758
    C   C3   0.157276  0.915411  0.048773  0.399703
    C   C4   0.842740  0.088538  0.951200  0.496133
    N   N1   0.822193  0.000922  0.018747  -0.209716
    N   N2   0.177820  0.002967  0.981200  -0.146264
    C   C5   0.914223  0.090505  0.942920  -0.141944
    C   C6   0.085797  0.913497  0.057071  -0.067823
    C   C7   0.057565  0.092013  0.928256  -0.083891
    C   C8   0.942458  0.911976  0.071728  -0.127172
    C   C9   0.964266  0.001647  0.003653  0.127044
    C   C10  0.035755  0.002363  0.996335  0.073013
    C   C11  0.935954  0.180213  0.874204  -0.061266
    C   C12  0.064069  0.823832  0.125802  -0.094277
    C   C13  0.007428  0.181002  0.866927  -0.066790
    C   C14  0.992596  0.823030  0.133074  -0.047111
    O   O1   0.849381  0.829507  0.146646  -0.492652
    O   O2   0.150640  0.174380  0.853299  -0.478448
    O   O3   0.206855  0.833275  0.109888  -0.450232
    O   O4   0.793155  0.170668  0.890083  -0.501008
    H   H1   0.897681  0.250820  0.825636  0.125902
    H   H2   0.102344  0.753250  0.174385  0.133562
    H   H3   0.023314  0.252171  0.812835  0.126151
    H   H4   0.976711  0.751874  0.187173  0.128718
    C   C15  0.287695  0.862086  0.969419  -0.268142
    C   C16  0.712317  0.141739  0.030552  -0.271104
    C   C17  0.712920  0.861235  0.032672  -0.248244
    C   C18  0.287103  0.142593  0.967281  -0.261576
    H   H5   0.261424  0.751601  0.976283  0.151248
    H   H6   0.738581  0.252240  0.023681  0.150915
    H   H7   0.738847  0.751394  0.022971  0.146866
    H   H8   0.261177  0.252446  0.976984  0.142011
    C   C19  0.357694  0.862641  0.955893  -0.024507
    C   C20  0.642332  0.141161  0.044113  -0.017433
    C   C21  0.642783  0.861523  0.045564  0.019344
    C   C22  0.357249  0.142281  0.954438  0.040864
    C   C23  0.391149  0.002470  0.945149  -0.187122
    C   C24  0.608886  0.001330  0.054876  -0.184874
    C   C25  0.251311  0.002332  0.971708  0.301803
    C   C26  0.748701  0.001516  0.028231  0.329141
    H   H9   0.447084  0.002690  0.939320  0.142550
    H   H10  0.552958  0.001126  0.060741  0.145516
    O   O5   0.423997  0.670370  0.055971  -0.635639
    O   O6   0.576026  0.333423  0.944046  -0.652625
    O   O7   0.576441  0.670387  0.944761  -0.664059
    O   O8   0.423588  0.333410  0.055252  -0.709797
    O   O9   0.426474  0.666894  0.896770  -0.725851
    O   O10  0.573552  0.336905  0.103243  -0.671784
    O   O11  0.573957  0.665071  0.103941  -0.728563
    O   O12  0.426071  0.338736  0.896078  -0.689716
    C   C27  0.401790  0.721066  0.968992  0.827472
    C   C28  0.598233  0.282730  0.031023  0.795633
    C   C29  0.598776  0.719874  0.031979  0.806661
    C   C30  0.401257  0.283928  0.968037  0.808575
    Zn  Zn1  0.502995  0.502469  0.897446  1.055838
    Zn  Zn2  0.497033  0.501331  0.102570  1.072185
    C   C31  0.563476  0.502657  0.466579  -0.077774
    C   C32  0.436442  0.502866  0.533401  -0.055768
    C   C33  0.497319  0.500620  0.403755  0.223397
    C   C34  0.502605  0.502059  0.596235  0.214443
    C   C35  0.433717  0.499046  0.436765  -0.118305
    C   C36  0.566207  0.500471  0.563231  -0.129804
    C   C37  0.495070  0.500618  0.303720  0.028032
    C   C38  0.504903  0.502720  0.696283  0.031856
    N   N3   0.506015  0.503058  0.776708  0.008364
    N   N4   0.494010  0.500722  0.223307  -0.000310
    C   C39  0.636011  0.488813  0.630664  0.699983
    O   O13  0.644791  0.552136  0.707930  -0.480647
    O   O14  0.691488  0.398699  0.608537  -0.559397
    H   H11  0.734958  0.400904  0.662937  0.442309
    C   C40  0.363939  0.485244  0.369476  0.650482
    O   O15  0.354948  0.546417  0.291569  -0.446547
    O   O16  0.308779  0.395227  0.392541  -0.538047
    H   H12  0.265264  0.395641  0.338185  0.422800
    C   C41  0.630259  0.515276  0.430230  0.678687
    O   O17  0.679995  0.596289  0.471621  -0.476587
    O   O18  0.636199  0.440812  0.346434  -0.545586
    H   H13  0.684981  0.463850  0.331258  0.426633
    C   C42  0.369621  0.516388  0.569597  0.641333
    O   O19  0.319837  0.596554  0.527488  -0.461436
    O   O20  0.363703  0.444109  0.654049  -0.531250
    H   H14  0.314884  0.467741  0.668914  0.425086
