data_DB0-m3_o12_o29_f0_pcu.sym.50_repeat
_audit_creation_date              2024-02-23
_audit_creation_method            'Materials Studio'
_symmetry_space_group_name_H-M    'P1'
_symmetry_Int_Tables_number       1
_symmetry_cell_setting            triclinic
loop_
_symmetry_equiv_pos_as_xyz
  x,y,z
_cell_length_a                    10.0016
_cell_length_b                    11.2503
_cell_length_c                    27.6264
_cell_angle_alpha                 89.9793
_cell_angle_beta                  80.7759
_cell_angle_gamma                 92.4452
loop_
_atom_site_label
_atom_site_type_symbol
_atom_site_fract_x
_atom_site_fract_y
_atom_site_fract_z
_atom_site_U_iso_or_equiv
_atom_site_adp_type
_atom_site_occupancy
O1     O     0.41421   0.69286   0.50535   0.00000  Uiso   1.00
O2     O     0.56384   0.31148   0.49610   0.00000  Uiso   1.00
O3     O     0.64378   0.66170   0.49098   0.00000  Uiso   1.00
O4     O     0.33425   0.34263   0.51002   0.00000  Uiso   1.00
C1     C     0.54125   0.73213   0.49741   0.00000  Uiso   1.00
C2     C     0.43679   0.27220   0.50381   0.00000  Uiso   1.00
O5     O     0.37678   0.51735   0.57965   0.00000  Uiso   1.00
O6     O     0.60111   0.48632   0.42159   0.00000  Uiso   1.00
O7     O     0.60637   0.48676   0.56554   0.00000  Uiso   1.00
O8     O     0.37181   0.51822   0.43568   0.00000  Uiso   1.00
C3     C     0.49216   0.50204   0.59522   0.00000  Uiso   1.00
C4     C     0.48588   0.50224   0.40601   0.00000  Uiso   1.00
Zn1    Zn    0.33772   0.52285   0.50994   0.00000  Uiso   1.00
Zn2    Zn    0.64032   0.48149   0.49128   0.00000  Uiso   1.00
C5     C     0.53499   0.60316   0.82141   0.00000  Uiso   1.00
C6     C     0.47481   0.39473   0.17814   0.00000  Uiso   1.00
O9     O     0.57110   0.70009   0.79314   0.00000  Uiso   1.00
O10    O     0.46381   0.29433   0.20509   0.00000  Uiso   1.00
N1     N     0.49579   0.50315   0.79989   0.00000  Uiso   1.00
N2     N     0.48281   0.49932   0.20132   0.00000  Uiso   1.00
C7     C     0.45623   0.40394   0.82626   0.00000  Uiso   1.00
C8     C     0.49193   0.60284   0.17659   0.00000  Uiso   1.00
C9     C     0.37373   0.49761   0.73061   0.00000  Uiso   1.00
C10    C     0.37224   0.53770   0.28445   0.00000  Uiso   1.00
C11    C     0.37268   0.49825   0.68077   0.00000  Uiso   1.00
C12    C     0.37236   0.53757   0.33438   0.00000  Uiso   1.00
C13    C     0.61492   0.50614   0.66616   0.00000  Uiso   1.00
C14    C     0.59635   0.46516   0.32114   0.00000  Uiso   1.00
C15    C     0.61560   0.50742   0.71604   0.00000  Uiso   1.00
C16    C     0.59500   0.46356   0.27132   0.00000  Uiso   1.00
C17    C     0.49508   0.50276   0.74836   0.00000  Uiso   1.00
C18    C     0.48324   0.50015   0.25286   0.00000  Uiso   1.00
C19    C     0.49469   0.50378   0.89958   0.00000  Uiso   1.00
C20    C     0.48621   0.49808   0.10151   0.00000  Uiso   1.00
C21    C     0.53447   0.60584   0.87203   0.00000  Uiso   1.00
C22    C     0.47537   0.39188   0.12753   0.00000  Uiso   1.00
C23    C     0.57395   0.70754   0.89556   0.00000  Uiso   1.00
C24    C     0.46723   0.28558   0.10233   0.00000  Uiso   1.00
C25    C     0.45631   0.40263   0.87621   0.00000  Uiso   1.00
C26    C     0.49496   0.60357   0.12646   0.00000  Uiso   1.00
C27    C     0.49334   0.50209   0.64824   0.00000  Uiso   1.00
C28    C     0.48474   0.50170   0.35299   0.00000  Uiso   1.00
H1     H     0.71058   0.50967   0.64154   0.00000  Uiso   1.00
H2     H     0.68521   0.43622   0.33469   0.00000  Uiso   1.00
H3     H     0.71102   0.51099   0.72976   0.00000  Uiso   1.00
H4     H     0.68247   0.43451   0.24670   0.00000  Uiso   1.00
C29    C     0.50856   0.60632   0.02516   0.00000  Uiso   1.00
C30    C     0.46113   0.39711   0.97653   0.00000  Uiso   1.00
C31    C     0.47061   0.39423   0.02653   0.00000  Uiso   1.00
C32    C     0.52236   0.60583   0.97392   0.00000  Uiso   1.00
C33    C     0.48842   0.49951   0.05100   0.00000  Uiso   1.00
C34    C     0.49277   0.50226   0.95008   0.00000  Uiso   1.00
C35    C     0.51257   0.71161   0.05138   0.00000  Uiso   1.00
C36    C     0.41883   0.29737   0.95234   0.00000  Uiso   1.00
C37    C     0.50548   0.70990   0.10134   0.00000  Uiso   1.00
C38    C     0.41627   0.30052   0.90290   0.00000  Uiso   1.00
O11    O     0.50099   0.70556   0.20089   0.00000  Uiso   1.00
O12    O     0.41876   0.30542   0.80348   0.00000  Uiso   1.00
C39    C     0.56734   0.70655   0.94585   0.00000  Uiso   1.00
C40    C     0.46476   0.28782   0.05253   0.00000  Uiso   1.00
H5     H     0.28414   0.56701   0.35846   0.00000  Uiso   1.00
H6     H     0.27630   0.49451   0.66776   0.00000  Uiso   1.00
H7     H     0.28424   0.56622   0.27016   0.00000  Uiso   1.00
H8     H     0.27898   0.49431   0.75579   0.00000  Uiso   1.00
H9     H     0.50879   0.79386   0.12017   0.00000  Uiso   1.00
H10    H     0.38232   0.22100   0.88571   0.00000  Uiso   1.00
H11    H     0.51553   0.79840   0.03479   0.00000  Uiso   1.00
H12    H     0.38098   0.21559   0.97077   0.00000  Uiso   1.00
H13    H     0.60498   0.78535   0.96199   0.00000  Uiso   1.00
H14    H     0.46505   0.20347   0.03438   0.00000  Uiso   1.00
H15    H     0.61127   0.09717   0.49315   0.00000  Uiso   1.00
H16    H     0.36677   0.90717   0.50819   0.00000  Uiso   1.00
C41    C     0.57116   0.86090   0.49557   0.00000  Uiso   1.00
C42    C     0.40688   0.14343   0.50565   0.00000  Uiso   1.00
C43    C     0.47227   0.93801   0.50169   0.00000  Uiso   1.00
C44    C     0.50577   0.06633   0.49962   0.00000  Uiso   1.00
H17    H     0.30195   0.11084   0.51207   0.00000  Uiso   1.00
H18    H     0.67609   0.89350   0.48908   0.00000  Uiso   1.00
H19    H     0.10611   0.43074   0.46947   0.00000  Uiso   1.00
H20    H     0.87194   0.57366   0.53174   0.00000  Uiso   1.00
N3     N     0.83907   0.45374   0.47878   0.00000  Uiso   1.00
N4     N     0.13897   0.55060   0.52244   0.00000  Uiso   1.00
C45    C     0.91579   0.51133   0.50440   0.00000  Uiso   1.00
C46    C     0.06225   0.49304   0.49681   0.00000  Uiso   1.00
H21    H     0.09144   0.60855   0.54770   0.00000  Uiso   1.00
H22    H     0.88660   0.39578   0.45354   0.00000  Uiso   1.00
N5     N     0.62190   0.81215   0.86864   0.00000  Uiso   1.00
C47    C     0.54012   0.91311   0.88181   0.00000  Uiso   1.00
C48    C     0.76428   0.83912   0.86793   0.00000  Uiso   1.00
H23    H     0.43155   0.88607   0.88340   0.00000  Uiso   1.00
H24    H     0.56757   0.98409   0.85366   0.00000  Uiso   1.00
H25    H     0.55689   0.94892   0.91782   0.00000  Uiso   1.00
H26    H     0.82189   0.75854   0.85735   0.00000  Uiso   1.00
H27    H     0.78350   0.86921   0.90449   0.00000  Uiso   1.00
H28    H     0.79948   0.91069   0.84067   0.00000  Uiso   1.00
N6     N     0.46257   0.17470   0.12694   0.00000  Uiso   1.00
C49    C     0.34059   0.10339   0.12477   0.00000  Uiso   1.00
C50    C     0.58357   0.10939   0.11350   0.00000  Uiso   1.00
H29    H     0.25135   0.15921   0.13386   0.00000  Uiso   1.00
H30    H     0.33214   0.02963   0.15188   0.00000  Uiso   1.00
H31    H     0.34210   0.06495   0.08776   0.00000  Uiso   1.00
H32    H     0.67375   0.16858   0.11596   0.00000  Uiso   1.00
H33    H     0.58990   0.07515   0.07563   0.00000  Uiso   1.00
H34    H     0.58230   0.03321   0.13908   0.00000  Uiso   1.00
