# Generated by REPEAT Assigner based on pymatgen
data_DB0-m3_o9_o13_f0_pcu.sym.69_sqe
_audit_creation_date              2022-05-24
_audit_creation_method            REPEAT_Assigner
_cell_length_a                    10.845619
_cell_length_b                    12.956827
_cell_length_c                    13.098933
_cell_angle_alpha                 90.604441
_cell_angle_beta                  95.866786
_cell_angle_gamma                 84.070657
_cell_volume                      1821.287500
_symmetry_space_group_name_H-M    P1
_symmetry_Int_Tables_number       1
loop_
    _symmetry_equiv_pos_site_id
    _symmetry_equiv_pos_as_xyz
    1  x,y,z
loop_
    _atom_site_type_symbol
    _atom_site_label
    _atom_site_fract_x
    _atom_site_fract_y
    _atom_site_fract_z
    _atom_type_partial_charge
    O   O1   0.381732  0.478854  0.644528  -0.654823
    O   O2   0.609977  0.528521  0.358160  -0.654583
    O   O3   0.594218  0.491015  0.658387  -0.574429
    O   O4   0.397399  0.516819  0.344335  -0.573809
    C   C1   0.491577  0.480799  0.700790  0.710737
    C   C2   0.500043  0.526993  0.301922  0.695800
    O   O5   0.412247  0.347603  0.477861  -0.653420
    O   O6   0.579428  0.660067  0.524607  -0.648145
    O   O7   0.624688  0.352978  0.488987  -0.731250
    O   O8   0.366987  0.654635  0.513914  -0.732360
    C   C3   0.525490  0.301764  0.478893  0.738070
    C   C4   0.466165  0.705877  0.523801  0.737993
    Zn  Zn1  0.356151  0.500693  0.490266  1.129332
    Zn  Zn2  0.635523  0.506943  0.512450  1.127302
    C   C5   0.451794  0.819759  0.519938  0.005535
    C   C6   0.539781  0.187898  0.482801  0.023914
    C   C7   0.653468  0.030293  0.548319  -0.244312
    C   C8   0.338016  0.977419  0.454610  -0.273078
    C   C9   0.648526  0.134905  0.527546  -0.187614
    C   C10  0.342847  0.872855  0.475607  -0.164575
    C   C11  0.437600  0.134070  0.455425  -0.336513
    C   C12  0.554061  0.873548  0.547086  -0.317867
    C   C13  0.442036  0.029681  0.477637  0.312976
    C   C14  0.549560  0.977965  0.525007  0.272964
    H   H1   0.639667  0.833611  0.582920  0.159089
    H   H2   0.352093  0.173970  0.419385  0.161795
    H   H3   0.262568  0.832496  0.452413  0.147212
    H   H4   0.728455  0.175463  0.551290  0.145630
    H   H5   0.738493  0.990180  0.585144  0.138220
    H   H6   0.252903  0.017585  0.417995  0.139490
    C   C15  0.483092  0.527262  0.189111  0.055594
    C   C16  0.508474  0.480773  0.813588  0.018252
    C   C17  0.619067  0.407206  0.967684  -0.234713
    C   C18  0.372400  0.600781  0.035001  -0.208560
    C   C19  0.602836  0.413672  0.862247  -0.099730
    C   C20  0.388530  0.594259  0.140449  -0.161982
    C   C21  0.434199  0.546119  0.871316  -0.352064
    C   C22  0.557377  0.461967  0.131343  -0.364710
    C   C23  0.449829  0.539009  0.977212  0.242209
    C   C24  0.541742  0.469086  0.025462  0.260878
    H   H7   0.629292  0.407283  0.168966  0.151063
    H   H8   0.362216  0.600715  0.833646  0.149980
    H   H9   0.328918  0.644487  0.185155  0.128022
    H   H10  0.662057  0.363285  0.817430  0.092136
    H   H11  0.691966  0.352836  0.004552  0.144644
    H   H12  0.299403  0.655052  0.998121  0.140367
    H   H13  0.610314  0.809154  0.203402  0.121412
    H   H14  0.383526  0.199308  0.801624  0.117331
    C   C25  0.669874  0.650869  0.241885  -0.322018
    C   C26  0.322184  0.356927  0.761575  -0.338455
    H   H15  0.667575  0.629597  0.161933  0.089042
    H   H16  0.323365  0.378919  0.841292  0.092901
    C   C27  0.707773  0.576746  0.318312  0.880016
    C   C28  0.284217  0.430185  0.684374  0.886797
    H   H17  0.762221  0.514001  0.283361  -0.089518
    H   H18  0.228844  0.492906  0.718520  -0.095663
    C   C29  0.786608  0.617979  0.395994  -0.054438
    C   C30  0.206447  0.387681  0.606798  -0.046025
    C   C31  0.770378  0.722644  0.420218  -0.191974
    C   C32  0.224202  0.282864  0.583471  -0.181302
    H   H19  0.822625  0.752555  0.486772  0.083651
    H   H20  0.172904  0.251985  0.516951  0.089975
    C   C33  0.694485  0.790660  0.356417  0.002516
    C   C34  0.300527  0.215931  0.648107  -0.023111
    H   H21  0.687102  0.872925  0.371989  0.037831
    H   H22  0.309202  0.133534  0.633248  0.039974
    C   C35  0.648927  0.754869  0.263262  -0.291244
    C   C36  0.344756  0.252853  0.741163  -0.268519
    C   C37  0.012578  0.593304  0.456434  0.637577
    C   C38  0.980379  0.411071  0.545119  0.620844
    N   N1   0.109518  0.540224  0.511738  -0.482903
    N   N2   0.883289  0.464340  0.490013  -0.473060
    C   C39  0.096476  0.449267  0.555473  -0.056415
    C   C40  0.896352  0.555503  0.446577  -0.054247
    N   N3   0.031456  0.686724  0.408601  -0.714612
    C   C41  0.030054  0.682236  0.305444  0.795903
    O   O9   0.989548  0.609710  0.257545  -0.634161
    C   C42  0.079744  0.765884  0.249549  -0.371491
    H   H23  0.098447  0.728913  0.444541  0.328300
    H   H24  0.179625  0.769231  0.276044  0.085637
    H   H25  0.026758  0.841464  0.264434  0.078986
    H   H26  0.069565  0.749385  0.166029  0.128458
    N   N4   0.962415  0.316278  0.590869  -0.740631
    C   C43  0.968406  0.316529  0.694442  0.881062
    O   O10  0.004282  0.390123  0.743506  -0.641029
    C   C44  0.931222  0.226474  0.749855  -0.630972
    H   H27  0.896011  0.274092  0.554042  0.347640
    H   H28  0.904589  0.164974  0.694976  0.125253
    H   H29  0.851587  0.252465  0.793700  0.193061
    H   H30  0.010925  0.194233  0.803925  0.176956
