# Generated by REPEAT Assigner based on pymatgen
data_DB0-m2_o10_o20_f0_pcu.sym.29
_audit_creation_date              2022-05-24
_audit_creation_method            REPEAT_Assigner
_cell_length_a                    14.444054
_cell_length_b                    8.765404
_cell_length_c                    7.504264
_cell_angle_alpha                 103.790611
_cell_angle_beta                  95.724702
_cell_angle_gamma                 89.999819
_cell_volume                      917.831657
_symmetry_space_group_name_H-M    P1
_symmetry_Int_Tables_number       1
loop_
    _symmetry_equiv_pos_site_id
    _symmetry_equiv_pos_as_xyz
    1  x,y,z
loop_
    _atom_site_type_symbol
    _atom_site_label
    _atom_site_fract_x
    _atom_site_fract_y
    _atom_site_fract_z
    _atom_type_partial_charge
    O   O1   0.506103  0.292527  0.617831  -0.520410
    O   O2   0.486687  0.720532  0.381164  -0.578766
    O   O3   0.483452  0.265988  0.303798  -0.544958
    O   O4   0.508904  0.747039  0.694948  -0.624095
    C   C1   0.494121  0.206595  0.449240  0.632283
    C   C2   0.498511  0.806487  0.549633  0.752604
    O   O5   0.369430  0.514430  0.653047  -0.549163
    O   O6   0.623269  0.498828  0.345406  -0.574819
    O   O7   0.353993  0.498627  0.341668  -0.517546
    O   O8   0.638780  0.514830  0.657823  -0.567674
    C   C3   0.318491  0.506437  0.497001  0.789091
    C   C4   0.674156  0.506962  0.501952  0.846169
    Cu  Cu1  0.505404  0.521785  0.682370  0.760476
    Cu  Cu2  0.487315  0.491296  0.316715  0.774188
    C   C5   0.219086  0.506393  0.496625  -0.312610
    C   C6   0.773528  0.506918  0.502246  -0.326569
    C   C7   0.135684  0.506465  0.497330  0.171570
    C   C8   0.856925  0.506798  0.501541  0.154499
    C   C9   0.037992  0.506607  0.498865  -0.039698
    C   C10  0.954631  0.506695  0.500235  -0.046573
    C   C11  0.492016  0.036381  0.425284  -0.113361
    C   C12  0.500661  0.976688  0.573610  -0.264281
    H   H1   0.483174  0.959105  0.288192  0.113416
    H   H2   0.509585  0.053907  0.710734  0.170354
    N   N1   0.473321  0.468941  0.043321  0.070300
    N   N2   0.518633  0.544681  0.956040  0.042631
    C   C13  0.409252  0.346102  0.939205  -0.139080
    C   C14  0.313407  0.373257  0.004267  0.085471
    C   C15  0.240619  0.311264  0.843423  0.247179
    C   C16  0.144620  0.345379  0.905523  -0.274192
    H   H3   0.433832  0.231035  0.959686  0.089956
    H   H4   0.402270  0.340747  0.793000  0.061343
    H   H5   0.303836  0.500919  0.057910  0.011837
    H   H6   0.305366  0.309138  0.112749  0.009555
    H   H7   0.247779  0.182603  0.792913  -0.074201
    H   H8   0.250448  0.369833  0.730724  -0.053761
    H   H9   0.134942  0.287886  0.019168  0.040882
    H   H10  0.091187  0.299380  0.788107  0.063411
    H   H11  0.137456  0.474137  0.954933  0.046867
    C   C17  0.600263  0.630261  0.057717  -0.161566
    C   C18  0.619127  0.774459  0.987293  0.073420
    C   C19  0.695025  0.874731  0.116216  0.084442
    C   C20  0.713552  0.020459  0.048890  -0.218279
    H   H12  0.661289  0.553066  0.043855  0.101398
    H   H13  0.590288  0.673831  0.202887  0.111038
    H   H14  0.554948  0.843633  0.984800  0.047479
    H   H15  0.642767  0.740403  0.847946  0.065357
    H   H16  0.759596  0.806516  0.119360  -0.018141
    H   H17  0.672552  0.909627  0.257009  -0.021993
    H   H18  0.735743  0.985659  0.907831  0.029830
    H   H19  0.769388  0.093451  0.143070  0.061667
    H   H20  0.649145  0.089140  0.046576  0.033023
