# Generated by REPEAT Assigner based on pymatgen
data_DB0-m3_o155_o46_f0_fsc.sym.11_sqe
_audit_creation_date              2022-05-24
_audit_creation_method            REPEAT_Assigner
_cell_length_a                    8.540529
_cell_length_b                    8.807255
_cell_length_c                    17.550150
_cell_angle_alpha                 90.357107
_cell_angle_beta                  92.845136
_cell_angle_gamma                 82.944630
_cell_volume                      1308.487133
_symmetry_space_group_name_H-M    P1
_symmetry_Int_Tables_number       1
loop_
    _symmetry_equiv_pos_site_id
    _symmetry_equiv_pos_as_xyz
    1  x,y,z
loop_
    _atom_site_type_symbol
    _atom_site_label
    _atom_site_fract_x
    _atom_site_fract_y
    _atom_site_fract_z
    _atom_type_partial_charge
    C   C1   0.097353  0.803050  0.989654  -0.238336
    C   C2   0.902647  0.196950  0.010346  -0.238532
    C   C3   0.966440  0.727700  0.981830  -0.161335
    C   C4   0.033560  0.272300  0.018170  -0.161260
    H   H1   0.980780  0.606829  0.971531  0.125856
    H   H2   0.019220  0.393171  0.028469  0.125828
    C   C5   0.818104  0.802109  0.991782  0.016056
    C   C6   0.181896  0.197891  0.008218  0.016193
    C   C7   0.795298  0.958059  0.001249  -0.323781
    C   C8   0.204701  0.041941  0.998751  -0.323816
    H   H3   0.677471  0.015081  0.008274  0.143765
    H   H4   0.322529  0.984919  0.991726  0.143780
    C   C9   0.923840  0.039044  0.002040  0.207610
    C   C10  0.076160  0.960956  0.997960  0.207573
    O   O1   0.304810  0.644497  0.930304  -0.709056
    O   O2   0.695190  0.355503  0.069696  -0.709151
    O   O3   0.319285  0.670919  0.061154  -0.697520
    O   O4   0.680715  0.329081  0.938847  -0.697749
    C   C11  0.252684  0.708550  0.993489  0.924254
    C   C12  0.747316  0.291450  0.006511  0.924616
    O   O5   0.356954  0.353378  0.067954  -0.703258
    O   O6   0.643046  0.646622  0.932047  -0.703375
    O   O7   0.353854  0.327000  0.936950  -0.709591
    O   O8   0.646145  0.673000  0.063050  -0.709640
    C   C13  0.310500  0.290378  0.004482  0.836640
    C   C14  0.689500  0.709622  0.995519  0.836882
    Zn  Zn1  0.506055  0.511898  0.084825  1.033443
    Zn  Zn2  0.493945  0.488102  0.915175  1.033514
    C   C15  0.485353  0.651798  0.224079  0.311976
    C   C16  0.514647  0.348202  0.775921  0.311819
    N   N1   0.512574  0.520227  0.184871  -0.105113
    N   N2   0.487426  0.479773  0.815130  -0.104920
    C   C17  0.538983  0.385471  0.221910  0.248331
    C   C18  0.461017  0.614529  0.778091  0.247900
    C   C19  0.509213  0.511904  0.341887  0.148155
    C   C20  0.490787  0.488097  0.658113  0.147565
    C   C21  0.481664  0.649094  0.303149  -0.246938
    C   C22  0.518336  0.350906  0.696851  -0.246659
    C   C23  0.449024  0.782132  0.343749  0.402957
    C   C24  0.550975  0.217869  0.656251  0.402927
    C   C25  0.539614  0.379969  0.300340  -0.022799
    C   C26  0.460386  0.620031  0.699660  -0.022281
    C   C27  0.466614  0.634429  0.541589  0.113821
    C   C28  0.533385  0.365571  0.458412  0.113880
    C   C29  0.528284  0.359568  0.538001  0.062354
    C   C30  0.471716  0.640432  0.461999  0.062315
    C   C31  0.495036  0.494005  0.578947  -0.055481
    C   C32  0.504964  0.505996  0.421053  -0.055687
    C   C33  0.433441  0.766100  0.585240  -0.217124
    C   C34  0.566558  0.233900  0.414760  -0.217232
    C   C35  0.430990  0.758316  0.663112  -0.095860
    C   C36  0.569010  0.241684  0.336888  -0.095869
    C   C37  0.444173  0.778125  0.421822  -0.366714
    C   C38  0.555827  0.221876  0.578178  -0.366653
    H   H5   0.404959  0.862873  0.694998  0.130673
    H   H6   0.595041  0.137127  0.305002  0.130710
    H   H7   0.408630  0.879256  0.562155  0.137019
    H   H8   0.591370  0.120744  0.437845  0.137057
    H   H9   0.417570  0.887774  0.448040  0.170431
    H   H10  0.582430  0.112226  0.551961  0.170363
    F   F1   0.419220  0.919090  0.307844  -0.187595
    F   F2   0.580780  0.080910  0.692156  -0.187658
    F   F3   0.560948  0.253419  0.181689  -0.090106
    F   F4   0.439052  0.746581  0.818311  -0.090040
    F   F5   0.458249  0.785806  0.185334  -0.082581
    F   F6   0.541750  0.214194  0.814666  -0.082554
