# Generated by REPEAT Assigner based on pymatgen
data_DB0-m2_o2_o28_f0_pcu.sym.13_sqe
_audit_creation_date              2022-05-24
_audit_creation_method            REPEAT_Assigner
_cell_length_a                    15.107617
_cell_length_b                    13.739752
_cell_length_c                    23.347209
_cell_angle_alpha                 90.000000
_cell_angle_beta                  90.008614
_cell_angle_gamma                 90.000000
_cell_volume                      4846.294494
_symmetry_space_group_name_H-M    P1
_symmetry_Int_Tables_number       1
loop_
    _symmetry_equiv_pos_site_id
    _symmetry_equiv_pos_as_xyz
    1  x,y,z
loop_
    _atom_site_type_symbol
    _atom_site_label
    _atom_site_fract_x
    _atom_site_fract_y
    _atom_site_fract_z
    _atom_type_partial_charge
    O   O1   0.370761  0.582741  0.499728  -0.393982
    O   O2   0.628284  0.415653  0.503334  -0.480238
    O   O3   0.627955  0.582514  0.496746  -0.417742
    O   O4   0.371039  0.415509  0.501338  -0.490574
    C   C1   0.329384  0.499041  0.500569  0.437887
    C   C2   0.669679  0.499172  0.499984  0.437379
    O   O5   0.494291  0.582859  0.416988  -0.628857
    O   O6   0.501039  0.415702  0.583609  -0.619432
    O   O7   0.498430  0.582914  0.583424  -0.635302
    O   O8   0.504342  0.415905  0.417140  -0.643744
    C   C3   0.499440  0.499372  0.390128  0.725756
    C   C4   0.499682  0.499432  0.610433  0.714835
    Cu  Cu1  0.498579  0.596628  0.499764  0.851511
    Cu  Cu2  0.501665  0.401857  0.501297  0.985201
    C   C5   0.567118  0.542275  0.881845  0.455346
    C   C6   0.432253  0.458793  0.118962  0.455652
    N   N1   0.498876  0.501547  0.853230  -0.208724
    N   N2   0.500121  0.500331  0.147467  -0.197631
    C   C7   0.430705  0.460842  0.881937  0.460163
    C   C8   0.567705  0.542124  0.118838  0.456599
    C   C9   0.430136  0.459744  0.941195  -0.104058
    C   C10  0.568450  0.542829  0.059600  -0.104585
    C   C11  0.499219  0.501256  0.970851  0.093626
    C   C12  0.499514  0.500931  0.029962  0.089106
    C   C13  0.568045  0.543052  0.941094  -0.101600
    C   C14  0.430897  0.458679  0.059718  -0.103366
    C   C15  0.360889  0.417734  0.971000  -0.075283
    C   C16  0.637699  0.584771  0.029807  -0.071619
    C   C17  0.361343  0.417059  0.030034  -0.073107
    C   C18  0.637573  0.584736  0.970783  -0.077144
    O   O9   0.635465  0.580245  0.852560  -0.506314
    O   O10  0.364891  0.419148  0.148427  -0.510180
    O   O11  0.362185  0.422990  0.852747  -0.505582
    O   O12  0.635377  0.581460  0.148164  -0.508942
    H   H1   0.305759  0.384662  0.948861  0.130154
    H   H2   0.692732  0.617989  0.051974  0.130927
    H   H3   0.306550  0.383540  0.052290  0.130570
    H   H4   0.692530  0.617962  0.948564  0.130443
    C   C19  0.505920  0.413419  0.238154  -0.190012
    C   C20  0.500694  0.587581  0.761962  -0.194283
    H   H5   0.511016  0.345448  0.215073  0.137043
    H   H6   0.501129  0.656218  0.784585  0.140887
    C   C21  0.506065  0.413061  0.297199  -0.085025
    C   C22  0.500906  0.587106  0.702897  -0.084075
    H   H7   0.511199  0.344266  0.319261  0.116748
    H   H8   0.502147  0.655856  0.680458  0.119131
    C   C23  0.499985  0.499549  0.327257  -0.055998
    C   C24  0.499462  0.499925  0.673276  -0.054473
    C   C25  0.494653  0.586402  0.297456  -0.103303
    C   C26  0.497518  0.413374  0.703483  -0.105451
    H   H9   0.489987  0.655120  0.319758  0.130658
    H   H10  0.495834  0.344279  0.681491  0.129943
    C   C27  0.495105  0.586567  0.238399  -0.183090
    C   C28  0.497449  0.414048  0.762534  -0.185374
    H   H11  0.490321  0.654812  0.215533  0.135281
    H   H12  0.496856  0.345808  0.785570  0.137346
    C   C29  0.500400  0.500100  0.208556  0.293644
    C   C30  0.499011  0.501088  0.792061  0.296446
    C   C31  0.094990  0.582946  0.513167  -0.088121
    C   C32  0.904060  0.417319  0.516746  -0.105169
    C   C33  0.904111  0.581193  0.483151  -0.093490
    C   C34  0.095018  0.415138  0.487119  -0.110642
    H   H13  0.061081  0.649119  0.525019  0.099961
    H   H14  0.937965  0.352958  0.531683  0.101583
    H   H15  0.938082  0.645509  0.468182  0.101497
    H   H16  0.061105  0.349034  0.475045  0.101835
    C   C35  0.186236  0.583030  0.512913  -0.192864
    C   C36  0.812819  0.417119  0.516273  -0.176170
    C   C37  0.812831  0.581564  0.483771  -0.188584
    C   C38  0.186289  0.414856  0.487900  -0.161280
    H   H17  0.220837  0.649374  0.523665  0.128800
    H   H18  0.778238  0.352312  0.529933  0.134868
    H   H19  0.778241  0.646474  0.470250  0.131099
    H   H20  0.220917  0.348411  0.477331  0.130009
    C   C39  0.232398  0.498932  0.500513  0.102336
    C   C40  0.766682  0.499319  0.499999  0.110956
    C   C41  0.048373  0.499107  0.500008  0.054158
    C   C42  0.950722  0.499190  0.499905  0.053514
    C   C43  0.550624  0.105797  0.538530  -0.485140
    C   C44  0.436103  0.892724  0.470868  -0.479500
    C   C45  0.454183  0.106576  0.458867  -0.505775
    C   C46  0.567692  0.892065  0.525465  -0.491664
    H   H21  0.588336  0.070625  0.571774  0.157248
    H   H22  0.381425  0.927676  0.449587  0.177349
    H   H23  0.417444  0.072015  0.424971  0.154708
    H   H24  0.623536  0.926513  0.545786  0.176230
    C   C47  0.550970  0.206197  0.537810  0.565470
    C   C48  0.437668  0.792381  0.470191  0.577344
    C   C49  0.452392  0.206895  0.460983  0.600108
    C   C50  0.564339  0.791789  0.527182  0.588928
    N   N3   0.498833  0.256042  0.499927  -0.462009
    N   N4   0.499310  0.742449  0.500095  -0.419366
    C   C51  0.502270  0.053541  0.498571  0.316044
    C   C52  0.501986  0.945069  0.498312  0.254249
    O   O13  0.602842  0.254429  0.576398  -0.454039
    H   H25  0.576443  0.238956  0.614111  0.344647
    O   O14  0.374216  0.744369  0.439630  -0.481145
    H   H26  0.393148  0.751082  0.399236  0.346148
    O   O15  0.400406  0.255885  0.422812  -0.455968
    H   H27  0.426758  0.241126  0.384998  0.350262
    O   O16  0.627487  0.743218  0.557751  -0.487875
    H   H28  0.607509  0.747906  0.598041  0.356255
