# Generated by REPEAT Assigner based on pymatgen
data_DB0-m3_o8_o25_f0_pcu.sym.87
_audit_creation_date              2022-05-24
_audit_creation_method            REPEAT_Assigner
_cell_length_a                    16.014458
_cell_length_b                    16.010349
_cell_length_c                    17.106357
_cell_angle_alpha                 90.000206
_cell_angle_beta                  89.114227
_cell_angle_gamma                 92.735592
_cell_volume                      4380.496692
_symmetry_space_group_name_H-M    P1
_symmetry_Int_Tables_number       1
loop_
    _symmetry_equiv_pos_site_id
    _symmetry_equiv_pos_as_xyz
    1  x,y,z
loop_
    _atom_site_type_symbol
    _atom_site_label
    _atom_site_fract_x
    _atom_site_fract_y
    _atom_site_fract_z
    _atom_type_partial_charge
    O   O1   0.579436  0.502833  0.386652  -0.580637
    O   O2   0.420564  0.497167  0.613348  -0.580736
    O   O3   0.435373  0.496151  0.380679  -0.640013
    O   O4   0.564627  0.503849  0.619321  -0.640156
    C   C1   0.509743  0.499587  0.347086  0.787172
    C   C2   0.490256  0.500414  0.652914  0.787440
    O   O5   0.571785  0.378942  0.504237  -0.699328
    O   O6   0.428214  0.621058  0.495763  -0.699195
    O   O7   0.427630  0.372250  0.498278  -0.750593
    O   O8   0.572370  0.627750  0.501722  -0.750598
    C   C3   0.499631  0.336831  0.501667  0.835042
    C   C4   0.500368  0.663169  0.498333  0.834947
    Zn  Zn1  0.595269  0.504413  0.503944  1.040126
    Zn  Zn2  0.404730  0.495587  0.496056  1.040032
    C   C5   0.542640  0.975572  0.438334  -0.360242
    C   C6   0.457360  0.024428  0.561666  -0.359652
    C   C7   0.464878  0.026087  0.435905  -0.414806
    C   C8   0.535122  0.973913  0.564095  -0.415077
    C   C9   0.499534  0.247245  0.501689  0.115755
    C   C10  0.500465  0.752755  0.498312  0.115793
    C   C11  0.577490  0.031124  0.503169  -0.289535
    C   C12  0.422509  0.968876  0.496831  -0.289958
    C   C13  0.499732  0.080695  0.500735  1.720834
    C   C14  0.500268  0.919305  0.499266  1.721279
    C   C15  0.499563  0.172010  0.501386  -0.932731
    C   C16  0.500437  0.827990  0.498614  -0.932855
    C   C17  0.515245  0.500362  0.261370  -0.398162
    C   C18  0.484754  0.499639  0.738630  -0.398400
    C   C19  0.443432  0.497479  0.217417  0.167501
    C   C20  0.556568  0.502521  0.782583  0.167565
    C   C21  0.448287  0.497883  0.136833  -0.384434
    C   C22  0.551713  0.502117  0.863167  -0.384405
    C   C23  0.525786  0.501472  0.099228  0.599296
    C   C24  0.474214  0.498528  0.900772  0.599190
    C   C25  0.597233  0.504983  0.143218  -0.372901
    C   C26  0.402766  0.495018  0.856782  -0.372839
    C   C27  0.592281  0.504564  0.223699  0.338610
    C   C28  0.407718  0.495436  0.776301  0.338770
    N   N1   0.534201  0.501869  0.016774  -0.214226
    N   N2   0.465799  0.498131  0.983226  -0.214196
    H   H1   0.617602  0.504968  0.754718  0.045609
    H   H2   0.382398  0.495032  0.245282  0.045692
    H   H3   0.609882  0.504592  0.894482  0.119524
    H   H4   0.390118  0.495408  0.105518  0.119528
    H   H5   0.649519  0.507732  0.256347  -0.043718
    H   H6   0.350481  0.492268  0.743654  -0.043809
    N   N3   0.279521  0.489815  0.490890  0.031211
    N   N4   0.720479  0.510186  0.509110  0.031007
    C   C29  0.232901  0.540572  0.536237  0.006737
    C   C30  0.767099  0.459428  0.463763  0.007040
    C   C31  0.146768  0.537047  0.533092  -0.159852
    C   C32  0.853232  0.462953  0.466908  -0.159962
    C   C33  0.105858  0.481652  0.483583  0.621003
    C   C34  0.894142  0.518349  0.516417  0.620989
    C   C35  0.152846  0.430908  0.438230  -0.362532
    C   C36  0.847154  0.569092  0.561770  -0.362578
    C   C37  0.238830  0.435032  0.441934  0.079699
    C   C38  0.761170  0.564968  0.558066  0.079725
    N   N5   0.017744  0.475332  0.477938  -0.197075
    N   N6   0.982256  0.524668  0.522062  -0.196942
    H   H7   0.886098  0.420864  0.429308  -0.011650
    H   H8   0.113901  0.579136  0.570692  -0.011705
    I   I1   0.408383  0.070937  0.333007  0.042749
    I   I2   0.591616  0.929063  0.666993  0.042764
    I   I3   0.092865  0.345326  0.361748  0.035324
    I   I4   0.907135  0.654674  0.638252  0.035317
    I   I5   0.297559  0.350490  0.366509  0.143877
    I   I6   0.702441  0.649511  0.633491  0.143987
    I   I7   0.611216  0.933584  0.339257  0.016230
    I   I8   0.388784  0.066416  0.660743  0.016157
    I   I9   0.298054  0.915888  0.491714  -0.021157
    I   I10  0.701945  0.084112  0.508287  -0.021286
    I   I11  0.715013  0.511036  0.086802  -0.022260
    I   I12  0.284987  0.488965  0.913198  -0.022261
    I   I13  0.717841  0.369958  0.383926  0.109345
    I   I14  0.282159  0.630043  0.616074  0.109597
