data_DB0-m3_o12_o29_f0_pcu.sym.82_repeat
_audit_creation_date              2024-02-23
_audit_creation_method            'Materials Studio'
_symmetry_space_group_name_H-M    'P1'
_symmetry_Int_Tables_number       1
_symmetry_cell_setting            triclinic
loop_
_symmetry_equiv_pos_as_xyz
  x,y,z
_cell_length_a                    10.0039
_cell_length_b                    11.2492
_cell_length_c                    27.6549
_cell_angle_alpha                 89.9796
_cell_angle_beta                  80.7834
_cell_angle_gamma                 92.4460
loop_
_atom_site_label
_atom_site_type_symbol
_atom_site_fract_x
_atom_site_fract_y
_atom_site_fract_z
_atom_site_U_iso_or_equiv
_atom_site_adp_type
_atom_site_occupancy
O1     O     0.42393   0.69501   0.50461   0.00000  Uiso   1.00
O2     O     0.57339   0.31377   0.49537   0.00000  Uiso   1.00
O3     O     0.65349   0.66401   0.49059   0.00000  Uiso   1.00
O4     O     0.34384   0.34477   0.50950   0.00000  Uiso   1.00
C1     C     0.55093   0.73436   0.49686   0.00000  Uiso   1.00
C2     C     0.44639   0.27441   0.50318   0.00000  Uiso   1.00
O5     O     0.38644   0.51975   0.57894   0.00000  Uiso   1.00
O6     O     0.61094   0.48921   0.42109   0.00000  Uiso   1.00
O7     O     0.61582   0.48869   0.56492   0.00000  Uiso   1.00
O8     O     0.38146   0.51992   0.43512   0.00000  Uiso   1.00
C3     C     0.50167   0.50422   0.59455   0.00000  Uiso   1.00
C4     C     0.49567   0.50459   0.40549   0.00000  Uiso   1.00
Zn1    Zn    0.34739   0.52500   0.50930   0.00000  Uiso   1.00
Zn2    Zn    0.64994   0.48378   0.49073   0.00000  Uiso   1.00
C5     C     0.57947   0.58943   0.81892   0.00000  Uiso   1.00
C6     C     0.43537   0.40958   0.18032   0.00000  Uiso   1.00
O9     O     0.64864   0.67287   0.78901   0.00000  Uiso   1.00
O10    O     0.37957   0.31932   0.20961   0.00000  Uiso   1.00
N1     N     0.50473   0.50548   0.79932   0.00000  Uiso   1.00
N2     N     0.49323   0.50295   0.20080   0.00000  Uiso   1.00
C7     C     0.42969   0.42246   0.82781   0.00000  Uiso   1.00
C8     C     0.55197   0.59512   0.17328   0.00000  Uiso   1.00
C9     C     0.38523   0.52099   0.72968   0.00000  Uiso   1.00
C10    C     0.37334   0.50856   0.28458   0.00000  Uiso   1.00
C11    C     0.38436   0.52071   0.67988   0.00000  Uiso   1.00
C12    C     0.37382   0.50956   0.33443   0.00000  Uiso   1.00
C13    C     0.62184   0.48851   0.66570   0.00000  Uiso   1.00
C14    C     0.61494   0.49917   0.32010   0.00000  Uiso   1.00
C15    C     0.62244   0.48900   0.71554   0.00000  Uiso   1.00
C16    C     0.61422   0.49930   0.27029   0.00000  Uiso   1.00
C17    C     0.50418   0.50524   0.74773   0.00000  Uiso   1.00
C18    C     0.49351   0.50358   0.25236   0.00000  Uiso   1.00
C19    C     0.50400   0.50611   0.89907   0.00000  Uiso   1.00
C20    C     0.49556   0.50149   0.10103   0.00000  Uiso   1.00
C21    C     0.58119   0.59110   0.86936   0.00000  Uiso   1.00
C22    C     0.43576   0.40670   0.12977   0.00000  Uiso   1.00
C23    C     0.65886   0.67512   0.89071   0.00000  Uiso   1.00
C24    C     0.37976   0.31066   0.10722   0.00000  Uiso   1.00
C25    C     0.42822   0.42187   0.87780   0.00000  Uiso   1.00
C26    C     0.55368   0.59567   0.12327   0.00000  Uiso   1.00
C27    C     0.50271   0.50443   0.64756   0.00000  Uiso   1.00
C28    C     0.49470   0.50451   0.35249   0.00000  Uiso   1.00
H1     H     0.71574   0.47535   0.64133   0.00000  Uiso   1.00
H2     H     0.71087   0.49536   0.33314   0.00000  Uiso   1.00
H3     H     0.71595   0.47548   0.72929   0.00000  Uiso   1.00
H4     H     0.70874   0.49473   0.24531   0.00000  Uiso   1.00
C29    C     0.56323   0.59637   0.02217   0.00000  Uiso   1.00
C30    C     0.42842   0.41571   0.97837   0.00000  Uiso   1.00
C31    C     0.43440   0.41033   0.02860   0.00000  Uiso   1.00
C32    C     0.57309   0.59291   0.97106   0.00000  Uiso   1.00
C33    C     0.49769   0.50272   0.05051   0.00000  Uiso   1.00
C34    C     0.50186   0.50493   0.94959   0.00000  Uiso   1.00
C35    C     0.61608   0.69238   0.04585   0.00000  Uiso   1.00
C36    C     0.34895   0.33457   0.95615   0.00000  Uiso   1.00
C37    C     0.61166   0.69148   0.09562   0.00000  Uiso   1.00
C38    C     0.34954   0.33761   0.90660   0.00000  Uiso   1.00
O11    O     0.60702   0.68786   0.19490   0.00000  Uiso   1.00
O12    O     0.35807   0.33839   0.80719   0.00000  Uiso   1.00
C39    C     0.65459   0.67479   0.94072   0.00000  Uiso   1.00
C40    C     0.38020   0.31322   0.05742   0.00000  Uiso   1.00
H5     H     0.27842   0.51366   0.35889   0.00000  Uiso   1.00
H6     H     0.28985   0.53361   0.66679   0.00000  Uiso   1.00
H7     H     0.27838   0.51275   0.27083   0.00000  Uiso   1.00
H8     H     0.29225   0.53479   0.75452   0.00000  Uiso   1.00
H9     H     0.65446   0.76792   0.11228   0.00000  Uiso   1.00
H10    H     0.28626   0.27263   0.89108   0.00000  Uiso   1.00
H11    H     0.65818   0.77293   0.02746   0.00000  Uiso   1.00
H12    H     0.28011   0.26900   0.97603   0.00000  Uiso   1.00
H13    H     0.72190   0.73797   0.95451   0.00000  Uiso   1.00
H14    H     0.34176   0.23406   0.04202   0.00000  Uiso   1.00
H15    H     0.62088   0.09940   0.49253   0.00000  Uiso   1.00
H16    H     0.37645   0.90937   0.50747   0.00000  Uiso   1.00
C41    C     0.58079   0.86314   0.49503   0.00000  Uiso   1.00
C42    C     0.41654   0.14564   0.50500   0.00000  Uiso   1.00
C43    C     0.48191   0.94023   0.50104   0.00000  Uiso   1.00
C44    C     0.51542   0.06855   0.49897   0.00000  Uiso   1.00
H17    H     0.31164   0.11302   0.51142   0.00000  Uiso   1.00
H18    H     0.68569   0.89576   0.48863   0.00000  Uiso   1.00
H19    H     0.11557   0.43266   0.46897   0.00000  Uiso   1.00
H20    H     0.88175   0.57609   0.53109   0.00000  Uiso   1.00
N3     N     0.84863   0.45596   0.47829   0.00000  Uiso   1.00
N4     N     0.14870   0.55282   0.52175   0.00000  Uiso   1.00
C45    C     0.92546   0.51360   0.50382   0.00000  Uiso   1.00
C46    C     0.07186   0.49516   0.49622   0.00000  Uiso   1.00
H21    H     0.10130   0.61097   0.54692   0.00000  Uiso   1.00
H22    H     0.89602   0.39781   0.45312   0.00000  Uiso   1.00
N5     N     0.74457   0.76052   0.86195   0.00000  Uiso   1.00
C47    C     0.70625   0.88255   0.86705   0.00000  Uiso   1.00
C48    C     0.80282   0.95688   0.89296   0.00000  Uiso   1.00
O13    O     0.93679   0.94217   0.87103   0.00000  Uiso   1.00
C49    C     0.96610   0.82550   0.88139   0.00000  Uiso   1.00
C50    C     0.88717   0.73828   0.85381   0.00000  Uiso   1.00
H23    H     0.60216   0.88607   0.88792   0.00000  Uiso   1.00
H24    H     0.70693   0.92104   0.83008   0.00000  Uiso   1.00
H25    H     0.78776   0.93570   0.93263   0.00000  Uiso   1.00
H26    H     0.77947   0.05171   0.88953   0.00000  Uiso   1.00
H27    H     0.94574   0.80674   0.92128   0.00000  Uiso   1.00
H28    H     0.07573   0.81376   0.86898   0.00000  Uiso   1.00
H29    H     0.90231   0.64644   0.86583   0.00000  Uiso   1.00
H30    H     0.92661   0.74685   0.81408   0.00000  Uiso   1.00
N6     N     0.32402   0.20862   0.13433   0.00000  Uiso   1.00
C51    C     0.17942   0.18723   0.13878   0.00000  Uiso   1.00
C52    C     0.14334   0.07965   0.10965   0.00000  Uiso   1.00
O14    O     0.21445   0.98166   0.12068   0.00000  Uiso   1.00
C53    C     0.35044   0.00765   0.10164   0.00000  Uiso   1.00
C54    C     0.40728   0.10659   0.13056   0.00000  Uiso   1.00
H31    H     0.13291   0.26659   0.12584   0.00000  Uiso   1.00
H32    H     0.13690   0.17167   0.17793   0.00000  Uiso   1.00
H33    H     0.16129   0.09918   0.06983   0.00000  Uiso   1.00
H34    H     0.03330   0.05809   0.12017   0.00000  Uiso   1.00
H35    H     0.36380   0.03071   0.06217   0.00000  Uiso   1.00
H36    H     0.40860   0.92716   0.10506   0.00000  Uiso   1.00
H37    H     0.51133   0.13299   0.11239   0.00000  Uiso   1.00
H38    H     0.41234   0.07306   0.16791   0.00000  Uiso   1.00
