# Generated by REPEAT Assigner based on pymatgen
data_DB0-m3_o160_o49_f0_fsc.sym.25
_audit_creation_date              2022-05-24
_audit_creation_method            REPEAT_Assigner
_cell_length_a                    13.404223
_cell_length_b                    8.551568
_cell_length_c                    10.822473
_cell_angle_alpha                 90.000000
_cell_angle_beta                  90.517119
_cell_angle_gamma                 90.000000
_cell_volume                      1240.498360
_symmetry_space_group_name_H-M    P1
_symmetry_Int_Tables_number       1
loop_
    _symmetry_equiv_pos_site_id
    _symmetry_equiv_pos_as_xyz
    1  x,y,z
loop_
    _atom_site_type_symbol
    _atom_site_label
    _atom_site_fract_x
    _atom_site_fract_y
    _atom_site_fract_z
    _atom_type_partial_charge
    C   C1   0.979641  0.002161  0.684041  -0.242285
    C   C2   0.981975  0.862058  0.745307  -0.109096
    C   C3   0.994889  0.141259  0.744208  -0.050631
    C   C4   0.984657  0.862185  0.873068  0.125725
    C   C5   0.004890  0.141480  0.871507  0.126193
    C   C6   0.972347  0.725161  0.938104  -0.119313
    C   C7   0.021198  0.279138  0.934776  -0.166914
    C   C8   0.974817  0.726090  0.065304  -0.212016
    C   C9   0.023783  0.280070  0.061949  -0.218717
    C   C10  0.996132  0.002265  0.936125  -0.057632
    C   C11  0.000294  0.002886  0.063930  0.106161
    C   C12  0.991519  0.863677  0.128563  0.057759
    C   C13  0.011823  0.142973  0.126975  0.082902
    C   C14  0.001913  0.863884  0.255837  -0.167754
    C   C15  0.014872  0.143088  0.254709  -0.194241
    C   C16  0.017436  0.002967  0.315943  -0.105100
    H   H1   0.956826  0.617447  0.890183  0.065454
    H   H2   0.033234  0.386739  0.885568  0.150052
    H   H3   0.962412  0.618552  0.114519  0.124030
    H   H4   0.039125  0.387879  0.109829  0.103351
    H   H5   0.967183  0.002623  0.586562  0.177913
    H   H6   0.030217  0.002481  0.413364  0.110239
    O   O1   0.912663  0.668526  0.368120  -0.725181
    O   O2   0.920620  0.330989  0.367422  -0.769505
    O   O3   0.084537  0.670474  0.376578  -0.737783
    O   O4   0.092410  0.343930  0.375137  -0.748080
    C   C17  0.999497  0.722017  0.331806  0.912484
    C   C18  0.009213  0.285385  0.330315  0.993039
    O   O5   0.076351  0.674523  0.632374  -0.631163
    O   O6   0.084342  0.336598  0.632065  -0.587441
    O   O7   0.904578  0.661145  0.624883  -0.716243
    O   O8   0.912364  0.334697  0.623460  -0.681892
    C   C19  0.987747  0.719780  0.669704  0.837720
    C   C20  0.997420  0.283150  0.668278  0.718690
    Zn  Zn1  0.109489  0.507511  0.507785  0.930939
    Zn  Zn2  0.887226  0.497588  0.492276  1.068182
    C   C21  0.707531  0.480576  0.593162  -0.360756
    N   N1   0.756560  0.490237  0.485588  0.207465
    C   C22  0.705767  0.503327  0.378514  -0.199662
    C   C23  0.602755  0.506963  0.377510  -0.042132
    C   C24  0.550315  0.497849  0.487758  -0.334397
    C   C25  0.604873  0.483478  0.595865  0.761064
    C   C26  0.385699  0.520271  0.390946  -0.306038
    C   C27  0.446175  0.503575  0.494353  0.410738
    C   C28  0.400621  0.492104  0.608478  -0.186922
    C   C29  0.459219  0.477294  0.713859  0.317625
    N   N2   0.559036  0.473894  0.705436  -0.671847
    C   C30  0.283827  0.525035  0.402841  -0.043065
    N   N3   0.240314  0.514885  0.514151  0.104460
    C   C31  0.296984  0.496776  0.616949  -0.011842
    H   H7   0.745733  0.512620  0.292520  0.172585
    H   H8   0.426960  0.470147  0.804682  0.091068
    H   H9   0.567237  0.517905  0.288565  0.121434
    H   H10  0.413923  0.529046  0.298658  0.177418
    H   H11  0.748773  0.472733  0.679170  0.188718
    H   H12  0.238705  0.533730  0.320020  0.170928
    C   C32  0.249125  0.477362  0.737114  0.623291
    O   O9   0.250142  0.349975  0.787720  -0.482729
    O   O10  0.211036  0.606519  0.798906  -0.547994
    H   H13  0.184803  0.573913  0.882415  0.390748
