# Generated by REPEAT Assigner based on pymatgen
data_DB0-m3_o11_o14_f0_nbo.sym.126_sqe
_audit_creation_date              2022-05-24
_audit_creation_method            REPEAT_Assigner
_cell_length_a                    19.109031
_cell_length_b                    19.110751
_cell_length_c                    19.150416
_cell_angle_alpha                 70.657250
_cell_angle_beta                  70.145988
_cell_angle_gamma                 109.135310
_cell_volume                      5388.844674
_symmetry_space_group_name_H-M    P1
_symmetry_Int_Tables_number       1
loop_
    _symmetry_equiv_pos_site_id
    _symmetry_equiv_pos_as_xyz
    1  x,y,z
loop_
    _atom_site_type_symbol
    _atom_site_label
    _atom_site_fract_x
    _atom_site_fract_y
    _atom_site_fract_z
    _atom_type_partial_charge
    O   O1   0.902213  0.865261  0.521375  -0.657594
    O   O2   0.904167  0.974312  0.419649  -0.686939
    C   C1   0.874714  0.893041  0.469784  0.686917
    O   O3   0.904775  0.945991  0.617725  -0.661684
    O   O4   0.904071  0.055940  0.520555  -0.690508
    C   C2   0.874624  0.997818  0.599225  0.670440
    Zn  Zn1  0.996112  0.936623  0.535092  1.252741
    Zn  Zn2  0.992265  0.078558  0.408019  1.301136
    O   O5   0.085467  0.041166  0.521944  -0.637631
    O   O6   0.084669  0.149667  0.423517  -0.681838
    O   O7   0.082548  0.957613  0.422658  -0.687956
    O   O8   0.084787  0.070271  0.325347  -0.676118
    C   C3   0.114864  0.122565  0.472328  0.713586
    C   C4   0.110981  0.014749  0.344036  0.698433
    H   H1   0.862938  0.122969  0.621641  0.156449
    C   C5   0.719684  0.835303  0.729544  -0.275420
    H   H2   0.761904  0.836567  0.674329  0.175349
    C   C6   0.651588  0.756823  0.795667  -0.063140
    H   H3   0.643957  0.699897  0.791721  0.093349
    C   C7   0.594227  0.750607  0.867203  -0.060960
    H   H4   0.542054  0.688668  0.920197  0.090083
    C   C8   0.602168  0.823232  0.870949  -0.269320
    H   H5   0.556233  0.814571  0.929218  0.180107
    C   C9   0.668278  0.903481  0.802860  0.145970
    C   C10  0.731046  0.909141  0.733941  0.145245
    C   C11  0.802741  0.988561  0.669440  -0.027640
    C   C12  0.807944  0.061239  0.671637  -0.164237
    H   H6   0.749552  0.114171  0.737541  0.150687
    C   C13  0.744361  0.055974  0.737956  -0.187963
    C   C14  0.674115  0.977949  0.803500  -0.014475
    C   C15  0.682899  0.689762  0.536949  -0.069543
    C   C16  0.694666  0.680421  0.468576  -0.151526
    H   H7   0.622791  0.645917  0.596834  0.134319
    H   H8   0.757480  0.717195  0.411598  0.127559
    C   C17  0.753114  0.752388  0.536050  -0.136746
    C   C18  0.807319  0.830425  0.468120  -0.145820
    H   H9   0.756051  0.736502  0.594440  0.155493
    H   H10  0.798643  0.850113  0.413142  0.127761
    C   C19  0.236213  0.940338  0.214589  -0.104167
    C   C20  0.316408  0.004809  0.161081  -0.139916
    H   H11  0.217378  0.881188  0.212872  0.139150
    H   H12  0.338334  0.060224  0.168803  0.119265
    C   C21  0.175603  0.943331  0.284053  -0.074869
    C   C22  0.173447  0.015131  0.273497  -0.172180
    H   H13  0.128284  0.883986  0.343573  0.140661
    H   H14  0.213676  0.072762  0.211407  0.131880
    C   C23  0.323733  0.258937  0.458000  -0.163012
    C   C24  0.308077  0.303788  0.496076  -0.167098
    H   H15  0.388893  0.272107  0.423939  0.152281
    H   H16  0.243012  0.287453  0.536380  0.119555
    C   C25  0.255591  0.186726  0.465443  0.135526
    C   C26  0.183495  0.187479  0.471558  -0.243116
    H   H17  0.178378  0.243457  0.466749  0.128026
    O   O9   0.552859  0.133035  0.889809  -0.618673
    O   O10  0.447098  0.030493  0.889940  -0.690100
    C   C27  0.502376  0.110153  0.859632  0.692037
    O   O11  0.633291  0.033009  0.895458  -0.694291
    O   O12  0.526451  0.929349  0.897897  -0.660731
    C   C28  0.607702  0.978487  0.870220  0.655422
    Zn  Zn3  0.563622  0.055619  0.982836  1.269768
    Zn  Zn4  0.422833  0.921919  0.984235  1.288829
    O   O13  0.537897  0.947014  0.078684  -0.670735
    O   O14  0.434697  0.844439  0.076031  -0.679770
    O   O15  0.460477  0.050133  0.067282  -0.684157
    O   O16  0.353192  0.943726  0.072624  -0.679669
    C   C29  0.484334  0.866987  0.106799  0.696551
    C   C30  0.379500  0.998913  0.097200  0.697455
    O   O17  0.456425  0.588543  0.437228  -0.696492
    O   O18  0.550741  0.575507  0.335596  -0.681380
    C   C31  0.504301  0.610134  0.357524  0.725372
    O   O19  0.545787  0.588486  0.527805  -0.670422
    O   O20  0.644767  0.583981  0.421310  -0.690751
    C   C32  0.624841  0.614630  0.472535  0.691267
    Zn  Zn5  0.436705  0.499970  0.546903  1.291493
    Zn  Zn6  0.566972  0.488519  0.413672  1.290158
    O   O21  0.451579  0.411715  0.625218  -0.680757
    O   O22  0.549295  0.401911  0.523193  -0.702504
    O   O23  0.358974  0.405852  0.537712  -0.700780
    O   O24  0.457737  0.398358  0.434570  -0.680493
    C   C33  0.501075  0.379924  0.602940  0.724277
    C   C34  0.378515  0.372930  0.488723  0.727555
    C   C35  0.566595  0.299018  0.651854  -0.162535
    C   C36  0.504617  0.319335  0.670700  -0.167363
    H   H18  0.616267  0.329607  0.585798  0.160984
    H   H19  0.459012  0.295874  0.736536  0.114577
    C   C37  0.574539  0.241148  0.718351  0.139930
    C   C38  0.503456  0.175538  0.791499  -0.225539
    H   H20  0.441476  0.163431  0.798087  0.130737
    C   C39  0.495664  0.739327  0.298911  -0.084905
    C   C40  0.508625  0.677919  0.288812  -0.168508
    H   H21  0.484422  0.740771  0.357698  0.138592
    H   H22  0.530094  0.681516  0.226948  0.124516
    C   C41  0.505101  0.810680  0.228429  -0.080351
    C   C42  0.479423  0.798067  0.174908  -0.175940
    H   H23  0.527257  0.872579  0.224455  0.135897
    H   H24  0.448530  0.734245  0.184626  0.131008
    C   C43  0.278012  0.122162  0.451421  -0.261206
    C   C44  0.287114  0.070693  0.524578  0.571441
    C   C45  0.200808  0.011632  0.606628  -0.366752
    C   C46  0.324717  0.017832  0.500811  -0.418912
    H   H25  0.340638  0.157788  0.391447  0.052106
    H   H26  0.232421  0.078428  0.442054  0.105823
    H   H27  0.331085  0.114356  0.535732  -0.086701
    H   H28  0.156689  0.965836  0.597373  0.085433
    H   H29  0.172546  0.048962  0.625906  0.061185
    H   H30  0.209475  0.975404  0.658643  0.058514
    H   H31  0.282614  0.974402  0.487924  0.072999
    H   H32  0.330597  0.979503  0.554172  0.088413
    H   H33  0.389269  0.060611  0.442852  0.071162
    C   C47  0.662280  0.251286  0.694209  -0.315678
    C   C48  0.722896  0.335608  0.681524  0.582648
    C   C49  0.697259  0.335050  0.766066  -0.366183
    C   C50  0.813426  0.349788  0.643559  -0.439119
    H   H34  0.687731  0.251500  0.632735  0.057150
    H   H35  0.662052  0.198146  0.740660  0.141086
    H   H36  0.721956  0.389132  0.636501  -0.089323
    H   H37  0.699494  0.282857  0.811343  0.079522
    H   H38  0.631869  0.326477  0.794237  0.060423
    H   H39  0.742560  0.396883  0.754995  0.060665
    H   H40  0.815938  0.296378  0.686850  0.085249
    H   H41  0.857812  0.410657  0.634881  0.091394
    H   H42  0.833866  0.353376  0.580329  0.078530
