# Generated by REPEAT Assigner based on pymatgen
data_DB0-m3_o10_o11_f0_pcu.sym.66_sqe
_audit_creation_date              2022-05-24
_audit_creation_method            REPEAT_Assigner
_cell_length_a                    7.826793
_cell_length_b                    8.971928
_cell_length_c                    11.060771
_cell_angle_alpha                 89.994692
_cell_angle_beta                  83.963427
_cell_angle_gamma                 91.448515
_cell_volume                      772.146483
_symmetry_space_group_name_H-M    P1
_symmetry_Int_Tables_number       1
loop_
    _symmetry_equiv_pos_site_id
    _symmetry_equiv_pos_as_xyz
    1  x,y,z
loop_
    _atom_site_type_symbol
    _atom_site_label
    _atom_site_fract_x
    _atom_site_fract_y
    _atom_site_fract_z
    _atom_type_partial_charge
    O   O1   0.391011  0.734196  0.512409  -0.611610
    O   O2   0.684865  0.711158  0.489991  -0.661831
    C   C1   0.547723  0.792250  0.503245  0.752329
    O   O3   0.362197  0.502653  0.687934  -0.692459
    O   O4   0.655986  0.481330  0.667617  -0.630672
    C   C2   0.508117  0.489954  0.734148  0.814777
    Zn  Zn1  0.316097  0.516066  0.511571  1.028520
    Zn  Zn2  0.705394  0.486647  0.483974  0.984808
    O   O5   0.335183  0.291376  0.502984  -0.669472
    O   O6   0.630678  0.268798  0.482291  -0.578502
    O   O7   0.363735  0.519783  0.328099  -0.695832
    O   O8   0.660128  0.496677  0.306991  -0.665098
    C   C3   0.473702  0.210564  0.492092  0.786116
    C   C4   0.512287  0.510843  0.261619  0.787540
    C   C5   0.649156  0.488142  0.054121  -0.085393
    C   C6   0.508933  0.514250  0.129805  -0.287165
    H   H1   0.769040  0.468605  0.091765  0.110212
    H   H2   0.387582  0.538623  0.097243  0.155793
    C   C7   0.648066  0.487069  0.920612  0.107343
    C   C8   0.503275  0.486455  0.866564  -0.413721
    H   H3   0.770091  0.485124  0.864434  0.096426
    H   H4   0.377999  0.483307  0.917536  0.190590
    C   C9   0.574379  0.954649  0.511627  -0.127163
    C   C10  0.449701  0.047211  0.490506  -0.324011
    H   H5   0.326266  0.000583  0.471478  0.143742
    N   N1   0.961827  0.468853  0.465762  -0.128663
    H   H6   0.021859  0.388652  0.411315  0.265067
    N   N2   0.060472  0.534919  0.531681  -0.006191
    C   C11  0.741775  0.012156  0.549527  0.066348
    C   C12  0.712672  0.093002  0.670334  0.134466
    C   C13  0.864844  0.196014  0.686023  -0.214464
    H   H7   0.985254  0.132821  0.673390  0.014751
    H   H8   0.870515  0.286448  0.617555  0.055658
    H   H9   0.849834  0.244988  0.778462  0.037291
    H   H10  0.593968  0.158197  0.676344  -0.005783
    H   H11  0.699034  0.009315  0.744740  -0.050367
    H   H12  0.823254  0.917131  0.564464  0.005071
    H   H13  0.813949  0.081601  0.477723  0.016885
    C   C14  0.996489  0.663287  0.598057  0.023684
    C   C15  0.078619  0.677997  0.715764  0.199010
    C   C16  0.977315  0.784909  0.799659  -0.381847
    H   H14  0.973613  0.894484  0.754004  0.136087
    H   H15  0.844372  0.740400  0.822459  0.079170
    H   H16  0.040213  0.798595  0.884396  0.074642
    H   H17  0.077549  0.567540  0.760843  0.006341
    H   H18  0.211634  0.723070  0.697006  0.001044
    H   H19  0.030229  0.763874  0.541850  0.076817
    H   H20  0.859324  0.652857  0.624081  0.079716
