data_DB0-m3_o1_o29_f0_pcu_repeat
_audit_creation_date              2024-02-23
_audit_creation_method            'Materials Studio'
_symmetry_space_group_name_H-M    'P1'
_symmetry_Int_Tables_number       1
_symmetry_cell_setting            triclinic
loop_
_symmetry_equiv_pos_as_xyz
  x,y,z
_cell_length_a                    27.7910
_cell_length_b                    9.7610
_cell_length_c                    10.9517
_cell_angle_alpha                 90.0000
_cell_angle_beta                  90.0020
_cell_angle_gamma                 90.0000
loop_
_atom_site_label
_atom_site_type_symbol
_atom_site_fract_x
_atom_site_fract_y
_atom_site_fract_z
_atom_site_U_iso_or_equiv
_atom_site_adp_type
_atom_site_occupancy
O1     O     0.07213   0.11664   0.99821   0.00000  Uiso   1.00
O2     O     0.92801   0.88332   0.00097   0.00000  Uiso   1.00
O3     O     0.92800   0.11680   0.99903   0.00000  Uiso   1.00
O4     O     0.07214   0.88318   0.00145   0.00000  Uiso   1.00
C1     C     0.09569   0.99991   0.99979   0.00000  Uiso   1.00
C2     C     0.90444   0.00006   0.00002   0.00000  Uiso   1.00
O5     O     0.00011   0.11662   0.18099   0.00000  Uiso   1.00
O6     O     0.00017   0.88333   0.81879   0.00000  Uiso   1.00
O7     O     0.99995   0.11695   0.81826   0.00000  Uiso   1.00
O8     O     0.99996   0.88302   0.18152   0.00000  Uiso   1.00
C3     C     0.99999   0.99994   0.24048   0.00000  Uiso   1.00
C4     C     0.00002   0.00002   0.75929   0.00000  Uiso   1.00
Zn1    Zn    0.00007   0.15341   0.99944   0.00000  Uiso   1.00
Zn2    Zn    0.00008   0.84657   0.00041   0.00000  Uiso   1.00
C5     C     0.97046   0.57092   0.92527   0.00000  Uiso   1.00
C6     C     0.02972   0.42906   0.07510   0.00000  Uiso   1.00
C7     C     0.02973   0.57059   0.07531   0.00000  Uiso   1.00
C8     C     0.97044   0.42941   0.92504   0.00000  Uiso   1.00
H1     H     0.94654   0.62608   0.86495   0.00000  Uiso   1.00
H2     H     0.05356   0.37389   0.13564   0.00000  Uiso   1.00
H3     H     0.05360   0.62552   0.13595   0.00000  Uiso   1.00
H4     H     0.94650   0.37450   0.86462   0.00000  Uiso   1.00
N1     N     0.00011   0.35988   0.99984   0.00000  Uiso   1.00
N2     N     0.00012   0.64011   0.00033   0.00000  Uiso   1.00
C9     C     0.99991   0.87758   0.56268   0.00000  Uiso   1.00
C10    C     0.99990   0.12238   0.43704   0.00000  Uiso   1.00
C11    C     0.99990   0.87765   0.43703   0.00000  Uiso   1.00
C12    C     0.99991   0.12232   0.56269   0.00000  Uiso   1.00
H5     H     0.99991   0.78064   0.61031   0.00000  Uiso   1.00
H6     H     0.99991   0.21931   0.38939   0.00000  Uiso   1.00
H7     H     0.99991   0.78073   0.38935   0.00000  Uiso   1.00
H8     H     0.99992   0.21924   0.61036   0.00000  Uiso   1.00
C13    C     0.99993   0.00004   0.37377   0.00000  Uiso   1.00
C14    C     0.99995   0.99992   0.62596   0.00000  Uiso   1.00
C15    C     0.32426   0.96843   0.10279   0.00000  Uiso   1.00
C16    C     0.67567   0.04148   0.90009   0.00000  Uiso   1.00
O9     O     0.29963   0.93953   0.20519   0.00000  Uiso   1.00
O10    O     0.70025   0.08007   0.80016   0.00000  Uiso   1.00
N3     N     0.30010   0.99995   0.99990   0.00000  Uiso   1.00
N4     N     0.69988   0.00008   0.00015   0.00000  Uiso   1.00
C17    C     0.32427   0.03146   0.89704   0.00000  Uiso   1.00
C18    C     0.67566   0.95864   0.10017   0.00000  Uiso   1.00
C19    C     0.22355   0.88038   0.02203   0.00000  Uiso   1.00
C20    C     0.77652   0.12088   0.98419   0.00000  Uiso   1.00
C21    C     0.17384   0.88001   0.02111   0.00000  Uiso   1.00
C22    C     0.82624   0.12113   0.98501   0.00000  Uiso   1.00
C23    C     0.17383   0.11984   0.97850   0.00000  Uiso   1.00
C24    C     0.82624   0.87901   0.01514   0.00000  Uiso   1.00
C25    C     0.22354   0.11951   0.97767   0.00000  Uiso   1.00
C26    C     0.77652   0.87928   0.01606   0.00000  Uiso   1.00
C27    C     0.24864   0.99995   0.99988   0.00000  Uiso   1.00
C28    C     0.75138   0.00009   0.00016   0.00000  Uiso   1.00
C29    C     0.39961   0.99999   0.99996   0.00000  Uiso   1.00
C30    C     0.60031   0.99999   0.00007   0.00000  Uiso   1.00
C31    C     0.37415   0.96859   0.10409   0.00000  Uiso   1.00
C32    C     0.62577   0.04150   0.89882   0.00000  Uiso   1.00
C33    C     0.39866   0.93905   0.20971   0.00000  Uiso   1.00
C34    C     0.60125   0.08367   0.79666   0.00000  Uiso   1.00
C35    C     0.37417   0.03139   0.89580   0.00000  Uiso   1.00
C36    C     0.62576   0.95852   0.10137   0.00000  Uiso   1.00
C37    C     0.14863   0.99992   0.99980   0.00000  Uiso   1.00
C38    C     0.85147   0.00007   0.00007   0.00000  Uiso   1.00
H9     H     0.15503   0.21482   0.96123   0.00000  Uiso   1.00
H10    H     0.84502   0.78302   0.02714   0.00000  Uiso   1.00
H11    H     0.24277   0.21395   0.96104   0.00000  Uiso   1.00
H12    H     0.75731   0.78383   0.02766   0.00000  Uiso   1.00
H13    H     0.37978   0.91646   0.29353   0.00000  Uiso   1.00
H14    H     0.62012   0.11864   0.71625   0.00000  Uiso   1.00
C39    C     0.52521   0.96100   0.10461   0.00000  Uiso   1.00
C40    C     0.47471   0.03418   0.89410   0.00000  Uiso   1.00
C41    C     0.52522   0.03896   0.89545   0.00000  Uiso   1.00
C42    C     0.47469   0.96583   0.10592   0.00000  Uiso   1.00
C43    C     0.55008   0.99996   0.00004   0.00000  Uiso   1.00
C44    C     0.44984   0.99999   0.99999   0.00000  Uiso   1.00
C45    C     0.55182   0.91701   0.20530   0.00000  Uiso   1.00
C46    C     0.44809   0.06195   0.78890   0.00000  Uiso   1.00
C47    C     0.60123   0.91632   0.20348   0.00000  Uiso   1.00
C48    C     0.39869   0.06110   0.79024   0.00000  Uiso   1.00
O11    O     0.70022   0.92010   0.20014   0.00000  Uiso   1.00
O12    O     0.29965   0.06025   0.79460   0.00000  Uiso   1.00
C49    C     0.44806   0.93817   0.21111   0.00000  Uiso   1.00
C50    C     0.55185   0.08295   0.79479   0.00000  Uiso   1.00
H15    H     0.84502   0.21711   0.97293   0.00000  Uiso   1.00
H16    H     0.15505   0.78500   0.03832   0.00000  Uiso   1.00
H17    H     0.75732   0.21633   0.97259   0.00000  Uiso   1.00
H18    H     0.24279   0.78597   0.03868   0.00000  Uiso   1.00
H19    H     0.62009   0.88142   0.28393   0.00000  Uiso   1.00
H20    H     0.37982   0.08388   0.70642   0.00000  Uiso   1.00
H21    H     0.53604   0.87887   0.28803   0.00000  Uiso   1.00
H22    H     0.46386   0.08267   0.70138   0.00000  Uiso   1.00
H23    H     0.46382   0.91752   0.29867   0.00000  Uiso   1.00
H24    H     0.53609   0.12116   0.71207   0.00000  Uiso   1.00
