# Generated by REPEAT Assigner based on pymatgen
data_DB0-m3_o6_o29_f0_nbo
_audit_creation_date              2022-05-24
_audit_creation_method            REPEAT_Assigner
_cell_length_a                    32.575353
_cell_length_b                    32.575353
_cell_length_c                    55.646209
_cell_angle_alpha                 90.000000
_cell_angle_beta                  90.000000
_cell_angle_gamma                 90.000000
_cell_volume                      59049.176459
_symmetry_space_group_name_H-M    P1
_symmetry_Int_Tables_number       1
loop_
    _symmetry_equiv_pos_site_id
    _symmetry_equiv_pos_as_xyz
    1  x,y,z
loop_
    _atom_site_type_symbol
    _atom_site_label
    _atom_site_fract_x
    _atom_site_fract_y
    _atom_site_fract_z
    _atom_type_partial_charge
    O   O1    0.061613  0.465045  0.500175  -0.733500
    O   O2    0.534955  0.061613  0.500175  -0.733512
    O   O3    0.938387  0.534955  0.500175  -0.733506
    O   O4    0.465045  0.938387  0.500175  -0.733492
    O   O5    0.061613  0.534955  0.499825  -0.733510
    O   O6    0.534955  0.938387  0.499825  -0.733502
    O   O7    0.938387  0.465045  0.499825  -0.733493
    O   O8    0.465045  0.061613  0.499825  -0.733503
    O   O9    0.561613  0.965045  0.000175  -0.733457
    O   O10   0.034955  0.561613  0.000175  -0.733485
    O   O11   0.438387  0.034955  0.000175  -0.733513
    O   O12   0.965045  0.438387  0.000175  -0.733482
    O   O13   0.561613  0.034955  0.999825  -0.733484
    O   O14   0.034955  0.438387  0.999825  -0.733509
    O   O15   0.438387  0.965045  0.999825  -0.733486
    O   O16   0.965045  0.561613  0.999825  -0.733458
    C   C1    0.081683  0.500000  0.500000  0.876834
    C   C2    0.500000  0.081683  0.500000  0.876840
    C   C3    0.918317  0.500000  0.500000  0.876891
    C   C4    0.500000  0.918317  0.500000  0.876881
    C   C5    0.581683  0.000000  0.000000  0.876758
    C   C6    0.000000  0.581683  0.000000  0.876767
    C   C7    0.418317  0.000000  0.000000  0.876830
    C   C8    0.000000  0.418317  0.000000  0.876815
    O   O17   0.000388  0.465097  0.463940  -0.689684
    O   O18   0.534903  0.000388  0.463940  -0.689700
    O   O19   0.999612  0.534903  0.463940  -0.689680
    O   O20   0.465097  0.999612  0.463940  -0.689671
    O   O21   0.000388  0.534903  0.536060  -0.689701
    O   O22   0.534903  0.999612  0.536060  -0.689671
    O   O23   0.999612  0.465097  0.536060  -0.689663
    O   O24   0.465097  0.000388  0.536060  -0.689681
    O   O25   0.500388  0.965097  0.963940  -0.689684
    O   O26   0.034903  0.500388  0.963940  -0.689746
    O   O27   0.499612  0.034903  0.963940  -0.689722
    O   O28   0.965097  0.499612  0.963940  -0.689677
    O   O29   0.500388  0.034903  0.036060  -0.689716
    O   O30   0.034903  0.499612  0.036060  -0.689729
    O   O31   0.499612  0.965097  0.036060  -0.689703
    O   O32   0.965097  0.500388  0.036060  -0.689702
    C   C9    0.000000  0.500000  0.452123  0.616089
    C   C10   0.500000  0.000000  0.452123  0.616095
    C   C11   0.000000  0.500000  0.547877  0.616089
    C   C12   0.500000  0.000000  0.547877  0.616073
    C   C13   0.500000  0.000000  0.952123  0.616241
    C   C14   0.000000  0.500000  0.952123  0.616269
    C   C15   0.500000  0.000000  0.047877  0.616246
    C   C16   0.000000  0.500000  0.047877  0.616260
    Zn  Zn1   0.000000  0.454779  0.500000  1.365570
    Zn  Zn2   0.545221  0.000000  0.500000  1.365592
    Zn  Zn3   0.000000  0.545221  0.500000  1.365595
    Zn  Zn4   0.454779  0.000000  0.500000  1.365571
    Zn  Zn5   0.500000  0.954779  0.000000  1.365567
    Zn  Zn6   0.045221  0.500000  0.000000  1.365615
    Zn  Zn7   0.500000  0.045221  0.000000  1.365608
    Zn  Zn8   0.954779  0.500000  0.000000  1.365566
    C   C17   0.026996  0.525243  0.262584  0.050577
    C   C18   0.474757  0.026996  0.262584  0.050485
    C   C19   0.973004  0.474757  0.262584  0.050647
    C   C20   0.525243  0.973004  0.262584  0.050599
    C   C21   0.026996  0.474757  0.737416  0.050613
    C   C22   0.474757  0.973004  0.737416  0.050761
    C   C23   0.973003  0.525243  0.737416  0.050964
    C   C24   0.525243  0.026996  0.737416  0.050690
    C   C25   0.526996  0.025243  0.762584  0.050189
    C   C26   0.974757  0.526996  0.762584  0.050211
    C   C27   0.473004  0.974757  0.762584  0.050109
    C   C28   0.025243  0.473003  0.762584  0.050406
    C   C29   0.526996  0.974757  0.237416  0.050384
    C   C30   0.974757  0.473004  0.237416  0.050376
    C   C31   0.473004  0.025243  0.237416  0.050453
    C   C32   0.025243  0.526996  0.237416  0.050380
    C   C33   0.000000  0.500000  0.275008  0.001002
    C   C34   0.500000  0.000000  0.275008  0.001094
    C   C35   0.000000  0.500000  0.724992  0.000622
    C   C36   0.500000  0.000000  0.724992  0.000966
    C   C37   0.500000  0.000000  0.775008  0.001536
    C   C38   0.000000  0.500000  0.775008  0.001172
    C   C39   0.500000  0.000000  0.224992  0.001215
    C   C40   0.000000  0.500000  0.224992  0.001189
    C   C41   0.055454  0.547879  0.275780  -0.178051
    C   C42   0.452121  0.055454  0.275780  -0.178006
    C   C43   0.944546  0.452121  0.275780  -0.178006
    C   C44   0.547879  0.944546  0.275780  -0.178135
    C   C45   0.055454  0.452121  0.724220  -0.177662
    C   C46   0.452121  0.944546  0.724220  -0.178023
    C   C47   0.944546  0.547879  0.724220  -0.178210
    C   C48   0.547879  0.055454  0.724220  -0.178069
    C   C49   0.555454  0.047879  0.775780  -0.177913
    C   C50   0.952121  0.555454  0.775780  -0.177934
    C   C51   0.444546  0.952121  0.775780  -0.177871
    C   C52   0.047879  0.444546  0.775780  -0.177880
    C   C53   0.555454  0.952121  0.224220  -0.177967
    C   C54   0.952121  0.444546  0.224220  -0.177978
    C   C55   0.444546  0.047879  0.224220  -0.177962
    C   C56   0.047879  0.555454  0.224220  -0.177599
    C   C57   0.055707  0.546889  0.300457  -0.029238
    C   C58   0.453111  0.055707  0.300457  -0.029049
    C   C59   0.944293  0.453111  0.300457  -0.029136
    C   C60   0.546889  0.944293  0.300457  -0.028971
    C   C61   0.055707  0.453111  0.699543  -0.029336
    C   C62   0.453111  0.944293  0.699543  -0.029166
    C   C63   0.944293  0.546889  0.699543  -0.028962
    C   C64   0.546889  0.055707  0.699543  -0.029169
    C   C65   0.555707  0.046889  0.800457  -0.029229
    C   C66   0.953111  0.555707  0.800457  -0.029044
    C   C67   0.444293  0.953111  0.800457  -0.029148
    C   C68   0.046889  0.444293  0.800457  -0.029361
    C   C69   0.555707  0.953111  0.199543  -0.029190
    C   C70   0.953111  0.444293  0.199543  -0.029165
    C   C71   0.444293  0.046889  0.199543  -0.029140
    C   C72   0.046889  0.555707  0.199543  -0.029582
    C   C73   0.027626  0.523445  0.312753  -0.133227
    C   C74   0.476555  0.027626  0.312753  -0.133786
    C   C75   0.972374  0.476555  0.312753  -0.133576
    C   C76   0.523445  0.972374  0.312753  -0.133530
    C   C77   0.027626  0.476555  0.687247  -0.133765
    C   C78   0.476555  0.972374  0.687247  -0.133551
    C   C79   0.972374  0.523445  0.687247  -0.133561
    C   C80   0.523445  0.027626  0.687247  -0.133263
    C   C81   0.527626  0.023445  0.812753  -0.133357
    C   C82   0.976555  0.527626  0.812753  -0.133621
    C   C83   0.472374  0.976555  0.812753  -0.133491
    C   C84   0.023445  0.472374  0.812753  -0.133356
    C   C85   0.527626  0.976555  0.187247  -0.133411
    C   C86   0.976555  0.472374  0.187247  -0.133327
    C   C87   0.472374  0.023445  0.187247  -0.133587
    C   C88   0.023445  0.527626  0.187247  -0.133230
    C   C89   0.000000  0.500000  0.300067  0.134094
    C   C90   0.500000  0.000000  0.300067  0.134282
    C   C91   0.000000  0.500000  0.699933  0.134454
    C   C92   0.500000  0.000000  0.699933  0.134078
    C   C93   0.500000  0.000000  0.800067  0.133936
    C   C94   0.000000  0.500000  0.800067  0.134149
    C   C95   0.500000  0.000000  0.199933  0.134105
    C   C96   0.000000  0.500000  0.199933  0.133959
    C   C97   0.027589  0.522902  0.337673  0.443257
    C   C98   0.477098  0.027589  0.337673  0.443826
    C   C99   0.972411  0.477098  0.337673  0.443479
    C   C100  0.522902  0.972411  0.337673  0.443073
    C   C101  0.027589  0.477098  0.662327  0.443887
    C   C102  0.477098  0.972411  0.662327  0.443472
    C   C103  0.972411  0.522902  0.662327  0.443082
    C   C104  0.522902  0.027589  0.662327  0.443261
    C   C105  0.527589  0.022902  0.837673  0.443313
    C   C106  0.977098  0.527589  0.837673  0.443610
    C   C107  0.472411  0.977098  0.837673  0.443555
    C   C108  0.022902  0.472411  0.837673  0.443320
    C   C109  0.527589  0.977098  0.162327  0.443306
    C   C110  0.977098  0.472411  0.162327  0.443191
    C   C111  0.472411  0.022902  0.162327  0.443625
    C   C112  0.022902  0.527589  0.162327  0.443289
    N   N1    0.000000  0.500000  0.349818  -0.112859
    N   N2    0.500000  0.000000  0.349818  -0.112838
    N   N3    0.000000  0.500000  0.650182  -0.112913
    N   N4    0.500000  0.000000  0.650182  -0.112851
    N   N5    0.500000  0.000000  0.849818  -0.113100
    N   N6    0.000000  0.500000  0.849818  -0.113145
    N   N7    0.500000  0.000000  0.150182  -0.113133
    N   N8    0.000000  0.500000  0.150182  -0.112957
    H   H1    0.079260  0.566058  0.267706  0.139953
    H   H2    0.433942  0.079260  0.267706  0.139967
    H   H3    0.920740  0.433942  0.267706  0.139925
    H   H4    0.566058  0.920740  0.267706  0.139944
    H   H5    0.079260  0.433942  0.732294  0.139794
    H   H6    0.433942  0.920740  0.732294  0.139942
    H   H7    0.920740  0.566058  0.732294  0.140023
    H   H8    0.566058  0.079260  0.732294  0.139945
    H   H9    0.579260  0.066058  0.767706  0.139965
    H   H10   0.933942  0.579260  0.767706  0.139894
    H   H11   0.420740  0.933942  0.767706  0.139932
    H   H12   0.066058  0.420740  0.767706  0.139988
    H   H13   0.579260  0.933942  0.232294  0.139967
    H   H14   0.933942  0.420740  0.232294  0.139958
    H   H15   0.420740  0.066058  0.232294  0.139928
    H   H16   0.066058  0.579260  0.232294  0.139862
    H   H17   0.078391  0.564989  0.309846  0.127823
    H   H18   0.435011  0.078391  0.309846  0.127757
    H   H19   0.921609  0.435011  0.309846  0.127807
    H   H20   0.564989  0.921609  0.309846  0.127783
    H   H21   0.078391  0.435011  0.690154  0.127844
    H   H22   0.435011  0.921609  0.690154  0.127810
    H   H23   0.921609  0.564989  0.690154  0.127758
    H   H24   0.564989  0.078391  0.690154  0.127808
    H   H25   0.578391  0.064989  0.809846  0.127805
    H   H26   0.935011  0.578391  0.809846  0.127769
    H   H27   0.421609  0.935011  0.809846  0.127773
    H   H28   0.064989  0.421609  0.809846  0.127833
    H   H29   0.578391  0.935011  0.190154  0.127802
    H   H30   0.935011  0.421609  0.190154  0.127791
    H   H31   0.421609  0.064989  0.190154  0.127791
    H   H32   0.064989  0.578391  0.190154  0.127889
    O   O33   0.055805  0.544654  0.349848  -0.520456
    O   O34   0.455346  0.055805  0.349848  -0.520576
    O   O35   0.944194  0.455346  0.349848  -0.520378
    O   O36   0.544654  0.944194  0.349848  -0.520266
    O   O37   0.055805  0.455346  0.650152  -0.520588
    O   O38   0.455346  0.944194  0.650152  -0.520373
    O   O39   0.944194  0.544654  0.650152  -0.520250
    O   O40   0.544654  0.055805  0.650152  -0.520463
    O   O41   0.555806  0.044654  0.849848  -0.520342
    O   O42   0.955346  0.555805  0.849848  -0.520531
    O   O43   0.444195  0.955346  0.849848  -0.520515
    O   O44   0.044654  0.444194  0.849848  -0.520324
    O   O45   0.555806  0.955346  0.150152  -0.520335
    O   O46   0.955346  0.444194  0.150152  -0.520321
    O   O47   0.444195  0.044654  0.150152  -0.520530
    O   O48   0.044654  0.555806  0.150152  -0.520342
    O   O49   0.499998  0.561656  0.479532  -0.706940
    O   O50   0.438344  0.499998  0.479532  -0.706968
    O   O51   0.500002  0.438344  0.479532  -0.706966
    O   O52   0.561656  0.500002  0.479532  -0.706941
    O   O53   0.499998  0.438344  0.520468  -0.706967
    O   O54   0.438344  0.500002  0.520468  -0.706970
    O   O55   0.500002  0.561656  0.520468  -0.706943
    O   O56   0.561656  0.499998  0.520468  -0.706943
    O   O57   0.999998  0.061656  0.979532  -0.706945
    O   O58   0.938344  0.999998  0.979532  -0.706943
    O   O59   0.000002  0.938344  0.979532  -0.706944
    O   O60   0.061656  0.000002  0.979532  -0.706944
    O   O61   0.999998  0.938344  0.020468  -0.706949
    O   O62   0.938344  0.000002  0.020468  -0.706946
    O   O63   0.000002  0.061656  0.020468  -0.706947
    O   O64   0.061656  0.999998  0.020468  -0.706951
    C   C113  0.500000  0.581722  0.500000  0.817857
    C   C114  0.418278  0.500000  0.500000  0.817915
    C   C115  0.500000  0.418278  0.500000  0.817909
    C   C116  0.581722  0.500000  0.500000  0.817860
    C   C117  0.000000  0.081722  0.000000  0.817841
    C   C118  0.918278  0.000000  0.000000  0.817917
    C   C119  0.000000  0.918278  0.000000  0.817921
    C   C120  0.081722  0.000000  0.000000  0.817842
    Zn  Zn9   0.500000  0.500000  0.473528  1.329388
    Zn  Zn10  0.500000  0.500000  0.526472  1.329394
    Zn  Zn11  0.000000  0.000000  0.973528  1.329365
    Zn  Zn12  0.000000  0.000000  0.026472  1.329371
    C   C121  0.004666  0.463726  0.388202  -0.155625
    C   C122  0.536274  0.004666  0.388202  -0.155769
    C   C123  0.995334  0.536274  0.388202  -0.155685
    C   C124  0.463726  0.995334  0.388202  -0.155548
    C   C125  0.004666  0.536274  0.611798  -0.155801
    C   C126  0.536274  0.995334  0.611798  -0.155671
    C   C127  0.995334  0.463726  0.611798  -0.155539
    C   C128  0.463726  0.004666  0.611798  -0.155624
    C   C129  0.504666  0.963726  0.888202  -0.156297
    C   C130  0.036274  0.504666  0.888202  -0.156463
    C   C131  0.495334  0.036274  0.888202  -0.156415
    C   C132  0.963726  0.495334  0.888202  -0.156335
    C   C133  0.504666  0.036274  0.111798  -0.156353
    C   C134  0.036274  0.495334  0.111798  -0.156380
    C   C135  0.495334  0.963726  0.111798  -0.156417
    C   C136  0.963726  0.504666  0.111798  -0.156355
    H   H33   0.008856  0.435118  0.378669  0.146414
    H   H34   0.564882  0.008856  0.378669  0.146478
    H   H35   0.991144  0.564882  0.378669  0.146525
    H   H36   0.435118  0.991144  0.378669  0.146455
    H   H37   0.008856  0.564882  0.621331  0.146472
    H   H38   0.564882  0.991144  0.621331  0.146523
    H   H39   0.991144  0.435118  0.621331  0.146466
    H   H40   0.435118  0.008856  0.621331  0.146413
    H   H41   0.508856  0.935118  0.878669  0.146606
    H   H42   0.064882  0.508856  0.878669  0.146562
    H   H43   0.491144  0.064882  0.878669  0.146573
    H   H44   0.935118  0.491144  0.878669  0.146630
    H   H45   0.508856  0.064882  0.121331  0.146618
    H   H46   0.064882  0.491144  0.121331  0.146555
    H   H47   0.491144  0.935118  0.121331  0.146571
    H   H48   0.935118  0.508856  0.121331  0.146551
    C   C137  0.004491  0.463679  0.413039  -0.079074
    C   C138  0.536321  0.004491  0.413039  -0.078959
    C   C139  0.995509  0.536321  0.413039  -0.079058
    C   C140  0.463679  0.995509  0.413039  -0.079101
    C   C141  0.004491  0.536321  0.586961  -0.078922
    C   C142  0.536321  0.995509  0.586961  -0.079068
    C   C143  0.995509  0.463679  0.586961  -0.079132
    C   C144  0.463679  0.004491  0.586961  -0.079067
    C   C145  0.504491  0.963679  0.913039  -0.078655
    C   C146  0.036321  0.504491  0.913039  -0.078494
    C   C147  0.495509  0.036321  0.913039  -0.078579
    C   C148  0.963679  0.495509  0.913039  -0.078650
    C   C149  0.504491  0.036321  0.086961  -0.078604
    C   C150  0.036321  0.495509  0.086961  -0.078576
    C   C151  0.495509  0.963679  0.086961  -0.078563
    C   C152  0.963679  0.504491  0.086961  -0.078587
    H   H49   0.008278  0.434890  0.422423  0.107930
    H   H50   0.565110  0.008278  0.422423  0.107907
    H   H51   0.991722  0.565110  0.422423  0.107906
    H   H52   0.434890  0.991722  0.422423  0.107915
    H   H53   0.008278  0.565110  0.577577  0.107902
    H   H54   0.565110  0.991722  0.577577  0.107905
    H   H55   0.991722  0.434890  0.577577  0.107919
    H   H56   0.434890  0.008278  0.577577  0.107926
    H   H57   0.508278  0.934890  0.922423  0.107865
    H   H58   0.065110  0.508278  0.922423  0.107863
    H   H59   0.491722  0.065110  0.922423  0.107872
    H   H60   0.934890  0.491722  0.922423  0.107863
    H   H61   0.508278  0.065110  0.077577  0.107857
    H   H62   0.065110  0.491722  0.077577  0.107872
    H   H63   0.491722  0.934890  0.077577  0.107871
    H   H64   0.934890  0.508278  0.077577  0.107870
    C   C153  0.000000  0.500000  0.425654  0.061024
    C   C154  0.500000  0.000000  0.425654  0.060990
    C   C155  0.000000  0.500000  0.574346  0.060982
    C   C156  0.500000  0.000000  0.574346  0.061036
    C   C157  0.500000  0.000000  0.925654  0.060530
    C   C158  0.000000  0.500000  0.925654  0.060471
    C   C159  0.500000  0.000000  0.074346  0.060497
    C   C160  0.000000  0.500000  0.074346  0.060475
    C   C161  0.000000  0.500000  0.375588  0.164296
    C   C162  0.500000  0.000000  0.375588  0.164254
    C   C163  0.000000  0.500000  0.624412  0.164296
    C   C164  0.500000  0.000000  0.624412  0.164283
    C   C165  0.500000  0.000000  0.875588  0.165255
    C   C166  0.000000  0.500000  0.875588  0.165307
    C   C167  0.500000  0.000000  0.124412  0.165289
    C   C168  0.000000  0.500000  0.124412  0.165253
    H   H65   0.212222  0.546033  0.527177  0.164349
    H   H66   0.453967  0.212222  0.527177  0.164353
    H   H67   0.787778  0.453967  0.527177  0.164358
    H   H68   0.546033  0.787778  0.527177  0.164354
    H   H69   0.212222  0.453967  0.472823  0.164353
    H   H70   0.453967  0.787778  0.472823  0.164354
    H   H71   0.787778  0.546033  0.472823  0.164354
    H   H72   0.546033  0.212222  0.472823  0.164351
    H   H73   0.712222  0.046033  0.027177  0.164347
    H   H74   0.953967  0.712222  0.027177  0.164345
    H   H75   0.287778  0.953967  0.027177  0.164350
    H   H76   0.046033  0.287778  0.027177  0.164356
    H   H77   0.712222  0.953967  0.972823  0.164343
    H   H78   0.953967  0.287778  0.972823  0.164352
    H   H79   0.287778  0.046033  0.972823  0.164353
    H   H80   0.046033  0.712222  0.972823  0.164344
    C   C169  0.271199  0.525778  0.515218  -0.192770
    C   C170  0.474222  0.271199  0.515218  -0.192759
    C   C171  0.728801  0.474222  0.515218  -0.192746
    C   C172  0.525778  0.728801  0.515218  -0.192755
    C   C173  0.271199  0.474222  0.484782  -0.192762
    C   C174  0.474222  0.728801  0.484782  -0.192749
    C   C175  0.728801  0.525778  0.484782  -0.192752
    C   C176  0.525778  0.271199  0.484782  -0.192768
    C   C177  0.771199  0.025778  0.015218  -0.192766
    C   C178  0.974222  0.771199  0.015218  -0.192758
    C   C179  0.228801  0.974222  0.015218  -0.192747
    C   C180  0.025778  0.228801  0.015218  -0.192756
    C   C181  0.771199  0.974222  0.984782  -0.192759
    C   C182  0.974222  0.228801  0.984782  -0.192749
    C   C183  0.228801  0.025778  0.984782  -0.192759
    C   C184  0.025778  0.771199  0.984782  -0.192767
    H   H81   0.287735  0.546034  0.527176  0.154797
    H   H82   0.453966  0.287735  0.527176  0.154795
    H   H83   0.712265  0.453966  0.527176  0.154791
    H   H84   0.546034  0.712265  0.527176  0.154794
    H   H85   0.287735  0.453966  0.472824  0.154795
    H   H86   0.453966  0.712265  0.472824  0.154790
    H   H87   0.712265  0.546034  0.472824  0.154791
    H   H88   0.546034  0.287735  0.472824  0.154799
    H   H89   0.787735  0.046034  0.027176  0.154798
    H   H90   0.953966  0.787735  0.027176  0.154796
    H   H91   0.212265  0.953966  0.027176  0.154792
    H   H92   0.046034  0.212265  0.027176  0.154792
    H   H93   0.787735  0.953966  0.972824  0.154796
    H   H94   0.953966  0.212265  0.972824  0.154793
    H   H95   0.212265  0.046034  0.972824  0.154793
    H   H96   0.046034  0.787735  0.972824  0.154796
    C   C185  0.292550  0.500000  0.500000  0.298594
    C   C186  0.500000  0.292550  0.500000  0.298593
    C   C187  0.707450  0.500000  0.500000  0.298595
    C   C188  0.500000  0.707450  0.500000  0.298598
    C   C189  0.792550  0.000000  0.000000  0.298573
    C   C190  0.000000  0.792550  0.000000  0.298568
    C   C191  0.207450  0.000000  0.000000  0.298591
    C   C192  0.000000  0.207450  0.000000  0.298593
    C   C193  0.228758  0.474222  0.484781  -0.211785
    C   C194  0.525778  0.228758  0.484781  -0.211784
    C   C195  0.771242  0.525778  0.484781  -0.211786
    C   C196  0.474222  0.771242  0.484781  -0.211788
    C   C197  0.228758  0.525778  0.515219  -0.211779
    C   C198  0.525778  0.771242  0.515219  -0.211790
    C   C199  0.771242  0.474222  0.515219  -0.211795
    C   C200  0.474222  0.228758  0.515219  -0.211785
    C   C201  0.728758  0.974222  0.984781  -0.211768
    C   C202  0.025778  0.728758  0.984781  -0.211769
    C   C203  0.271242  0.025778  0.984781  -0.211789
    C   C204  0.974222  0.271242  0.984781  -0.211790
    C   C205  0.728758  0.025778  0.015219  -0.211776
    C   C206  0.025778  0.271242  0.015219  -0.211792
    C   C207  0.271242  0.974222  0.015219  -0.211790
    C   C208  0.974222  0.728758  0.015219  -0.211775
    C   C209  0.207407  0.500000  0.500000  0.312440
    C   C210  0.500000  0.207407  0.500000  0.312439
    C   C211  0.792593  0.500000  0.500000  0.312413
    C   C212  0.500000  0.792593  0.500000  0.312417
    C   C213  0.707407  0.000000  0.000000  0.312431
    C   C214  0.000000  0.707407  0.000000  0.312434
    C   C215  0.292593  0.000000  0.000000  0.312435
    C   C216  0.000000  0.292593  0.000000  0.312435
    C   C217  0.336846  0.500000  0.500000  -0.173600
    C   C218  0.500000  0.336846  0.500000  -0.173602
    C   C219  0.663154  0.500000  0.500000  -0.173614
    C   C220  0.500000  0.663154  0.500000  -0.173616
    C   C221  0.836846  0.000000  0.000000  -0.173564
    C   C222  0.000000  0.836846  0.000000  -0.173561
    C   C223  0.163154  0.000000  0.000000  -0.173616
    C   C224  0.000000  0.163154  0.000000  -0.173618
    C   C225  0.163112  0.500000  0.500000  -0.158785
    C   C226  0.500000  0.163112  0.500000  -0.158785
    C   C227  0.836888  0.500000  0.500000  -0.158739
    C   C228  0.500000  0.836888  0.500000  -0.158742
    C   C229  0.663112  0.000000  0.000000  -0.158797
    C   C230  0.000000  0.663112  0.000000  -0.158795
    C   C231  0.336888  0.000000  0.000000  -0.158779
    C   C232  0.000000  0.336888  0.000000  -0.158786
    C   C233  0.125976  0.500000  0.500000  -0.159583
    C   C234  0.500000  0.125976  0.500000  -0.159585
    C   C235  0.874024  0.500000  0.500000  -0.159642
    C   C236  0.500000  0.874024  0.500000  -0.159636
    C   C237  0.625976  0.000000  0.000000  -0.159550
    C   C238  0.000000  0.625976  0.000000  -0.159558
    C   C239  0.374024  0.000000  0.000000  -0.159583
    C   C240  0.000000  0.374024  0.000000  -0.159571
    C   C241  0.373982  0.500000  0.500000  -0.117321
    C   C242  0.500000  0.373982  0.500000  -0.117318
    C   C243  0.626018  0.500000  0.500000  -0.117306
    C   C244  0.500000  0.626018  0.500000  -0.117303
    C   C245  0.873982  0.000000  0.000000  -0.117359
    C   C246  0.000000  0.873982  0.000000  -0.117360
    C   C247  0.126018  0.000000  0.000000  -0.117284
    C   C248  0.000000  0.126018  0.000000  -0.117285
