# Generated by REPEAT Assigner based on pymatgen
data_DB0-m3_o43_o14_f0_fsc.sym.42
_audit_creation_date              2022-05-24
_audit_creation_method            REPEAT_Assigner
_cell_length_a                    9.293500
_cell_length_b                    8.549304
_cell_length_c                    15.073057
_cell_angle_alpha                 90.000000
_cell_angle_beta                  91.019794
_cell_angle_gamma                 90.000000
_cell_volume                      1197.409283
_symmetry_space_group_name_H-M    P1
_symmetry_Int_Tables_number       1
loop_
    _symmetry_equiv_pos_site_id
    _symmetry_equiv_pos_as_xyz
    1  x,y,z
loop_
    _atom_site_type_symbol
    _atom_site_label
    _atom_site_fract_x
    _atom_site_fract_y
    _atom_site_fract_z
    _atom_type_partial_charge
    H   H1   0.084556  0.000253  0.571908  0.115625
    C   C1   0.012326  0.139322  0.678470  -0.014189
    C   C2   0.014761  0.859463  0.678259  0.001795
    C   C3   0.972143  0.139197  0.766298  -0.312011
    C   C4   0.974715  0.858465  0.765680  -0.294854
    H   H2   0.956549  0.249343  0.799851  0.184144
    H   H3   0.954764  0.748044  0.798106  0.140970
    C   C5   0.963956  0.998202  0.811792  0.245348
    C   C6   0.045175  0.999742  0.638153  -0.184995
    C   C7   0.030916  0.881984  0.955344  -0.102525
    C   C8   0.880229  0.107596  0.954990  -0.071206
    H   H4   0.095501  0.797205  0.920984  0.108943
    H   H5   0.818355  0.195815  0.920009  0.060406
    C   C9   0.034675  0.882486  0.046569  -0.237875
    C   C10  0.883066  0.107428  0.046759  -0.147853
    H   H6   0.101558  0.797618  0.080691  0.144712
    H   H7   0.822616  0.195175  0.081725  0.082106
    C   C11  0.961619  0.995608  0.093042  0.157316
    C   C12  0.954505  0.994654  0.908822  -0.028952
    C   C13  0.976143  0.139490  0.236024  -0.163442
    C   C14  0.983693  0.858465  0.236981  -0.198633
    H   H8   0.968032  0.249455  0.201164  0.095797
    H   H9   0.976665  0.747124  0.203335  0.094848
    C   C15  0.994017  0.139412  0.327170  -0.017555
    C   C16  0.997501  0.860987  0.328067  -0.012221
    C   C17  0.999955  0.000663  0.371749  -0.191854
    H   H10  0.003112  0.001491  0.442520  0.154428
    C   C18  0.972323  0.998219  0.190339  0.052660
    O   O1   0.135219  0.667196  0.591665  -0.729192
    O   O2   0.133838  0.330472  0.591334  -0.734235
    O   O3   0.884517  0.662786  0.598706  -0.719798
    O   O4   0.883330  0.336900  0.598180  -0.727698
    C   C19  0.012122  0.717334  0.623856  0.885250
    C   C20  0.010449  0.281510  0.623762  0.910062
    O   O5   0.881048  0.671188  0.415065  -0.709318
    O   O6   0.879727  0.330884  0.414220  -0.717020
    O   O7   0.126149  0.664442  0.407890  -0.711400
    O   O8   0.124742  0.334566  0.407439  -0.700340
    C   C21  0.001486  0.719786  0.382031  0.849227
    C   C22  0.999501  0.281291  0.380858  0.833995
    Zn  Zn1  0.845233  0.500513  0.504161  1.037274
    Zn  Zn2  0.166885  0.498974  0.500259  1.043372
    H   H11  0.636347  0.497688  0.641194  0.161384
    C   C23  0.653162  0.505463  0.341695  -0.150350
    H   H12  0.765343  0.502946  0.332690  0.148570
    C   C24  0.581680  0.510616  0.262000  -0.138350
    H   H13  0.642632  0.510523  0.201628  0.126015
    C   C25  0.435974  0.507344  0.258906  0.114174
    C   C26  0.361803  0.500575  0.336815  -0.205477
    H   H14  0.249233  0.499520  0.326812  0.143489
    C   C27  0.431572  0.500434  0.420257  0.102176
    C   C28  0.581780  0.502455  0.422862  0.125034
    N   N1   0.655445  0.501203  0.502309  0.041857
    C   C29  0.580042  0.498752  0.577823  -0.069256
    H   H15  0.372772  0.496173  0.636848  0.152513
    C   C30  0.430552  0.497560  0.575252  -0.085260
    N   N2   0.356529  0.498157  0.497356  0.053911
    C   C31  0.361229  0.506788  0.172521  0.102673
    C   C32  0.244914  0.409400  0.157596  -0.130319
    C   C33  0.179703  0.402927  0.074776  -0.146287
    C   C34  0.230146  0.493833  0.006603  0.099314
    Br  Br1  0.141910  0.481113  0.891695  -0.125160
    C   C35  0.345728  0.591900  0.021306  -0.025307
    C   C36  0.411584  0.597911  0.103938  -0.204753
    H   H16  0.208336  0.333325  0.209674  0.103483
    H   H17  0.090269  0.324791  0.062773  0.131731
    H   H18  0.385462  0.663347  0.967879  0.082020
    H   H19  0.501749  0.675864  0.114681  0.121067
