# Generated by REPEAT Assigner based on pymatgen
data_DB0-m3_o12_o19_f0_pcu.sym.34_sqe
_audit_creation_date              2022-05-24
_audit_creation_method            REPEAT_Assigner
_cell_length_a                    10.248945
_cell_length_b                    11.474089
_cell_length_c                    11.914306
_cell_angle_alpha                 89.985533
_cell_angle_beta                  80.562159
_cell_angle_gamma                 92.456838
_cell_volume                      1380.817043
_symmetry_space_group_name_H-M    P1
_symmetry_Int_Tables_number       1
loop_
    _symmetry_equiv_pos_site_id
    _symmetry_equiv_pos_as_xyz
    1  x,y,z
loop_
    _atom_site_type_symbol
    _atom_site_label
    _atom_site_fract_x
    _atom_site_fract_y
    _atom_site_fract_z
    _atom_type_partial_charge
    O   O1   0.412315  0.673442  0.537135  -0.592154
    O   O2   0.580573  0.305719  0.512370  -0.572287
    O   O3   0.637843  0.651388  0.508455  -0.630221
    O   O4   0.355302  0.327597  0.542036  -0.634746
    C   C1   0.534688  0.717057  0.521664  0.731041
    C   C2   0.458536  0.261973  0.528029  0.709606
    O   O5   0.375510  0.500347  0.707278  -0.718562
    O   O6   0.617852  0.479382  0.342438  -0.711863
    O   O7   0.600903  0.476212  0.678969  -0.668263
    O   O8   0.392277  0.502691  0.370787  -0.646025
    C   C3   0.487261  0.487777  0.745438  0.995509
    C   C4   0.506007  0.491532  0.304303  0.866369
    Zn  Zn1  0.347638  0.503785  0.542768  1.040348
    Zn  Zn2  0.645455  0.475223  0.506998  1.012668
    C   C5   0.487411  0.488526  0.865906  -0.321643
    C   C6   0.505898  0.490930  0.183827  -0.239905
    C   C7   0.492581  0.489291  0.966255  0.093303
    C   C8   0.500752  0.490224  0.083473  0.032213
    C   C9   0.562457  0.844319  0.523166  -0.379965
    C   C10  0.431499  0.134514  0.532523  -0.274184
    C   C11  0.477091  0.927268  0.509715  0.018869
    C   C12  0.521772  0.052326  0.507321  -0.045116
    H   H1   0.328194  0.107978  0.557232  0.155089
    H   H2   0.662457  0.869941  0.533698  0.212776
    N   N1   0.841329  0.456667  0.486365  -0.177708
    N   N2   0.151573  0.521731  0.563858  -0.224357
    C   C13  0.931011  0.525325  0.518657  0.034695
    C   C14  0.072496  0.495478  0.492735  0.001708
    H   H3   0.108563  0.559761  0.638095  0.274589
    H   H4   0.874526  0.380379  0.449076  0.246685
    C   C15  0.664050  0.083034  0.475777  0.686646
    O   O9   0.726053  0.124601  0.546350  -0.518634
    C   C16  0.735096  0.054863  0.360185  -0.560541
    H   H5   0.664188  0.015721  0.308402  0.119663
    H   H6   0.812946  0.992444  0.367676  0.143746
    H   H7   0.781661  0.136003  0.318027  0.176760
    C   C17  0.340510  0.897009  0.494187  0.605835
    O   O10  0.260594  0.858338  0.573999  -0.464340
    C   C18  0.296118  0.924130  0.384393  -0.457273
    H   H8   0.380562  0.962248  0.323387  0.101634
    H   H9   0.216134  0.987168  0.399299  0.153086
    H   H10  0.258288  0.842767  0.348391  0.117476
    C   C19  0.119900  0.432913  0.386982  0.589936
    O   O11  0.182638  0.345492  0.390078  -0.391240
    C   C20  0.084485  0.471089  0.276431  -0.472672
    H   H11  0.029887  0.552736  0.287542  0.103865
    H   H12  0.022236  0.401630  0.243916  0.144820
    H   H13  0.176346  0.487127  0.213946  0.176224
    C   C21  0.894400  0.632597  0.581853  0.531988
    O   O12  0.805910  0.629154  0.663698  -0.341910
    C   C22  0.969584  0.745212  0.550835  -0.573311
    H   H14  0.047792  0.733999  0.476030  0.168215
    H   H15  0.014334  0.776396  0.624533  0.197653
    H   H16  0.900794  0.810704  0.529734  0.173902
