# Generated by REPEAT Assigner based on pymatgen
data_DB0-m3_o15_o19_f0_nbo.sym.8
_audit_creation_date              2022-05-24
_audit_creation_method            REPEAT_Assigner
_cell_length_a                    22.058591
_cell_length_b                    22.058589
_cell_length_c                    23.835656
_cell_angle_alpha                 90.000000
_cell_angle_beta                  90.000000
_cell_angle_gamma                 90.000000
_cell_volume                      11597.986837
_symmetry_space_group_name_H-M    P1
_symmetry_Int_Tables_number       1
loop_
    _symmetry_equiv_pos_site_id
    _symmetry_equiv_pos_as_xyz
    1  x,y,z
loop_
    _atom_site_type_symbol
    _atom_site_label
    _atom_site_fract_x
    _atom_site_fract_y
    _atom_site_fract_z
    _atom_type_partial_charge
    O   O1    0.409381  0.052967  0.497317  -0.661420
    O   O2    0.947030  0.409384  0.497439  -0.662180
    O   O3    0.590615  0.947030  0.497348  -0.661236
    O   O4    0.052959  0.590621  0.497464  -0.662195
    O   O5    0.590208  0.050781  0.502558  -0.673771
    O   O6    0.050779  0.409793  0.502702  -0.674689
    O   O7    0.409788  0.949219  0.502598  -0.673946
    O   O8    0.949209  0.590211  0.502690  -0.674559
    O   O9    0.909331  0.552884  0.997456  -0.661403
    O   O10   0.449130  0.909827  0.997302  -0.674420
    O   O11   0.090650  0.447117  0.997452  -0.662018
    O   O12   0.550861  0.090166  0.997282  -0.674884
    O   O13   0.090160  0.550866  0.002709  -0.674823
    O   O14   0.552880  0.909337  0.002539  -0.661589
    O   O15   0.909821  0.449134  0.002694  -0.674186
    O   O16   0.447112  0.090656  0.002541  -0.661876
    C   C1    0.380598  0.000999  0.500007  0.693701
    C   C2    0.999000  0.380602  0.500111  0.696071
    C   C3    0.619399  0.998999  0.500001  0.693469
    C   C4    0.000989  0.619403  0.500119  0.696188
    C   C5    0.880589  0.500892  0.000125  0.695338
    C   C6    0.500888  0.880595  0.999870  0.695827
    C   C7    0.119391  0.499108  0.000132  0.696361
    C   C8    0.499104  0.119397  0.999860  0.696415
    O   O17   0.501108  0.052149  0.416335  -0.604039
    O   O18   0.947856  0.501116  0.416455  -0.603244
    O   O19   0.498882  0.947900  0.416337  -0.604329
    O   O20   0.052106  0.498895  0.416456  -0.603351
    O   O21   0.496562  0.052011  0.583547  -0.601445
    O   O22   0.052045  0.503438  0.583668  -0.601420
    O   O23   0.503437  0.947936  0.583549  -0.601250
    O   O24   0.947971  0.496558  0.583667  -0.601677
    O   O25   0.001072  0.552115  0.916459  -0.604070
    O   O26   0.447969  0.003469  0.916323  -0.601258
    O   O27   0.998916  0.447865  0.916460  -0.603845
    O   O28   0.552038  0.996516  0.916323  -0.601149
    O   O29   0.996512  0.552045  0.083670  -0.601149
    O   O30   0.552113  0.001079  0.083534  -0.604032
    O   O31   0.003464  0.447976  0.083671  -0.601253
    O   O32   0.447863  0.998924  0.083535  -0.603787
    C   C9    0.499994  0.000024  0.390223  0.630656
    C   C10   0.999981  0.500006  0.390344  0.627355
    C   C11   0.499998  0.999974  0.609650  0.626980
    C   C12   0.000008  0.499996  0.609770  0.625724
    C   C13   0.999995  0.499990  0.890346  0.629152
    C   C14   0.500004  0.999991  0.890221  0.625913
    C   C15   0.999988  0.500011  0.109773  0.625467
    C   C16   0.499988  0.000003  0.109648  0.628555
    Zn  Zn1   0.499981  0.068385  0.499980  1.255497
    Zn  Zn2   0.931608  0.499984  0.500098  1.256151
    Zn  Zn3   0.500013  0.931613  0.499974  1.255401
    Zn  Zn4   0.068381  0.500020  0.500095  1.256099
    Zn  Zn5   0.999918  0.568387  0.000098  1.255879
    Zn  Zn6   0.431609  0.000070  0.999893  1.255608
    Zn  Zn7   0.000064  0.431613  0.000102  1.255771
    Zn  Zn8   0.568382  0.999924  0.999895  1.255946
    C   C17   0.499992  0.000022  0.330075  -0.078736
    C   C18   0.999982  0.500008  0.330197  -0.077594
    C   C19   0.499999  0.999976  0.669797  -0.077054
    C   C20   0.000007  0.499993  0.669918  -0.075266
    C   C21   0.999998  0.499989  0.830199  -0.078252
    C   C22   0.500003  0.999987  0.830074  -0.076150
    C   C23   0.999986  0.500011  0.169920  -0.075858
    C   C24   0.499988  0.000009  0.169795  -0.077377
    C   C25   0.499991  0.000019  0.279542  0.002404
    C   C26   0.999983  0.500010  0.279664  0.002795
    C   C27   0.500001  0.999979  0.720330  0.001773
    C   C28   0.000005  0.499991  0.720452  -0.000446
    C   C29   0.000001  0.499990  0.779665  0.003312
    C   C30   0.500002  0.999983  0.779541  0.000895
    C   C31   0.999984  0.500011  0.220453  0.000088
    C   C32   0.499989  0.000013  0.220329  0.001365
    H   H1    0.290829  0.120599  0.659552  0.176636
    H   H2    0.879423  0.290742  0.659625  0.176424
    H   H3    0.709180  0.879513  0.659617  0.176659
    H   H4    0.120501  0.709258  0.659677  0.176902
    H   H5    0.708237  0.118817  0.340139  0.177612
    H   H6    0.118899  0.291852  0.340258  0.177623
    H   H7    0.291760  0.881063  0.340223  0.177654
    H   H8    0.881143  0.708163  0.340234  0.177646
    H   H9    0.790752  0.620382  0.159713  0.176892
    H   H10   0.380978  0.791817  0.159698  0.177606
    H   H11   0.209221  0.379591  0.159704  0.177062
    H   H12   0.619055  0.208183  0.159658  0.177548
    H   H13   0.208173  0.619053  0.840328  0.177693
    H   H14   0.620373  0.790759  0.840279  0.176876
    H   H15   0.791812  0.380981  0.840297  0.177657
    H   H16   0.379585  0.209224  0.840286  0.176986
    C   C33   0.307599  0.932278  0.415414  0.247498
    C   C34   0.067705  0.307647  0.415468  0.245816
    C   C35   0.692401  0.067665  0.415365  0.247897
    C   C36   0.932309  0.692365  0.415460  0.245429
    C   C37   0.692911  0.930747  0.584506  0.244275
    C   C38   0.930707  0.307052  0.584550  0.243332
    C   C39   0.307095  0.069305  0.584476  0.245050
    C   C40   0.069252  0.692952  0.584583  0.245366
    C   C41   0.807623  0.432156  0.915515  0.246278
    C   C42   0.569114  0.807053  0.915370  0.244069
    C   C43   0.192359  0.567859  0.915535  0.246900
    C   C44   0.430862  0.192934  0.915368  0.244421
    C   C45   0.192929  0.430868  0.084622  0.244630
    C   C46   0.432153  0.807628  0.084480  0.245923
    C   C47   0.807046  0.569120  0.084623  0.243909
    C   C48   0.567858  0.192367  0.084453  0.246533
    C   C49   0.271831  0.902256  0.376715  -0.335071
    C   C50   0.097710  0.271901  0.376741  -0.334808
    C   C51   0.728168  0.097649  0.376641  -0.335236
    C   C52   0.902322  0.728113  0.376723  -0.334769
    C   C53   0.728905  0.900796  0.623076  -0.330450
    C   C54   0.900721  0.271039  0.623082  -0.329883
    C   C55   0.271104  0.099293  0.623023  -0.330395
    C   C56   0.099217  0.728964  0.623128  -0.331611
    C   C57   0.771871  0.402140  0.876800  -0.334985
    C   C58   0.599061  0.771045  0.876810  -0.331122
    C   C59   0.228112  0.597886  0.876828  -0.334987
    C   C60   0.400903  0.228940  0.876814  -0.331373
    C   C61   0.228936  0.400909  0.123176  -0.331609
    C   C62   0.402137  0.771876  0.123195  -0.334557
    C   C63   0.771038  0.599069  0.123182  -0.331108
    C   C64   0.597887  0.228121  0.123158  -0.334571
    C   C65   0.211806  0.893392  0.386526  0.052839
    C   C66   0.106566  0.211867  0.386514  0.052697
    C   C67   0.788194  0.106519  0.386443  0.053176
    C   C68   0.893466  0.788147  0.386494  0.052746
    C   C69   0.788937  0.892180  0.613114  0.048653
    C   C70   0.892098  0.211015  0.613080  0.048642
    C   C71   0.211072  0.107905  0.613056  0.048686
    C   C72   0.107845  0.788988  0.613132  0.049000
    C   C73   0.711848  0.393244  0.886600  0.052405
    C   C74   0.607646  0.711009  0.886779  0.049075
    C   C75   0.288135  0.606780  0.886632  0.051716
    C   C76   0.392317  0.288975  0.886783  0.049047
    C   C77   0.288971  0.392323  0.113206  0.049308
    C   C78   0.393240  0.711853  0.113394  0.051612
    C   C79   0.711003  0.607654  0.113213  0.049200
    C   C80   0.606780  0.288144  0.113353  0.051217
    C   C81   0.185330  0.921057  0.431292  -0.306737
    C   C82   0.078910  0.185366  0.431272  -0.306067
    C   C83   0.814669  0.078893  0.431231  -0.306345
    C   C84   0.921105  0.814645  0.431262  -0.306060
    C   C85   0.815186  0.920029  0.568332  -0.302695
    C   C86   0.919972  0.184788  0.568300  -0.303119
    C   C87   0.184818  0.080020  0.568295  -0.303159
    C   C88   0.079992  0.815216  0.568340  -0.302906
    C   C89   0.685357  0.420862  0.931384  -0.307060
    C   C90   0.579759  0.684775  0.931547  -0.303634
    C   C91   0.314625  0.579151  0.931410  -0.306547
    C   C92   0.420214  0.315212  0.931545  -0.303229
    C   C93   0.315208  0.420219  0.068444  -0.303475
    C   C94   0.420857  0.685363  0.068610  -0.306097
    C   C95   0.684769  0.579766  0.068445  -0.303448
    C   C96   0.579149  0.314633  0.068575  -0.306042
    C   C97   0.217437  0.962494  0.463840  0.130066
    C   C98   0.037487  0.217457  0.463849  0.128704
    C   C99   0.782563  0.037480  0.463807  0.129505
    C   C100  0.962517  0.782551  0.463850  0.128540
    C   C101  0.782818  0.961363  0.535893  0.127318
    C   C102  0.961331  0.217170  0.535900  0.126590
    C   C103  0.217184  0.038663  0.535880  0.127425
    C   C104  0.038646  0.782836  0.535925  0.126611
    C   C105  0.717445  0.462282  0.963966  0.129833
    C   C106  0.538414  0.717160  0.963960  0.128428
    C   C107  0.282535  0.537724  0.963984  0.130705
    C   C108  0.461566  0.282829  0.963952  0.128643
    C   C109  0.282824  0.461572  0.036038  0.129290
    C   C110  0.462277  0.717451  0.036028  0.129184
    C   C111  0.717154  0.538420  0.036033  0.128170
    C   C112  0.537720  0.282542  0.036004  0.130104
    C   C113  0.280595  0.965185  0.460112  0.008285
    C   C114  0.034803  0.280619  0.460157  0.010658
    C   C115  0.719404  0.034786  0.460082  0.008731
    C   C116  0.965199  0.719390  0.460158  0.011371
    C   C117  0.719662  0.963784  0.539762  0.010631
    C   C118  0.963760  0.280323  0.539806  0.011864
    C   C119  0.280340  0.036242  0.539750  0.009482
    C   C120  0.036214  0.719683  0.539829  0.011387
    C   C121  0.780602  0.465019  0.960232  0.011757
    C   C122  0.536039  0.780317  0.960099  0.011469
    C   C123  0.219379  0.534988  0.960248  0.010420
    C   C124  0.463944  0.219672  0.960091  0.010821
    C   C125  0.219667  0.463949  0.039899  0.010054
    C   C126  0.465015  0.780608  0.039763  0.012190
    C   C127  0.780311  0.536045  0.039895  0.011473
    C   C128  0.534985  0.219386  0.039741  0.011028
    C   C129  0.185912  0.000489  0.499848  -0.109437
    C   C130  0.999498  0.185915  0.499850  -0.108735
    C   C131  0.814090  0.999513  0.499839  -0.109715
    C   C132  0.000495  0.814092  0.499861  -0.108855
    C   C133  0.685901  0.500224  0.000006  -0.110437
    C   C134  0.500219  0.685907  0.999987  -0.110377
    C   C135  0.314078  0.499772  0.000016  -0.111521
    C   C136  0.499767  0.314084  0.999973  -0.110928
    C   C137  0.313131  0.000767  0.499982  -0.122926
    C   C138  0.999233  0.313135  0.500052  -0.125991
    C   C139  0.686868  0.999231  0.499973  -0.123748
    C   C140  0.000756  0.686872  0.500063  -0.126671
    C   C141  0.813121  0.500607  0.000111  -0.127458
    C   C142  0.500603  0.813127  0.999884  -0.127748
    C   C143  0.186859  0.499393  0.000120  -0.126323
    C   C144  0.499389  0.186865  0.999870  -0.127050
    H   H17   0.185361  0.864728  0.359077  0.068231
    H   H18   0.135218  0.185437  0.359043  0.068279
    H   H19   0.814638  0.135160  0.358975  0.067974
    H   H20   0.864824  0.814579  0.359016  0.068239
    H   H21   0.815572  0.863594  0.640473  0.068737
    H   H22   0.863490  0.184367  0.640409  0.068721
    H   H23   0.184438  0.136512  0.640397  0.068714
    H   H24   0.136440  0.815635  0.640472  0.068732
    H   H25   0.685417  0.364592  0.859130  0.068414
    H   H26   0.636238  0.684361  0.859436  0.068810
    H   H27   0.314566  0.635439  0.859168  0.068633
    H   H28   0.363719  0.315622  0.859444  0.068775
    H   H29   0.315618  0.363725  0.140545  0.068737
    H   H30   0.364588  0.685423  0.140864  0.068625
    H   H31   0.684354  0.636247  0.140555  0.068765
    H   H32   0.635440  0.314576  0.140815  0.068809
    H   H33   0.138434  0.909865  0.438439  0.173017
    H   H34   0.090098  0.138464  0.438387  0.172820
    H   H35   0.861563  0.090096  0.438372  0.172849
    H   H36   0.909914  0.861546  0.438378  0.172866
    H   H37   0.862113  0.909048  0.561069  0.172691
    H   H38   0.908991  0.137866  0.561006  0.173065
    H   H39   0.137889  0.090991  0.561030  0.173079
    H   H40   0.090979  0.862137  0.561050  0.172827
    H   H41   0.638462  0.409651  0.938517  0.173164
    H   H42   0.590723  0.637847  0.938820  0.172768
    H   H43   0.361521  0.590358  0.938546  0.173007
    H   H44   0.409251  0.362141  0.938817  0.172563
    H   H45   0.362136  0.409257  0.061170  0.172557
    H   H46   0.409645  0.638468  0.061476  0.172922
    H   H47   0.637840  0.590730  0.061171  0.172667
    H   H48   0.590356  0.361528  0.061438  0.172859
    O   O33   0.003766  0.090277  0.548016  -0.633188
    O   O34   0.909731  0.003783  0.548013  -0.633330
    O   O35   0.996228  0.909741  0.548014  -0.633161
    O   O36   0.090267  0.996244  0.548016  -0.633391
    O   O37   0.995767  0.090248  0.451655  -0.631714
    O   O38   0.090252  0.004235  0.451654  -0.631683
    O   O39   0.004247  0.909751  0.451655  -0.631828
    O   O40   0.909757  0.995755  0.451655  -0.631790
    O   O41   0.504000  0.590250  0.048179  -0.630881
    O   O42   0.409733  0.503994  0.048177  -0.631471
    O   O43   0.495986  0.409735  0.048173  -0.630833
    O   O44   0.590250  0.495991  0.048173  -0.631437
    O   O45   0.495985  0.590257  0.951820  -0.631482
    O   O46   0.590245  0.504006  0.951814  -0.631045
    O   O47   0.503987  0.409739  0.951812  -0.631512
    O   O48   0.409729  0.495992  0.951816  -0.630968
    C   C145  0.999697  0.118872  0.499834  0.631553
    C   C146  0.881133  0.999701  0.499832  0.632020
    C   C147  0.000305  0.881136  0.499837  0.631850
    C   C148  0.118870  0.000307  0.499836  0.631776
    C   C149  0.500015  0.618864  0.000001  0.630759
    C   C150  0.381121  0.499971  0.999998  0.631144
    C   C151  0.499965  0.381127  0.999991  0.630889
    C   C152  0.618858  0.500021  0.999992  0.630894
    Zn  Zn9   0.999998  0.000009  0.563217  1.237275
    Zn  Zn10  0.000005  0.999999  0.436452  1.233636
    Zn  Zn11  0.499992  0.499992  0.063378  1.232982
    Zn  Zn12  0.499987  0.499999  0.936613  1.233114
    O   O49   0.368743  0.928986  0.406587  -0.201158
    C   C153  0.383240  0.867259  0.412757  0.048268
    H   H49   0.384700  0.844699  0.371193  0.020970
    H   H50   0.350116  0.844583  0.440834  0.030460
    H   H51   0.428389  0.862125  0.432370  0.029894
    O   O50   0.071014  0.368796  0.406681  -0.200119
    C   C154  0.132745  0.383271  0.412859  0.048814
    H   H52   0.155305  0.384754  0.371296  0.020609
    H   H53   0.155411  0.350119  0.440915  0.030495
    H   H54   0.137892  0.428404  0.432500  0.029487
    O   O51   0.631256  0.070977  0.406552  -0.201412
    C   C155  0.616788  0.132714  0.412699  0.048119
    H   H55   0.615322  0.155252  0.371126  0.021129
    H   H56   0.649935  0.155390  0.440754  0.030458
    H   H57   0.571651  0.137879  0.432328  0.029799
    O   O52   0.928988  0.631216  0.406676  -0.200085
    C   C156  0.867252  0.616757  0.412845  0.049119
    H   H58   0.844700  0.615275  0.371278  0.020542
    H   H59   0.844588  0.649919  0.440893  0.030400
    H   H60   0.862090  0.571629  0.432491  0.029360
    O   O53   0.631809  0.927361  0.593555  -0.199749
    C   C157  0.617359  0.865606  0.587525  0.042487
    H   H61   0.616214  0.843081  0.629113  0.022197
    H   H62   0.650324  0.842954  0.559270  0.031378
    H   H63   0.572064  0.860397  0.568206  0.031156
    O   O54   0.927350  0.368149  0.593642  -0.199067
    C   C158  0.865603  0.382637  0.587611  0.040906
    H   H64   0.843070  0.383759  0.629196  0.022670
    H   H65   0.842940  0.349709  0.559328  0.031839
    H   H66   0.860422  0.427952  0.568324  0.031496
    O   O55   0.368197  0.072668  0.593534  -0.199854
    C   C159  0.382677  0.134415  0.587482  0.041681
    H   H67   0.383819  0.156959  0.629061  0.022396
    H   H68   0.349732  0.157067  0.559209  0.031625
    H   H69   0.427982  0.139592  0.568174  0.031387
    O   O56   0.072619  0.631855  0.593667  -0.200463
    C   C160  0.134371  0.617382  0.587648  0.044567
    H   H70   0.156892  0.616255  0.629238  0.021598
    H   H71   0.157035  0.650322  0.559377  0.030932
    H   H72   0.139568  0.572074  0.568352  0.030605
    O   O57   0.868768  0.428899  0.906689  -0.200896
    C   C161  0.883297  0.367178  0.912837  0.049405
    H   H73   0.884769  0.344636  0.871266  0.020535
    H   H74   0.850181  0.344474  0.940904  0.030173
    H   H75   0.928447  0.362059  0.932451  0.029498
    O   O58   0.572541  0.868153  0.906327  -0.199756
    C   C162  0.634305  0.882563  0.912376  0.044111
    H   H76   0.656844  0.883699  0.870795  0.021639
    H   H77   0.656927  0.849582  0.940635  0.031152
    H   H78   0.639537  0.927853  0.931701  0.030693
    O   O59   0.131214  0.571110  0.906703  -0.201445
    C   C163  0.116676  0.632829  0.912857  0.050859
    H   H79   0.115208  0.655376  0.871288  0.020167
    H   H80   0.149784  0.655533  0.940931  0.029803
    H   H81   0.071522  0.637938  0.932465  0.029179
    O   O60   0.427443  0.131833  0.906324  -0.199771
    C   C164  0.365682  0.117413  0.912379  0.043421
    H   H82   0.343138  0.116276  0.870800  0.021841
    H   H83   0.343059  0.150388  0.940642  0.031353
    H   H84   0.360460  0.072120  0.931701  0.030930
    O   O61   0.131829  0.427448  0.093668  -0.199580
    C   C165  0.117408  0.365688  0.087615  0.043201
    H   H85   0.116272  0.343145  0.129194  0.021966
    H   H86   0.150383  0.343064  0.059351  0.031380
    H   H87   0.072115  0.360466  0.068293  0.030919
    O   O62   0.428897  0.868774  0.093308  -0.200594
    C   C166  0.367176  0.883303  0.087161  0.048895
    H   H88   0.344635  0.884775  0.128733  0.020661
    H   H89   0.344471  0.850189  0.059094  0.030258
    H   H90   0.362057  0.928454  0.067548  0.029709
    O   O63   0.868147  0.572548  0.093666  -0.199372
    C   C167  0.882557  0.634311  0.087617  0.043477
    H   H91   0.883693  0.656851  0.129198  0.021842
    H   H92   0.849577  0.656932  0.059357  0.031263
    H   H93   0.927848  0.639542  0.068292  0.030827
    O   O64   0.571109  0.131222  0.093287  -0.201068
    C   C168  0.632827  0.116684  0.087132  0.050358
    H   H94   0.655376  0.115216  0.128700  0.020346
    H   H95   0.655530  0.149790  0.059055  0.029922
    H   H96   0.637936  0.071529  0.067525  0.029262
