# Generated by REPEAT Assigner based on pymatgen
data_DB0-m3_o3_o11_f0_pcu.sym.102
_audit_creation_date              2022-05-24
_audit_creation_method            REPEAT_Assigner
_cell_length_a                    19.465520
_cell_length_b                    18.288101
_cell_length_c                    11.175232
_cell_angle_alpha                 90.000000
_cell_angle_beta                  90.007349
_cell_angle_gamma                 90.000000
_cell_volume                      3978.241413
_symmetry_space_group_name_H-M    P1
_symmetry_Int_Tables_number       1
loop_
    _symmetry_equiv_pos_site_id
    _symmetry_equiv_pos_as_xyz
    1  x,y,z
loop_
    _atom_site_type_symbol
    _atom_site_label
    _atom_site_fract_x
    _atom_site_fract_y
    _atom_site_fract_z
    _atom_type_partial_charge
    O   O1   0.397655  0.561132  0.503071  -0.600345
    O   O2   0.602343  0.561132  0.496929  -0.600316
    O   O3   0.397642  0.434985  0.501185  -0.674113
    O   O4   0.602356  0.434985  0.498814  -0.674139
    C   C1   0.365534  0.498049  0.503307  0.783083
    C   C2   0.634465  0.498049  0.496693  0.782979
    O   O5   0.498377  0.560952  0.321625  -0.726506
    O   O6   0.501622  0.560952  0.678374  -0.726488
    O   O7   0.499201  0.435007  0.321741  -0.687482
    O   O8   0.500797  0.435007  0.678259  -0.687454
    C   C3   0.498745  0.497852  0.265266  0.873576
    C   C4   0.501254  0.497852  0.734734  0.873500
    Zn  Zn1  0.499999  0.581243  0.500000  1.015601
    Zn  Zn2  0.499999  0.414886  0.500000  1.030532
    C   C5   0.493672  0.439136  0.934568  0.190203
    C   C6   0.506327  0.439136  0.065432  0.190113
    C   C7   0.505505  0.498589  0.866612  -0.368032
    C   C8   0.494493  0.498589  0.133388  -0.368016
    H   H1   0.522105  0.549198  0.907659  0.143153
    H   H2   0.477894  0.549198  0.092341  0.143150
    C   C9   0.743848  0.448055  0.568472  -0.299484
    C   C10  0.256150  0.448055  0.431528  -0.299113
    H   H3   0.714728  0.410728  0.623724  0.136928
    H   H4   0.285270  0.410728  0.376276  0.136860
    C   C11  0.814613  0.448780  0.576954  0.366107
    C   C12  0.185385  0.448780  0.423046  0.365840
    C   C13  0.852626  0.496670  0.506244  -0.107593
    C   C14  0.147372  0.496670  0.493755  -0.107408
    C   C15  0.818138  0.545840  0.433714  -0.285283
    C   C16  0.181861  0.545840  0.566286  -0.285749
    H   H5   0.846469  0.582680  0.376451  0.106596
    H   H6   0.153529  0.582680  0.623549  0.106663
    C   C17  0.747327  0.546799  0.428820  0.332598
    C   C18  0.252671  0.546799  0.571180  0.333367
    C   C19  0.709782  0.497593  0.496762  -0.144127
    C   C20  0.290216  0.497593  0.503238  -0.144706
    C   C21  0.964617  0.560931  0.502749  -0.192236
    C   C22  0.035381  0.560931  0.497250  -0.192304
    H   H7   0.938010  0.612742  0.506517  0.128634
    H   H8   0.061988  0.612742  0.493482  0.128655
    C   C23  0.071547  0.495854  0.495212  0.296438
    C   C24  0.928452  0.495854  0.504788  0.296357
    C   C25  0.035421  0.430725  0.499057  -0.227037
    C   C26  0.964577  0.430725  0.500943  -0.226936
    H   H9   0.062031  0.378926  0.501788  0.114197
    H   H10  0.937968  0.378926  0.498212  0.114175
    C   C27  0.538468  0.727922  0.580486  0.293371
    C   C28  0.461530  0.727922  0.419513  0.293407
    C   C29  0.537699  0.803443  0.583042  -0.321171
    C   C30  0.462299  0.803443  0.416957  -0.321192
    H   H11  0.566470  0.831643  0.651675  0.143753
    H   H12  0.433528  0.831643  0.348325  0.143760
    C   C31  0.499999  0.842117  0.500000  0.258591
    N   N1   0.499999  0.690815  0.500000  -0.125665
    C   C32  0.440564  0.960968  0.474417  -0.388341
    C   C33  0.559435  0.960968  0.525583  -0.388333
    H   H13  0.393211  0.932295  0.455909  0.168086
    H   H14  0.606787  0.932295  0.544091  0.168081
    C   C34  0.440619  0.036418  0.471900  0.535655
    C   C35  0.559379  0.036418  0.528100  0.535665
    C   C36  0.499999  0.074806  0.500000  -0.483947
    C   C37  0.499999  0.922651  0.500000  0.136968
    C   C38  0.545487  0.193658  0.429206  -0.209062
    C   C39  0.454511  0.193658  0.570793  -0.209077
    H   H15  0.581168  0.165079  0.371703  0.134779
    H   H16  0.418830  0.165079  0.628297  0.134776
    C   C40  0.544864  0.269058  0.430393  -0.106383
    C   C41  0.455135  0.269058  0.569606  -0.106342
    H   H17  0.580542  0.298977  0.374829  0.159331
    H   H18  0.419456  0.298977  0.625171  0.159304
    N   N2   0.499999  0.305510  0.500000  -0.005334
    C   C42  0.499999  0.155211  0.500000  0.569451
    N   N3   0.472328  0.372831  0.880869  -0.314501
    C   C43  0.408173  0.352194  0.911858  0.801375
    O   O9   0.367721  0.397304  0.950400  -0.599548
    C   C44  0.385958  0.274481  0.898831  -0.644603
    H   H19  0.507852  0.331227  0.877554  0.186148
    H   H20  0.427846  0.240625  0.860793  0.135097
    H   H21  0.340787  0.271895  0.838495  0.179304
    H   H22  0.371469  0.252565  0.987849  0.157859
    N   N4   0.527670  0.372831  0.119131  -0.314479
    C   C45  0.591826  0.352194  0.088142  0.801304
    O   O10  0.632277  0.397304  0.049599  -0.599525
    C   C46  0.614041  0.274481  0.101169  -0.644485
    H   H23  0.492147  0.331227  0.122446  0.186161
    H   H24  0.572153  0.240625  0.139207  0.135071
    H   H25  0.659212  0.271895  0.161505  0.179258
    H   H26  0.628530  0.252565  0.012151  0.157840
    N   N5   0.379468  0.073511  0.441277  -0.713465
    C   C47  0.376058  0.094043  0.325310  0.791832
    O   O11  0.428064  0.096564  0.264657  -0.592833
    C   C48  0.308629  0.113081  0.269890  -0.539125
    H   H27  0.334647  0.051216  0.473685  0.338521
    H   H28  0.266735  0.109999  0.336916  0.115821
    H   H29  0.297662  0.074533  0.195703  0.157149
    H   H30  0.311131  0.169520  0.233856  0.175870
    N   N6   0.620530  0.073511  0.558723  -0.713488
    C   C49  0.623940  0.094043  0.674690  0.791876
    O   O12  0.571934  0.096564  0.735343  -0.592853
    C   C50  0.691369  0.113081  0.730109  -0.539126
    H   H31  0.665351  0.051216  0.526315  0.338521
    H   H32  0.733263  0.109999  0.663084  0.115815
    H   H33  0.702336  0.074533  0.804297  0.157150
    H   H34  0.688867  0.169520  0.766144  0.175863
    N   N7   0.846611  0.401234  0.659553  -0.597778
    C   C51  0.866106  0.433600  0.762819  0.812914
    O   O13  0.870871  0.499975  0.768799  -0.591970
    C   C52  0.881255  0.388552  0.871009  -0.578430
    H   H35  0.823923  0.350880  0.670732  0.297349
    H   H36  0.876333  0.329447  0.850639  0.108132
    H   H37  0.844847  0.403262  0.943434  0.168677
    H   H38  0.934458  0.399842  0.901335  0.165612
    N   N8   0.153387  0.401234  0.340447  -0.597682
    C   C53  0.133892  0.433600  0.237181  0.812875
    O   O14  0.129128  0.499975  0.231200  -0.591963
    C   C54  0.118743  0.388552  0.128990  -0.578367
    H   H39  0.176075  0.350880  0.329267  0.297307
    H   H40  0.123665  0.329447  0.149361  0.108123
    H   H41  0.155151  0.403262  0.056565  0.168652
    H   H42  0.065541  0.399842  0.098665  0.165594
    N   N9   0.714460  0.597379  0.352421  -0.442225
    C   C55  0.695889  0.569248  0.245463  0.655837
    O   O15  0.692054  0.503231  0.232034  -0.497480
    C   C56  0.680782  0.618538  0.142316  -0.523809
    H   H43  0.736848  0.648229  0.346828  0.298012
    H   H44  0.684809  0.676709  0.169383  0.074317
    H   H45  0.627921  0.607828  0.109731  0.175000
    H   H46  0.717803  0.607431  0.069118  0.157056
    N   N10  0.285538  0.597379  0.647579  -0.442491
    C   C57  0.304110  0.569248  0.754537  0.656167
    O   O16  0.307945  0.503231  0.767966  -0.497572
    C   C58  0.319216  0.618538  0.857684  -0.524177
    H   H47  0.263151  0.648229  0.653171  0.297997
    H   H48  0.315190  0.676709  0.830617  0.074419
    H   H49  0.372077  0.607827  0.890269  0.175070
    H   H50  0.282195  0.607431  0.930882  0.157116
    N   N11  0.578015  0.689931  0.665930  -0.353836
    C   C59  0.646377  0.698475  0.651312  0.690305
    O   O17  0.669292  0.716370  0.554099  -0.579340
    C   C60  0.694550  0.685031  0.752883  -0.590764
    H   H51  0.561815  0.694993  0.753179  0.251637
    H   H52  0.666215  0.666852  0.833641  0.127293
    H   H53  0.722832  0.736144  0.773492  0.151585
    H   H54  0.731790  0.641960  0.726974  0.219791
    N   N12  0.421984  0.689931  0.334069  -0.353816
    C   C61  0.353622  0.698475  0.348687  0.690326
    O   O18  0.330706  0.716370  0.445901  -0.579351
    C   C62  0.305449  0.685031  0.247117  -0.590870
    H   H55  0.438184  0.694993  0.246820  0.251613
    H   H56  0.333783  0.666852  0.166359  0.127349
    H   H57  0.277166  0.736144  0.226507  0.151607
    H   H58  0.268208  0.641960  0.273026  0.219817
