# Generated by REPEAT Assigner based on pymatgen
data_DB0-m3_o4_o9_f0_nbo.sym.81_sqe
_audit_creation_date              2022-05-24
_audit_creation_method            REPEAT_Assigner
_cell_length_a                    19.076183
_cell_length_b                    18.957467
_cell_length_c                    18.914342
_cell_angle_alpha                 109.393111
_cell_angle_beta                  109.645611
_cell_angle_gamma                 109.592000
_cell_volume                      5251.344318
_symmetry_space_group_name_H-M    P1
_symmetry_Int_Tables_number       1
loop_
    _symmetry_equiv_pos_site_id
    _symmetry_equiv_pos_as_xyz
    1  x,y,z
loop_
    _atom_site_type_symbol
    _atom_site_label
    _atom_site_fract_x
    _atom_site_fract_y
    _atom_site_fract_z
    _atom_type_partial_charge
    O   O1   0.099387  0.952286  0.529758  -0.670616
    O   O2   0.109352  0.064536  0.638048  -0.655728
    C   C1   0.133664  0.008817  0.611786  0.701176
    O   O3   0.094740  0.041657  0.433541  -0.655979
    O   O4   0.104655  0.150549  0.545126  -0.668707
    C   C2   0.127354  0.123904  0.487699  0.603052
    Zn  Zn1  0.007610  0.934595  0.421503  1.242147
    Zn  Zn2  0.014768  0.076602  0.562893  1.295971
    O   O5   0.913125  0.946874  0.346322  -0.638091
    O   O6   0.923006  0.058930  0.454742  -0.702897
    O   O7   0.917644  0.860592  0.439135  -0.624296
    O   O8   0.927863  0.969505  0.551048  -0.723077
    C   C3   0.888925  0.002794  0.372781  0.698750
    C   C4   0.895011  0.887294  0.496510  0.669704
    H   H1   0.922567  0.951503  0.097319  0.112654
    C   C5   0.057693  0.009822  0.181205  -0.102095
    H   H2   0.066412  0.970887  0.132018  0.102690
    C   C6   0.127330  0.070759  0.263197  -0.242994
    H   H3   0.190435  0.079186  0.277879  0.142489
    C   C7   0.116423  0.120059  0.326565  0.316228
    C   C8   0.035640  0.109612  0.306576  -0.165889
    H   H4   0.026733  0.149645  0.354826  0.104107
    C   C9   0.966210  0.049178  0.224262  -0.090237
    H   H5   0.903249  0.041594  0.208417  0.100807
    C   C10  0.977093  0.998918  0.161760  -0.136518
    C   C11  0.258329  0.250891  0.417651  -0.168137
    H   H6   0.253799  0.249232  0.358543  0.116607
    C   C12  0.330232  0.317069  0.496627  0.180789
    C   C13  0.335436  0.318657  0.572327  -0.135674
    C   C14  0.267825  0.255326  0.567053  -0.239788
    H   H7   0.271318  0.257370  0.625990  0.143443
    C   C15  0.195869  0.189564  0.488083  0.205787
    C   C16  0.191563  0.186799  0.412470  -0.214626
    C   C17  0.452130  0.366217  0.715302  -0.184233
    H   H8   0.434575  0.299402  0.694732  0.114251
    C   C18  0.519095  0.430179  0.797794  -0.099500
    H   H9   0.553533  0.413311  0.841495  0.101412
    C   C19  0.542006  0.515559  0.824666  -0.141463
    H   H10  0.594375  0.565663  0.889412  0.102326
    C   C20  0.497648  0.536921  0.769121  -0.069829
    H   H11  0.515025  0.603787  0.790407  0.084160
    C   C21  0.430841  0.473000  0.686567  -0.189365
    H   H12  0.395742  0.489981  0.643692  0.156753
    C   C22  0.408474  0.387466  0.658876  0.247740
    C   C23  0.212300  0.939756  0.663278  0.077066
    C   C24  0.203129  0.010900  0.677531  -0.059440
    C   C25  0.262547  0.085052  0.758228  -0.165675
    H   H13  0.259098  0.143573  0.773252  0.143406
    C   C26  0.328163  0.085421  0.820384  -0.178356
    H   H14  0.373740  0.143505  0.882895  0.151837
    C   C27  0.333067  0.010805  0.803732  -0.025437
    C   C28  0.272758  0.939282  0.723611  0.075294
    C   C29  0.245608  0.847694  0.668693  -0.130263
    C   C30  0.174345  0.848241  0.597846  -0.171302
    H   H15  0.294556  0.842368  0.651756  0.100079
    H   H16  0.220877  0.805775  0.693786  0.050037
    H   H17  0.182902  0.841289  0.541225  0.095304
    C   C31  0.763311  0.745692  0.423850  0.123684
    C   C32  0.828632  0.821897  0.498168  -0.019355
    C   C33  0.828880  0.832935  0.574621  -0.154360
    H   H18  0.879243  0.891201  0.635465  0.146093
    C   C34  0.766449  0.767448  0.574167  -0.218762
    H   H19  0.768885  0.776175  0.634570  0.149297
    C   C35  0.700466  0.692235  0.496789  -0.035392
    C   C36  0.701453  0.685629  0.422895  0.100307
    C   C37  0.656513  0.625814  0.328219  -0.023832
    C   C38  0.728818  0.696780  0.329114  -0.306599
    H   H20  0.660051  0.565770  0.312924  0.042285
    H   H21  0.592057  0.617697  0.293533  0.042362
    H   H22  0.772206  0.676030  0.313669  0.105265
    H   H23  0.704808  0.728695  0.295411  0.110394
    C   C39  0.758558  0.929934  0.229379  0.133608
    C   C40  0.821004  0.003111  0.307818  -0.058830
    C   C41  0.817865  0.078403  0.321923  -0.123779
    H   H24  0.865994  0.138382  0.382041  0.138219
    C   C42  0.755350  0.078436  0.257085  -0.257457
    H   H25  0.755327  0.138127  0.267968  0.169504
    C   C43  0.692711  0.002411  0.179333  -0.017988
    C   C44  0.696555  0.929221  0.169572  0.070410
    C   C45  0.656168  0.836544  0.105833  -0.061466
    C   C46  0.728732  0.837096  0.176432  -0.238420
    H   H26  0.591035  0.797161  0.093905  0.051258
    H   H27  0.662636  0.827164  0.047748  0.058564
    H   H28  0.704164  0.798302  0.204214  0.088110
    H   H29  0.775252  0.827503  0.157398  0.092947
    O   O9   0.461279  0.590229  0.531817  -0.694246
    O   O10  0.571967  0.599157  0.640883  -0.625878
    C   C47  0.516248  0.623348  0.613961  0.667047
    O   O11  0.371606  0.407950  0.439572  -0.658814
    O   O12  0.478915  0.416433  0.551126  -0.628046
    C   C48  0.397190  0.383958  0.496337  0.536543
    Zn  Zn3  0.446151  0.500053  0.424300  1.302793
    Zn  Zn4  0.586341  0.506119  0.566418  1.259302
    O   O13  0.460136  0.406611  0.349889  -0.677289
    O   O14  0.571594  0.416445  0.458808  -0.700866
    O   O15  0.553541  0.589308  0.439142  -0.731870
    O   O16  0.661018  0.598880  0.551895  -0.652334
    C   C49  0.516311  0.382936  0.376638  0.767870
    C   C50  0.635080  0.622776  0.495165  0.719933
    O   O17  0.569727  0.150185  0.087398  -0.668359
    O   O18  0.456447  0.041489  0.075390  -0.697622
    C   C51  0.512646  0.123448  0.110091  0.727451
    O   O19  0.478820  0.062615  0.904443  -0.700999
    O   O20  0.368980  0.950329  0.892358  -0.666135
    C   C52  0.396889  0.007607  0.869830  0.702951
    Zn  Zn5  0.584535  0.075807  0.994748  1.286834
    Zn  Zn6  0.441256  0.933982  0.985196  1.286895
    O   O21  0.569519  0.968318  0.904782  -0.690919
    O   O22  0.456216  0.859596  0.892669  -0.664345
    O   O23  0.656834  0.059584  0.087640  -0.677924
    O   O24  0.546954  0.947173  0.075557  -0.706512
    C   C53  0.513735  0.886353  0.870469  0.701687
    C   C54  0.628897  0.002298  0.110121  0.719781
    C   C55  0.442465  0.686917  0.675481  0.079594
    C   C56  0.516950  0.692071  0.678909  0.019808
    C   C57  0.593698  0.765309  0.748186  -0.240509
    H   H30  0.654363  0.772750  0.753798  0.148847
    C   C58  0.593208  0.830745  0.809601  -0.101443
    H   H31  0.653550  0.887727  0.862644  0.135648
    C   C59  0.516130  0.821218  0.804864  -0.114395
    C   C60  0.442316  0.746677  0.736639  0.098710
    C   C61  0.347367  0.700397  0.697011  -0.094889
    C   C62  0.347495  0.630068  0.625009  -0.103112
    H   H32  0.326601  0.677625  0.737271  0.060662
    H   H33  0.317988  0.734894  0.672952  0.043413
    H   H34  0.326037  0.568130  0.625073  0.025017
    H   H35  0.318418  0.625858  0.561126  0.056954
    C   C63  0.442168  0.245653  0.239328  0.130899
    C   C64  0.517053  0.315863  0.311280  -0.150590
    C   C65  0.593479  0.321326  0.317655  -0.099413
    H   H36  0.654480  0.375722  0.372644  0.133599
    C   C66  0.592244  0.259071  0.251302  -0.229049
    H   H37  0.652438  0.265472  0.256284  0.158004
    C   C67  0.514639  0.188470  0.180144  -0.053169
    C   C68  0.440977  0.184126  0.178515  0.109610
    C   C69  0.345744  0.132586  0.124623  -0.189174
    C   C70  0.347097  0.204694  0.196566  -0.136351
    H   H38  0.321884  0.131539  0.061910  0.079877
    H   H39  0.319029  0.069314  0.121758  0.082736
    H   H40  0.323536  0.243470  0.173790  0.070159
    H   H41  0.321524  0.181857  0.234243  0.080958
    C   C71  0.084854  0.791350  0.575786  0.219235
    C   C72  0.062063  0.798515  0.639020  -0.138833
    C   C73  0.979155  0.744331  0.616322  -0.258489
    C   C74  0.918628  0.683103  0.530736  0.367248
    F   F1   0.837664  0.628933  0.508800  -0.205051
    C   C75  0.940595  0.676771  0.467505  -0.290487
    C   C76  0.023429  0.730715  0.489951  -0.183349
    H   H42  0.108447  0.845608  0.706664  0.116495
    H   H43  0.961706  0.749611  0.665854  0.148288
    H   H44  0.892953  0.629120  0.400277  0.173199
    H   H45  0.040073  0.724810  0.439825  0.120496
