# Generated by REPEAT Assigner based on pymatgen
data_DB0-m3_o19_o52_f0_fsc.sym.7
_audit_creation_date              2022-05-24
_audit_creation_method            REPEAT_Assigner
_cell_length_a                    10.199840
_cell_length_b                    8.542491
_cell_length_c                    15.032015
_cell_angle_alpha                 90.000000
_cell_angle_beta                  90.987576
_cell_angle_gamma                 90.000000
_cell_volume                      1309.575610
_symmetry_space_group_name_H-M    P1
_symmetry_Int_Tables_number       1
loop_
    _symmetry_equiv_pos_site_id
    _symmetry_equiv_pos_as_xyz
    1  x,y,z
loop_
    _atom_site_type_symbol
    _atom_site_label
    _atom_site_fract_x
    _atom_site_fract_y
    _atom_site_fract_z
    _atom_type_partial_charge
    H   H1   0.053620  0.000000  0.562108  0.127902
    H   H2   0.946381  0.000000  0.437892  0.128039
    C   C1   0.016978  0.139383  0.675364  -0.285858
    C   C2   0.983023  0.860617  0.324636  -0.285753
    C   C3   0.983023  0.139383  0.324636  -0.285752
    C   C4   0.016978  0.860617  0.675364  -0.285859
    C   C5   0.998618  0.140667  0.766016  0.474648
    C   C6   0.001383  0.859333  0.233985  0.474633
    C   C7   0.001383  0.140667  0.233985  0.474634
    C   C8   0.998618  0.859333  0.766016  0.474646
    C   C9   0.996619  0.000000  0.812856  -0.582366
    C   C10  0.003381  0.000000  0.187144  -0.582486
    N   N1   0.682335  0.500000  0.510089  -0.068439
    N   N2   0.317666  0.500000  0.489911  -0.068535
    C   C11  0.569065  0.500000  0.504233  0.205284
    C   C12  0.430935  0.500000  0.495767  0.205491
    C   C13  0.034461  0.000000  0.632123  0.002921
    C   C14  0.965539  0.000000  0.367877  0.002813
    N   N3   0.997917  0.864137  0.956025  -0.256261
    N   N4   0.002084  0.135863  0.043975  -0.256291
    N   N5   0.002084  0.864137  0.043975  -0.256290
    N   N6   0.997917  0.135863  0.956025  -0.256261
    C   C15  0.004879  0.000000  0.089203  0.794119
    C   C16  0.995122  0.000000  0.910798  0.793924
    O   O1   0.120174  0.669331  0.585819  -0.699179
    O   O2   0.879826  0.330669  0.414181  -0.699273
    O   O3   0.879826  0.669331  0.414181  -0.699271
    O   O4   0.120174  0.330669  0.585819  -0.699181
    O   O5   0.895131  0.663443  0.598800  -0.674375
    O   O6   0.104870  0.336557  0.401200  -0.674054
    O   O7   0.104870  0.663443  0.401200  -0.674053
    O   O8   0.895131  0.336557  0.598800  -0.674377
    C   C17  0.011224  0.718462  0.621491  0.879040
    C   C18  0.988776  0.281538  0.378510  0.878756
    C   C19  0.988776  0.718462  0.378510  0.878754
    C   C20  0.011224  0.281538  0.621491  0.879042
    Zn  Zn1  0.854249  0.500000  0.505576  1.064844
    Zn  Zn2  0.145752  0.500000  0.494424  1.064448
    F   F1   0.985835  0.280134  0.807943  -0.210007
    F   F2   0.014166  0.719866  0.192057  -0.210005
    F   F3   0.014166  0.280134  0.192057  -0.210005
    F   F4   0.985835  0.719866  0.807943  -0.210006
