# Generated by REPEAT Assigner based on pymatgen
data_DB0-m3_o7_o26_f0_pcu.sym.44
_audit_creation_date              2022-05-24
_audit_creation_method            REPEAT_Assigner
_cell_length_a                    16.620416
_cell_length_b                    17.461342
_cell_length_c                    17.764411
_cell_angle_alpha                 90.007176
_cell_angle_beta                  90.000508
_cell_angle_gamma                 86.295738
_cell_volume                      5144.723690
_symmetry_space_group_name_H-M    P1
_symmetry_Int_Tables_number       1
loop_
    _symmetry_equiv_pos_site_id
    _symmetry_equiv_pos_as_xyz
    1  x,y,z
loop_
    _atom_site_type_symbol
    _atom_site_label
    _atom_site_fract_x
    _atom_site_fract_y
    _atom_site_fract_z
    _atom_type_partial_charge
    O   O1   0.568766  0.489271  0.386778  -0.669514
    O   O2   0.430126  0.502420  0.611611  -0.747458
    O   O3   0.429947  0.491183  0.387610  -0.668297
    O   O4   0.568965  0.500969  0.610790  -0.728660
    C   C1   0.499257  0.487405  0.352018  0.688691
    C   C2   0.499610  0.504488  0.646387  0.811162
    O   O5   0.575934  0.380997  0.504408  -0.646656
    O   O6   0.422985  0.610992  0.494204  -0.643580
    O   O7   0.437194  0.382607  0.505034  -0.579993
    O   O8   0.561722  0.609353  0.493062  -0.659608
    C   C3   0.508530  0.345904  0.506328  0.699032
    C   C4   0.490393  0.646070  0.492024  0.764887
    Zn  Zn1  0.590973  0.495071  0.498705  1.079254
    Zn  Zn2  0.407923  0.496905  0.499676  1.056787
    C   C5   0.512944  0.261819  0.508560  -0.117357
    C   C6   0.486043  0.730149  0.489629  -0.168226
    C   C7   0.443137  0.222903  0.509571  -0.062852
    C   C8   0.555899  0.768990  0.489759  0.015863
    C   C9   0.446974  0.143797  0.510324  -0.195621
    C   C10  0.552185  0.848081  0.488875  -0.237773
    C   C11  0.520973  0.102441  0.509558  0.254398
    C   C12  0.478233  0.889547  0.488395  0.272260
    C   C13  0.590529  0.141582  0.510153  -0.261563
    C   C14  0.408646  0.850465  0.486596  -0.251523
    C   C15  0.586769  0.220664  0.509200  -0.009339
    C   C16  0.412289  0.771376  0.487632  -0.031925
    C   C17  0.528912  0.017891  0.510626  -0.213364
    C   C18  0.470385  0.974128  0.487376  -0.233581
    H   H1   0.384576  0.253611  0.510003  0.104061
    H   H2   0.614433  0.738233  0.490432  0.068258
    H   H3   0.356669  0.742569  0.487023  0.090936
    H   H4   0.642361  0.249518  0.508735  0.071341
    H   H5   0.413738  0.000383  0.467300  0.135316
    H   H6   0.585633  0.991762  0.530628  0.131852
    H   H7   0.648749  0.110187  0.510352  0.124821
    H   H8   0.350466  0.881905  0.485352  0.122360
    H   H9   0.608227  0.875879  0.486932  0.131569
    H   H10  0.391063  0.115837  0.513238  0.119313
    C   C19  0.555777  0.539771  0.848186  -0.181303
    C   C20  0.440966  0.451464  0.151072  -0.169159
    H   H11  0.598899  0.568894  0.881404  0.132379
    H   H12  0.396839  0.422813  0.118625  0.126672
    C   C21  0.555935  0.545482  0.770538  -0.155408
    C   C22  0.441620  0.446314  0.228735  -0.224973
    C   C23  0.499130  0.507762  0.729007  -0.037175
    C   C24  0.499493  0.483386  0.269453  0.033015
    C   C25  0.441330  0.468838  0.766547  -0.088753
    C   C26  0.557696  0.521035  0.231179  -0.096423
    H   H13  0.396990  0.439127  0.735387  0.114809
    H   H14  0.602873  0.550235  0.261740  0.108224
    C   C27  0.441004  0.464967  0.843943  -0.198090
    C   C28  0.557308  0.524298  0.153755  -0.194113
    H   H15  0.395946  0.433852  0.872628  0.140509
    H   H16  0.602678  0.554433  0.124425  0.139077
    C   C29  0.498660  0.499848  0.884684  0.302369
    C   C30  0.498529  0.490154  0.113773  0.300053
    C   C31  0.498332  0.496206  0.965343  -0.180304
    C   C32  0.498288  0.493402  0.033095  -0.178082
    C   C33  0.838486  0.430669  0.472068  -0.321564
    C   C34  0.160289  0.560204  0.472146  -0.313301
    C   C35  0.755248  0.432111  0.473774  0.017450
    C   C36  0.243484  0.559066  0.474045  0.031611
    H   H17  0.724485  0.383397  0.453954  0.135056
    H   H18  0.274035  0.607386  0.453057  0.102983
    N   N1   0.711311  0.494488  0.498241  -0.105802
    N   N2   0.287568  0.497473  0.500062  -0.063491
    C   C37  0.747027  0.557028  0.521933  0.154787
    C   C38  0.251937  0.435474  0.525270  0.163328
    H   H19  0.709953  0.605801  0.542107  0.172006
    H   H20  0.289142  0.387421  0.546693  0.099250
    C   C39  0.830017  0.558622  0.522371  -0.434384
    C   C40  0.168938  0.433344  0.525208  -0.396311
    C   C41  0.876682  0.494750  0.496965  0.523100
    C   C42  0.122174  0.496443  0.497979  0.483878
    C   C43  0.963156  0.495295  0.496598  -0.201276
    C   C44  0.035707  0.495817  0.496932  -0.155508
    C   C45  0.882801  0.360380  0.443721  0.764028
    O   O9   0.952219  0.361178  0.421693  -0.481218
    O   O10  0.844673  0.294673  0.439438  -0.307917
    C   C46  0.883214  0.228657  0.412058  -0.044328
    H   H21  0.841272  0.181805  0.413648  0.105925
    H   H22  0.936614  0.212279  0.447369  0.051616
    H   H23  0.902197  0.237593  0.353007  0.068893
    C   C47  0.115934  0.629998  0.442696  0.749356
    O   O11  0.046634  0.628777  0.420442  -0.472717
    O   O12  0.153886  0.695769  0.437852  -0.304173
    C   C48  0.115329  0.761375  0.409605  -0.047149
    H   H24  0.157137  0.808351  0.410861  0.102464
    H   H25  0.061699  0.778044  0.444514  0.053995
    H   H26  0.096699  0.751699  0.350577  0.071867
    C   C49  0.865373  0.629075  0.549411  0.841123
    O   O13  0.824215  0.689485  0.549450  -0.544513
    O   O14  0.940875  0.627365  0.577379  -0.352956
    C   C50  0.972812  0.692756  0.603526  0.057890
    H   H27  0.035438  0.678663  0.622934  0.050159
    H   H28  0.936282  0.716477  0.651399  0.032365
    H   H29  0.973718  0.735766  0.557649  0.068950
    C   C51  0.134013  0.363134  0.553783  0.774790
    O   O15  0.177158  0.304297  0.560135  -0.514730
    O   O16  0.056251  0.363221  0.575385  -0.310712
    C   C52  0.024444  0.297813  0.601654  0.023067
    H   H30  0.959807  0.310444  0.615177  0.052550
    H   H31  0.056822  0.277778  0.653333  0.052020
    H   H32  0.029740  0.252520  0.557829  0.071651
    C   C53  0.613648  0.595559  0.736043  0.712014
    O   O17  0.595642  0.632538  0.679574  -0.455006
    O   O18  0.684184  0.605705  0.770961  -0.406228
    C   C54  0.738284  0.653595  0.741467  0.150626
    H   H33  0.791961  0.653428  0.778550  0.051114
    H   H34  0.710288  0.712889  0.737758  0.026594
    H   H35  0.757347  0.633095  0.684788  -0.000828
    C   C55  0.383565  0.397489  0.264442  0.761889
    O   O19  0.402860  0.358784  0.319498  -0.481633
    O   O20  0.310697  0.390994  0.232630  -0.351729
    C   C56  0.255903  0.345040  0.264110  -0.001333
    H   H36  0.200091  0.348343  0.229742  0.077017
    H   H37  0.241078  0.364961  0.322096  0.053968
    H   H38  0.281219  0.284692  0.265440  0.050830
