# Generated by REPEAT Assigner based on pymatgen
data_DB0-m3_o160_o45_f0_fsc.sym.57_sqe
_audit_creation_date              2022-05-24
_audit_creation_method            REPEAT_Assigner
_cell_length_a                    8.546090
_cell_length_b                    12.779069
_cell_length_c                    13.420751
_cell_angle_alpha                 90.577304
_cell_angle_beta                  90.525224
_cell_angle_gamma                 93.598751
_cell_volume                      1462.659654
_symmetry_space_group_name_H-M    P1
_symmetry_Int_Tables_number       1
loop_
    _symmetry_equiv_pos_site_id
    _symmetry_equiv_pos_as_xyz
    1  x,y,z
loop_
    _atom_site_type_symbol
    _atom_site_label
    _atom_site_fract_x
    _atom_site_fract_y
    _atom_site_fract_z
    _atom_type_partial_charge
    C   C1   0.153588  0.704718  0.011670  0.073077
    C   C2   0.168508  0.810982  0.996384  -0.464929
    H   H1   0.283503  0.849925  0.987814  0.143827
    C   C3   0.037057  0.868420  0.994389  0.599188
    C   C4   0.888279  0.816874  0.997906  -0.281472
    H   H2   0.782236  0.857900  0.989225  0.080754
    C   C5   0.874840  0.709582  0.012205  -0.020730
    C   C6   0.007714  0.655897  0.024690  -0.232245
    N   N1   0.058928  0.978605  0.986933  -0.284184
    N   N2   0.935500  0.023293  0.999211  -0.254800
    C   C7   0.825943  0.190949  0.990271  -0.501543
    H   H3   0.710880  0.151915  0.998086  0.153397
    C   C8   0.841027  0.297410  0.976273  0.199108
    C   C9   0.986807  0.346391  0.963954  -0.316244
    C   C10  0.119526  0.292573  0.975838  0.037058
    C   C11  0.106154  0.185117  0.989109  -0.362947
    H   H4   0.212200  0.144033  0.997471  0.102368
    C   C12  0.957383  0.133505  0.992079  0.650277
    H   H5   0.996693  0.573030  0.038281  0.134885
    H   H6   0.997859  0.429407  0.951178  0.166196
    O   O1   0.334641  0.612953  0.916795  -0.743182
    O   O2   0.341156  0.601530  0.088613  -0.754789
    C   C13  0.287934  0.640358  0.005746  0.927519
    O   O3   0.321327  0.384701  0.070988  -0.713741
    O   O4   0.325780  0.395947  0.899841  -0.723898
    C   C14  0.269160  0.354846  0.982157  0.875529
    O   O5   0.660442  0.389497  0.071014  -0.636800
    O   O6   0.653514  0.400565  0.899772  -0.724471
    C   C15  0.706866  0.361759  0.982329  0.777415
    O   O7   0.672497  0.617833  0.916937  -0.735747
    O   O8   0.668464  0.606264  0.088604  -0.759989
    C   C16  0.724993  0.647334  0.006008  0.924686
    Zn  Zn1  0.498028  0.491487  0.105005  0.997468
    Zn  Zn2  0.496516  0.510434  0.883269  1.061617
    C   C17  0.487354  0.426646  0.704021  -0.360550
    N   N3   0.495219  0.519050  0.752940  0.223619
    C   C18  0.503888  0.609154  0.701859  -0.254105
    C   C19  0.504615  0.607542  0.598661  -0.022188
    C   C20  0.496811  0.512377  0.546551  -0.338044
    C   C21  0.488195  0.421994  0.601783  0.779510
    C   C22  0.503586  0.590158  0.381290  -0.322662
    C   C23  0.498109  0.503715  0.442328  0.380417
    C   C24  0.493627  0.405191  0.397423  -0.219642
    C   C25  0.482750  0.317255  0.457663  0.396062
    N   N4   0.480637  0.327621  0.557050  -0.733879
    C   C26  0.502860  0.577755  0.279530  -0.034330
    N   N5   0.499365  0.482273  0.235648  0.049931
    C   C27  0.498456  0.395242  0.293303  0.082351
    H   H7   0.510930  0.683355  0.741546  0.191680
    H   H8   0.475696  0.238485  0.428185  0.077505
    H   H9   0.512676  0.682377  0.562657  0.119424
    H   H10  0.506461  0.669321  0.409194  0.173045
    H   H11  0.481263  0.354270  0.745075  0.198412
    H   H12  0.506035  0.647529  0.234842  0.170029
    C   C28  0.502922  0.287974  0.246844  -0.155672
    C   C29  0.661188  0.242893  0.265845  0.120662
    C   C30  0.647415  0.125146  0.248738  0.196307
    C   C31  0.807248  0.081155  0.259382  -0.322899
    H   H13  0.484302  0.288561  0.166216  0.120574
    H   H14  0.405479  0.235606  0.275141  0.011029
    H   H15  0.704273  0.260325  0.342598  -0.035829
    H   H16  0.748344  0.278812  0.213794  -0.029829
    H   H17  0.600343  0.107514  0.172740  -0.040679
    H   H18  0.567121  0.087978  0.304395  -0.027895
    H   H19  0.887838  0.116414  0.202879  0.093357
    H   H20  0.795683  0.994941  0.247922  0.063403
    H   H21  0.855445  0.099044  0.335081  0.058230
