# Generated by REPEAT Assigner based on pymatgen
data_DB0-m3_o11_o22_f0_pcu.sym.109
_audit_creation_date              2022-05-24
_audit_creation_method            REPEAT_Assigner
_cell_length_a                    10.777198
_cell_length_b                    11.132585
_cell_length_c                    9.917339
_cell_angle_alpha                 89.997371
_cell_angle_beta                  89.988648
_cell_angle_gamma                 90.006243
_cell_volume                      1189.863215
_symmetry_space_group_name_H-M    P1
_symmetry_Int_Tables_number       1
loop_
    _symmetry_equiv_pos_site_id
    _symmetry_equiv_pos_as_xyz
    1  x,y,z
loop_
    _atom_site_type_symbol
    _atom_site_label
    _atom_site_fract_x
    _atom_site_fract_y
    _atom_site_fract_z
    _atom_type_partial_charge
    O   O1   0.501169  0.323428  0.624077  -0.700679
    O   O2   0.501186  0.323601  0.391756  -0.748951
    C   C1   0.499808  0.267446  0.508138  0.885982
    O   O3   0.319251  0.506180  0.630387  -0.723156
    O   O4   0.319006  0.505572  0.398114  -0.714713
    C   C2   0.260997  0.506408  0.514138  0.664423
    Zn  Zn1  0.504508  0.501524  0.665111  1.112383
    Zn  Zn2  0.503283  0.503250  0.358278  1.123737
    O   O5   0.507452  0.681052  0.631987  -0.701884
    O   O6   0.506650  0.681658  0.398745  -0.693471
    O   O7   0.689002  0.500275  0.625850  -0.656084
    O   O8   0.688647  0.500335  0.392681  -0.672488
    C   C3   0.507441  0.737296  0.515561  0.789098
    C   C4   0.746871  0.498886  0.509318  0.610361
    C   C5   0.077129  0.399034  0.596182  -0.158583
    H   H1   0.114462  0.405130  0.700126  0.028058
    H   H2   0.111349  0.314371  0.551087  -0.022034
    C   C6   0.936688  0.403330  0.604662  0.069401
    H   H3   0.915809  0.433977  0.708446  0.013797
    H   H4   0.100080  0.628996  0.679008  0.001965
    H   H5   0.891662  0.638003  0.665873  0.004868
    C   C7   0.071323  0.620603  0.572051  -0.042256
    C   C8   0.075825  0.490344  0.369097  -0.069366
    C   C9   0.122276  0.504556  0.513086  0.339109
    H   H6   0.108048  0.566756  0.306357  0.000306
    H   H7   0.110587  0.405067  0.325270  0.000065
    C   C10  0.885760  0.500512  0.510166  0.178850
    C   C11  0.930430  0.620819  0.564090  -0.096681
    C   C12  0.935384  0.489146  0.367163  -0.026084
    H   H8   0.900712  0.407414  0.316403  -0.028979
    H   H9   0.904121  0.567278  0.306621  0.011926
    H   H10  0.108278  0.698307  0.514718  -0.015066
    H   H11  0.899651  0.694117  0.496163  0.027384
    C   C13  0.504406  0.934594  0.405080  -0.002313
    C   C14  0.507712  0.868935  0.518434  -0.308789
    H   H12  0.502962  0.889318  0.308400  0.098159
    H   H13  0.512198  0.909688  0.617013  0.161061
    C   C15  0.506158  0.067718  0.402485  -0.056279
    C   C16  0.494959  0.135987  0.512826  -0.270500
    H   H14  0.516834  0.110649  0.305114  0.112102
    H   H15  0.481320  0.097188  0.611331  0.130489
    C   C17  0.574277  0.571237  0.937075  0.107403
    N   N1   0.507827  0.498636  0.866733  -0.274639
    H   H16  0.627831  0.640145  0.886318  0.122170
    H   H17  0.472687  0.424591  0.915186  0.243478
    C   C18  0.585215  0.559750  0.085518  0.095771
    N   N2   0.501289  0.507619  0.156663  -0.275894
    H   H18  0.663895  0.600881  0.135491  0.129237
    H   H19  0.420379  0.484639  0.108571  0.253853
    C   C19  0.879032  0.280863  0.589491  0.049339
    C   C20  0.807149  0.236807  0.694242  -0.080558
    C   C21  0.762442  0.120861  0.690960  0.012290
    Cl  Cl1  0.676720  0.065204  0.827379  -0.120993
    C   C22  0.787814  0.047891  0.582411  0.013695
    C   C23  0.857955  0.090979  0.477036  -0.199535
    C   C24  0.904256  0.206384  0.480693  -0.138505
    H   H20  0.787375  0.291420  0.781756  0.071303
    H   H21  0.754601  0.956369  0.580873  0.072607
    H   H22  0.879489  0.033120  0.392684  0.121693
    H   H23  0.964581  0.234520  0.400003  0.142120
