# Generated by REPEAT Assigner based on pymatgen
data_DB0-m29_o88_o42_f0_pts.sym.46
_audit_creation_date              2022-05-24
_audit_creation_method            REPEAT_Assigner
_cell_length_a                    15.364949
_cell_length_b                    9.299067
_cell_length_c                    15.730477
_cell_angle_alpha                 92.126545
_cell_angle_beta                  103.534794
_cell_angle_gamma                 107.236720
_cell_volume                      2073.247558
_symmetry_space_group_name_H-M    P1
_symmetry_Int_Tables_number       1
loop_
    _symmetry_equiv_pos_site_id
    _symmetry_equiv_pos_as_xyz
    1  x,y,z
loop_
    _atom_site_type_symbol
    _atom_site_label
    _atom_site_fract_x
    _atom_site_fract_y
    _atom_site_fract_z
    _atom_type_partial_charge
    C   C1   0.776920  0.885581  0.142736  -0.087377
    H   H1   0.761108  0.826404  0.197861  0.120154
    C   C2   0.856345  0.885543  0.116743  -0.192676
    H   H2   0.901033  0.824652  0.151475  0.143471
    C   C3   0.879387  0.962889  0.047844  0.237763
    C   C4   0.821855  0.043686  0.006737  -0.165730
    H   H3   0.841821  0.117224  0.958784  0.126661
    C   C5   0.736105  0.029248  0.025810  0.007530
    C   C6   0.716360  0.956816  0.097862  0.044103
    C   C7   0.966445  0.956961  0.024801  -0.201973
    C   C8   0.989717  0.983396  0.948076  -0.053567
    H   H4   0.013614  0.919316  0.074743  0.128532
    C   C9   0.090163  0.933396  0.855973  -0.121858
    H   H5   0.029605  0.896494  0.799842  0.094799
    C   C10  0.176594  0.936706  0.843812  -0.142169
    H   H6   0.182622  0.908742  0.778568  0.145240
    C   C11  0.255836  0.982096  0.913322  0.096809
    C   C12  0.247413  0.016524  0.997094  -0.038093
    C   C13  0.161217  0.018589  0.008507  -0.162814
    H   H7   0.156748  0.054179  0.072951  0.149333
    C   C14  0.081962  0.977650  0.938027  0.145518
    O   O1   0.537475  0.193000  0.793776  -0.524701
    C   C15  0.493806  0.198702  0.712138  0.561383
    O   O2   0.414212  0.138651  0.924108  -0.454185
    O   O3   0.434906  0.075051  0.663472  -0.517778
    O   O4   0.365314  0.904624  0.848501  -0.546175
    C   C16  0.348190  0.008076  0.895178  0.489138
    Fe  Fe1  0.493937  0.989812  0.832452  1.390267
    O   O5   0.572967  0.998556  0.954959  -0.429934
    O   O6   0.684904  0.121159  0.888907  -0.507140
    C   C17  0.662613  0.063354  0.958638  0.526077
    O   O7   0.503737  0.857035  0.733891  -0.545212
    O   O8   0.519131  0.714710  0.846782  -0.520201
    C   C18  0.515232  0.731755  0.763688  0.556287
    O   O9   0.503250  0.154982  0.284140  -0.501554
    O   O10  0.494049  0.302844  0.173397  -0.422772
    C   C19  0.499751  0.285334  0.256715  0.472464
    O   O11  0.398677  0.995037  0.067163  -0.500201
    O   O12  0.318705  0.074603  0.153311  -0.516282
    C   C20  0.326436  0.037160  0.074803  0.595921
    O   O13  0.568680  0.930753  0.348698  -0.535213
    O   O14  0.611580  0.070273  0.147782  -0.597556
    C   C21  0.631373  0.947374  0.126808  0.596236
    O   O15  0.447583  0.811282  0.230034  -0.638209
    C   C22  0.501590  0.808049  0.307461  0.659274
    O   O16  0.578913  0.814801  0.139840  -0.486181
    Fe  Fe2  0.491298  0.006601  0.182684  1.452941
    C   C23  0.499149  0.409689  0.317186  0.143400
    C   C24  0.504927  0.395604  0.405721  -0.246040
    H   H8   0.512133  0.291156  0.428251  0.168195
    C   C25  0.503312  0.513816  0.462740  0.154625
    C   C26  0.501992  0.649167  0.428163  -0.225837
    H   H9   0.502735  0.747931  0.466052  0.121334
    C   C27  0.496985  0.662640  0.340680  0.095592
    C   C28  0.492897  0.542659  0.284782  -0.230671
    C   C29  0.512782  0.620715  0.616624  -0.149953
    H   H10  0.515922  0.730576  0.596845  0.128583
    C   C30  0.515760  0.605926  0.704315  0.095039
    C   C31  0.515277  0.469670  0.735837  -0.218421
    C   C32  0.503751  0.345816  0.678853  0.065253
    C   C33  0.496056  0.358369  0.590501  -0.164130
    H   H11  0.483356  0.255852  0.549236  0.131034
    C   C34  0.505011  0.497908  0.557862  0.027396
    H   H12  0.489623  0.556806  0.216386  0.207440
    H   H13  0.517612  0.456339  0.804173  0.172305
    C   C35  0.926180  0.012402  0.870196  0.164908
    C   C36  0.960320  0.134247  0.826702  -0.037376
    C   C37  0.904424  0.159920  0.750508  -0.372796
    C   C38  0.814300  0.062973  0.715937  0.546982
    O   O17  0.762836  0.091791  0.640306  -0.353068
    C   C39  0.673238  0.002160  0.598378  0.097515
    C   C40  0.779955  0.939186  0.759107  -0.214204
    C   C41  0.836158  0.913946  0.835833  -0.142615
    H   H14  0.031206  0.210617  0.852507  0.110525
    H   H15  0.931746  0.256081  0.717058  0.177251
    H   H16  0.647559  0.050323  0.537618  0.092258
    H   H17  0.625673  0.999809  0.641848  0.077099
    H   H18  0.673771  0.886183  0.580000  0.017632
    H   H19  0.710010  0.859654  0.734201  0.090921
    H   H20  0.809858  0.815759  0.868212  0.139474
