data_DB0-m3_o25_o110_f0_fsc_repeat
_audit_creation_date              2024-02-23
_audit_creation_method            'Materials Studio'
_symmetry_space_group_name_H-M    'P1'
_symmetry_Int_Tables_number       1
_symmetry_cell_setting            triclinic
loop_
_symmetry_equiv_pos_as_xyz
  x,y,z
_cell_length_a                    14.3515
_cell_length_b                    16.5554
_cell_length_c                    16.7604
_cell_angle_alpha                 90.0697
_cell_angle_beta                  98.8384
_cell_angle_gamma                 90.7008
loop_
_atom_site_label
_atom_site_type_symbol
_atom_site_fract_x
_atom_site_fract_y
_atom_site_fract_z
_atom_site_U_iso_or_equiv
_atom_site_adp_type
_atom_site_occupancy
O1     O     0.92697   0.08326   0.07721   0.00000  Uiso   1.00
O2     O     0.07303   0.91674   0.92279   0.00000  Uiso   1.00
O3     O     0.08742   0.08475   0.09405   0.00000  Uiso   1.00
O4     O     0.91258   0.91524   0.90595   0.00000  Uiso   1.00
C1     C     0.00824   0.11173   0.11382   0.00000  Uiso   1.00
C2     C     0.99176   0.88827   0.88618   0.00000  Uiso   1.00
O5     O     0.08605   0.91687   0.09439   0.00000  Uiso   1.00
O6     O     0.91395   0.08313   0.90561   0.00000  Uiso   1.00
O7     O     0.92556   0.91527   0.07635   0.00000  Uiso   1.00
O8     O     0.07444   0.08473   0.92364   0.00000  Uiso   1.00
C3     C     0.00649   0.88835   0.11348   0.00000  Uiso   1.00
C4     C     0.99351   0.11165   0.88652   0.00000  Uiso   1.00
Zn1    Zn    0.10491   0.00053   0.01038   0.00000  Uiso   1.00
Zn2    Zn    0.89509   0.99946   0.98962   0.00000  Uiso   1.00
C5     C     0.51246   0.03641   0.93224   0.00000  Uiso   1.00
C6     C     0.48754   0.96359   0.06776   0.00000  Uiso   1.00
C7     C     0.45130   0.96149   0.93798   0.00000  Uiso   1.00
C8     C     0.54870   0.03851   0.06202   0.00000  Uiso   1.00
H1     H     0.40884   0.92933   0.88646   0.00000  Uiso   1.00
H2     H     0.59116   0.07067   0.11354   0.00000  Uiso   1.00
H3     H     0.52451   0.06663   0.87564   0.00000  Uiso   1.00
H4     H     0.47549   0.93337   0.12436   0.00000  Uiso   1.00
H5     H     0.55437   0.86177   0.99752   0.00000  Uiso   1.00
H6     H     0.44563   0.13823   0.00248   0.00000  Uiso   1.00
N1     N     0.23012   0.00111   0.01671   0.00000  Uiso   1.00
N2     N     0.76988   0.99889   0.98329   0.00000  Uiso   1.00
C9     C     0.47128   0.07540   0.00118   0.00000  Uiso   1.00
C10    C     0.52872   0.92460   0.99882   0.00000  Uiso   1.00
C11    C     0.41171   0.00047   0.00684   0.00000  Uiso   1.00
C12    C     0.58829   0.99953   0.99316   0.00000  Uiso   1.00
C13    C     0.31035   0.00090   0.01331   0.00000  Uiso   1.00
C14    C     0.68965   0.99910   0.98669   0.00000  Uiso   1.00
H7     H     0.07465   0.42137   0.22427   0.00000  Uiso   1.00
H8     H     0.92535   0.57863   0.77573   0.00000  Uiso   1.00
C15    C     0.99803   0.75637   0.45856   0.00000  Uiso   1.00
C16    C     0.00197   0.24363   0.54144   0.00000  Uiso   1.00
C17    C     0.99710   0.75641   0.54046   0.00000  Uiso   1.00
C18    C     0.00290   0.24359   0.45954   0.00000  Uiso   1.00
C19    C     0.99671   0.67637   0.56373   0.00000  Uiso   1.00
C20    C     0.00329   0.32363   0.43627   0.00000  Uiso   1.00
N3     N     0.99834   0.62759   0.49956   0.00000  Uiso   1.00
N4     N     0.00166   0.37241   0.50044   0.00000  Uiso   1.00
C21    C     0.99940   0.67632   0.43534   0.00000  Uiso   1.00
C22    C     0.00060   0.32368   0.56466   0.00000  Uiso   1.00
C23    C     0.99261   0.65126   0.63910   0.00000  Uiso   1.00
C24    C     0.00739   0.34874   0.36090   0.00000  Uiso   1.00
C25    C     0.98385   0.56547   0.66175   0.00000  Uiso   1.00
C26    C     0.01615   0.43453   0.33825   0.00000  Uiso   1.00
C27    C     0.94971   0.54101   0.73060   0.00000  Uiso   1.00
C28    C     0.05029   0.45899   0.26940   0.00000  Uiso   1.00
C29    C     0.95068   0.45795   0.73088   0.00000  Uiso   1.00
C30    C     0.04932   0.54205   0.26912   0.00000  Uiso   1.00
C31    C     0.98540   0.43436   0.66219   0.00000  Uiso   1.00
C32    C     0.01460   0.56564   0.33781   0.00000  Uiso   1.00
N5     N     0.00717   0.50023   0.62089   0.00000  Uiso   1.00
N6     N     0.99284   0.49977   0.37911   0.00000  Uiso   1.00
C33    C     0.99583   0.34878   0.63994   0.00000  Uiso   1.00
C34    C     0.00417   0.65122   0.36006   0.00000  Uiso   1.00
H9     H     0.99877   0.80972   0.42153   0.00000  Uiso   1.00
H10    H     0.00123   0.19028   0.57847   0.00000  Uiso   1.00
H11    H     0.99582   0.80980   0.57746   0.00000  Uiso   1.00
H12    H     0.00418   0.19020   0.42254   0.00000  Uiso   1.00
H13    H     0.92719   0.41973   0.77627   0.00000  Uiso   1.00
H14    H     0.07281   0.58027   0.22373   0.00000  Uiso   1.00
H15    H     0.04136   0.50081   0.57057   0.00000  Uiso   1.00
H16    H     0.95865   0.49919   0.42943   0.00000  Uiso   1.00
C35    C     0.09294   0.25595   0.28252   0.00000  Uiso   1.00
C36    C     0.90706   0.74405   0.71748   0.00000  Uiso   1.00
H17    H     0.15865   0.27572   0.31792   0.00000  Uiso   1.00
H18    H     0.84135   0.72428   0.68208   0.00000  Uiso   1.00
C37    C     0.09332   0.19897   0.22230   0.00000  Uiso   1.00
C38    C     0.90668   0.80102   0.77770   0.00000  Uiso   1.00
C39    C     0.00935   0.17320   0.17713   0.00000  Uiso   1.00
C40    C     0.99065   0.82680   0.82287   0.00000  Uiso   1.00
C41    C     0.92536   0.20537   0.19252   0.00000  Uiso   1.00
C42    C     0.07464   0.79463   0.80748   0.00000  Uiso   1.00
H19    H     0.85880   0.18644   0.15804   0.00000  Uiso   1.00
H20    H     0.14120   0.81356   0.84196   0.00000  Uiso   1.00
C43    C     0.92532   0.26270   0.25216   0.00000  Uiso   1.00
C44    C     0.07468   0.73730   0.74784   0.00000  Uiso   1.00
H21    H     0.85945   0.28771   0.26370   0.00000  Uiso   1.00
H22    H     0.14056   0.71229   0.73630   0.00000  Uiso   1.00
C45    C     0.00888   0.28792   0.29747   0.00000  Uiso   1.00
C46    C     0.99112   0.71207   0.70253   0.00000  Uiso   1.00
C47    C     0.09003   0.74566   0.28196   0.00000  Uiso   1.00
C48    C     0.90997   0.25434   0.71804   0.00000  Uiso   1.00
H23    H     0.15562   0.72716   0.31741   0.00000  Uiso   1.00
H24    H     0.84438   0.27284   0.68259   0.00000  Uiso   1.00
C49    C     0.09075   0.80266   0.22192   0.00000  Uiso   1.00
C50    C     0.90925   0.19734   0.77808   0.00000  Uiso   1.00
H25    H     0.15734   0.82834   0.21134   0.00000  Uiso   1.00
H26    H     0.84266   0.17166   0.78866   0.00000  Uiso   1.00
C51    C     0.00700   0.82689   0.17664   0.00000  Uiso   1.00
C52    C     0.99300   0.17311   0.82336   0.00000  Uiso   1.00
C53    C     0.92282   0.79313   0.19181   0.00000  Uiso   1.00
C54    C     0.07718   0.20687   0.80819   0.00000  Uiso   1.00
H27    H     0.85641   0.81085   0.15726   0.00000  Uiso   1.00
H28    H     0.14359   0.18915   0.84274   0.00000  Uiso   1.00
C55    C     0.92242   0.73577   0.25131   0.00000  Uiso   1.00
C56    C     0.07758   0.26423   0.74869   0.00000  Uiso   1.00
H29    H     0.85639   0.70954   0.26267   0.00000  Uiso   1.00
H30    H     0.14361   0.29046   0.73733   0.00000  Uiso   1.00
C57    C     0.00582   0.71204   0.29667   0.00000  Uiso   1.00
C58    C     0.99418   0.28796   0.70333   0.00000  Uiso   1.00
H31    H     0.15974   0.17452   0.21149   0.00000  Uiso   1.00
H32    H     0.84026   0.82548   0.78851   0.00000  Uiso   1.00
