# Generated by REPEAT Assigner based on pymatgen
data_DB0-m3_o18_o20_f0_pcu.sym.85
_audit_creation_date              2022-05-24
_audit_creation_method            REPEAT_Assigner
_cell_length_a                    14.820986
_cell_length_b                    14.535997
_cell_length_c                    16.007710
_cell_angle_alpha                 90.156118
_cell_angle_beta                  86.043660
_cell_angle_gamma                 104.511206
_cell_volume                      3330.313723
_symmetry_space_group_name_H-M    P1
_symmetry_Int_Tables_number       1
loop_
    _symmetry_equiv_pos_site_id
    _symmetry_equiv_pos_as_xyz
    1  x,y,z
loop_
    _atom_site_type_symbol
    _atom_site_label
    _atom_site_fract_x
    _atom_site_fract_y
    _atom_site_fract_z
    _atom_type_partial_charge
    O   O1   0.617929  0.563374  0.395310  -0.642277
    O   O2   0.381798  0.505855  0.605372  -0.644078
    O   O3   0.464053  0.524918  0.362370  -0.637994
    O   O4   0.535681  0.544214  0.638308  -0.651575
    C   C1   0.554007  0.547157  0.340555  0.706511
    C   C2   0.445735  0.522065  0.660125  0.722431
    O   O5   0.575224  0.416235  0.516991  -0.709260
    O   O6   0.424497  0.652811  0.483644  -0.709407
    O   O7   0.421128  0.377826  0.484087  -0.693810
    O   O8   0.578603  0.691223  0.516631  -0.706963
    C   C3   0.497879  0.354214  0.500623  0.954061
    C   C4   0.501846  0.714826  0.500055  0.981654
    Zn  Zn1  0.601383  0.559695  0.522050  1.043606
    Zn  Zn2  0.398341  0.509347  0.478628  1.022978
    C   C5   0.497563  0.255416  0.500518  -0.323817
    C   C6   0.502162  0.813624  0.500157  -0.339888
    C   C7   0.498092  0.172651  0.500445  0.116412
    C   C8   0.501632  0.896388  0.500230  0.130215
    C   C9   0.499282  0.075819  0.500369  -0.039837
    C   C10  0.500443  0.993221  0.500306  -0.049616
    C   C11  0.584832  0.556095  0.251046  -0.070972
    C   C12  0.415007  0.516958  0.749633  -0.077714
    C   C13  0.707901  0.590471  0.143189  0.344685
    C   C14  0.292216  0.494296  0.857497  0.322218
    C   C15  0.678681  0.582707  0.226791  -0.214980
    C   C16  0.321399  0.500100  0.773891  -0.225520
    C   C17  0.520145  0.538835  0.190927  -0.166830
    C   C18  0.479598  0.529862  0.809746  -0.152398
    C   C19  0.548065  0.550991  0.105585  -0.024839
    C   C20  0.451932  0.529016  0.895101  -0.046924
    C   C21  0.643078  0.576207  0.082897  0.085616
    C   C22  0.357067  0.510038  0.917795  0.116629
    C   C23  0.483957  0.538364  0.042639  0.115850
    C   C24  0.516130  0.546028  0.958060  0.133129
    C   C25  0.612084  0.573222  0.938444  -0.203082
    C   C26  0.388214  0.520824  0.062271  -0.185518
    C   C27  0.673860  0.588565  0.999759  -0.242390
    C   C28  0.326503  0.507762  0.000954  -0.270322
    H   H1   0.747452  0.610524  0.980594  0.162488
    H   H2   0.253120  0.495376  0.020134  0.168928
    H   H3   0.551071  0.538951  0.787190  0.108504
    H   H4   0.448316  0.514745  0.213478  0.108426
    H   H5   0.269678  0.490402  0.728128  0.130201
    H   H6   0.730574  0.596879  0.272515  0.123476
    H   H7   0.643650  0.586615  0.875859  0.138606
    H   H8   0.356880  0.519168  0.124881  0.136662
    N   N1   0.264829  0.476725  0.450207  -0.011344
    N   N2   0.734893  0.592294  0.550466  -0.008692
    C   C29  0.145165  0.390048  0.371334  -0.216322
    C   C30  0.854398  0.678532  0.629710  -0.247573
    C   C31  0.236470  0.411971  0.391420  -0.038565
    C   C32  0.763149  0.656757  0.609498  -0.034435
    C   C33  0.205358  0.521251  0.490347  -0.107727
    C   C34  0.794403  0.547912  0.510194  -0.128799
    C   C35  0.111608  0.501558  0.471937  0.032417
    C   C36  0.888076  0.567384  0.528790  0.061866
    C   C37  0.082982  0.434716  0.411381  0.240228
    C   C38  0.916606  0.633937  0.589598  0.262389
    C   C39  0.046188  0.546166  0.511597  0.058996
    C   C40  0.953476  0.522735  0.489153  0.001092
    C   C41  0.928383  0.454955  0.427670  -0.107803
    C   C42  0.071218  0.613752  0.573242  -0.131897
    C   C43  0.992324  0.411792  0.389968  -0.232577
    C   C44  0.007176  0.656590  0.611253  -0.262603
    H   H9   0.970422  0.359285  0.342661  0.139240
    H   H10  0.028944  0.708684  0.658924  0.157097
    H   H11  0.765327  0.497521  0.464066  0.156655
    H   H12  0.234536  0.571962  0.536200  0.159221
    H   H13  0.714125  0.691318  0.641182  0.146761
    H   H14  0.285452  0.377287  0.359835  0.142312
    H   H15  0.122651  0.337891  0.323875  0.130000
    H   H16  0.876834  0.730487  0.677343  0.147231
    H   H17  0.859425  0.432334  0.406165  0.143171
    H   H18  0.140154  0.636266  0.594804  0.137584
    O   O9   0.801720  0.617493  0.120678  -0.469840
    C   C45  0.831553  0.533518  0.116791  0.311937
    H   H19  0.853302  0.521184  0.050904  -0.026434
    H   H20  0.774111  0.472220  0.139463  -0.067921
    C   C46  0.913749  0.542752  0.170331  0.210698
    H   H21  0.970247  0.605293  0.148491  -0.022680
    H   H22  0.891462  0.552457  0.236643  -0.039594
    C   C47  0.949910  0.454125  0.163354  -0.359712
    H   H23  0.894510  0.391609  0.187146  0.079681
    H   H24  0.011366  0.462705  0.201124  0.081290
    H   H25  0.971097  0.443140  0.097018  0.086435
    O   O10  0.198621  0.477497  0.880035  -0.468431
    C   C48  0.164825  0.378622  0.883453  0.329350
    H   H26  0.139079  0.355982  0.948726  -0.042709
    H   H27  0.221234  0.343887  0.863524  -0.053176
    C   C49  0.085306  0.348951  0.826487  0.188929
    H   H28  0.029048  0.383785  0.846696  -0.027618
    H   H29  0.111058  0.370972  0.761098  -0.037469
    C   C50  0.046879  0.242029  0.830870  -0.275279
    H   H30  0.102744  0.206752  0.810460  0.062113
    H   H31  0.988832  0.221148  0.788973  0.063206
    H   H32  0.020319  0.219496  0.896000  0.046025
