# Generated by REPEAT Assigner based on pymatgen
data_DB0-m9_o3_o17_f0_sra.sym.68
_audit_creation_date              2022-05-24
_audit_creation_method            REPEAT_Assigner
_cell_length_a                    6.325299
_cell_length_b                    21.766904
_cell_length_c                    25.341372
_cell_angle_alpha                 105.343138
_cell_angle_beta                  90.552760
_cell_angle_gamma                 90.630031
_cell_volume                      3364.211363
_symmetry_space_group_name_H-M    P1
_symmetry_Int_Tables_number       1
loop_
    _symmetry_equiv_pos_site_id
    _symmetry_equiv_pos_as_xyz
    1  x,y,z
loop_
    _atom_site_type_symbol
    _atom_site_label
    _atom_site_fract_x
    _atom_site_fract_y
    _atom_site_fract_z
    _atom_type_partial_charge
    O  O1   0.463653  0.433703  0.522724  -0.393759
    O  O2   0.259417  0.420083  0.458415  -0.396498
    O  O3   0.046262  0.516804  0.430825  -0.552907
    C  C1   0.377205  0.425816  0.416698  0.599546
    O  O4   0.175412  0.477342  0.569888  -0.547329
    O  O5   0.969452  0.573448  0.541971  -0.355549
    C  C2   0.347459  0.444586  0.566655  0.553503
    O  O6   0.543627  0.464168  0.423559  -0.545254
    O  O7   0.362869  0.548320  0.506372  -0.559636
    V  V1   0.086271  0.491895  0.499376  1.262152
    O  O8   0.678681  0.540300  0.578646  -0.557855
    C  C3   0.853354  0.573347  0.584359  0.600113
    O  O9   0.765630  0.571170  0.479342  -0.448644
    C  C4   0.881458  0.554295  0.434311  0.584982
    V  V2   0.586883  0.507286  0.501575  1.296034
    O  O10  0.858828  0.450637  0.492640  -0.556711
    C  C5   0.788325  0.915605  0.146045  -0.015749
    H  H1   0.678169  0.954223  0.150593  0.083258
    C  C6   0.782681  0.877752  0.181818  -0.191547
    H  H2   0.669982  0.888184  0.214562  0.113166
    C  C7   0.922221  0.828133  0.176263  0.085568
    C  C8   0.068881  0.817340  0.134691  -0.114555
    H  H3   0.177617  0.778339  0.129091  0.098251
    C  C9   0.073845  0.855321  0.098762  -0.144682
    H  H4   0.186872  0.846141  0.065964  0.115510
    C  C10  0.932871  0.904422  0.104386  -0.018661
    C  C11  0.084218  0.750544  0.219805  -0.169116
    H  H5   0.227293  0.752086  0.197300  0.114891
    C  C12  0.076154  0.712529  0.255553  -0.129061
    H  H6   0.213719  0.685466  0.260164  0.115258
    C  C13  0.897155  0.710722  0.286031  0.089647
    C  C14  0.726525  0.747558  0.280322  -0.182510
    H  H7   0.583441  0.746021  0.302823  0.124027
    C  C15  0.734589  0.785570  0.244575  -0.122215
    H  H8   0.597017  0.812631  0.239967  0.117927
    C  C16  0.913624  0.787403  0.214119  0.082609
    C  C17  0.742069  0.680986  0.365559  -0.105488
    H  H9   0.633299  0.719970  0.371098  0.100237
    C  C18  0.737258  0.643150  0.401603  -0.143091
    H  H10  0.624306  0.652421  0.434419  0.115824
    C  C19  0.878334  0.594095  0.396089  -0.019455
    C  C20  0.022838  0.582804  0.354415  -0.009369
    H  H11  0.133108  0.544228  0.349960  0.074865
    C  C21  0.028326  0.620516  0.318521  -0.196495
    H  H12  0.141037  0.610025  0.285781  0.104424
    C  C22  0.888667  0.670093  0.323972  0.078067
    C  C23  0.730545  0.629474  0.674999  -0.167088
    C  C24  0.876201  0.624921  0.634102  -0.009991
    C  C25  0.035400  0.669997  0.639748  -0.297972
    C  C26  0.047456  0.719979  0.686383  0.268942
    C  C27  0.900633  0.724687  0.727169  -0.037744
    C  C28  0.742537  0.679311  0.721522  0.127076
    C  C29  0.205399  0.765489  0.692089  -0.224351
    C  C30  0.216559  0.815620  0.738569  -0.159453
    C  C31  0.069595  0.820237  0.779222  0.132185
    C  C32  0.911501  0.774856  0.773567  -0.043973
    C  C33  0.764670  0.779555  0.814347  0.276971
    C  C34  0.606702  0.734057  0.808641  -0.230475
    C  C35  0.595544  0.683931  0.762165  -0.155461
    C  C36  0.081597  0.870065  0.825760  -0.166377
    C  C37  0.935913  0.874591  0.866651  -0.010097
    C  C38  0.776726  0.829517  0.860984  -0.306132
    H  H13  0.605220  0.594191  0.670251  0.115535
    H  H14  0.148869  0.666603  0.607509  0.132246
    H  H15  0.320322  0.761874  0.660151  0.137754
    H  H16  0.340534  0.851296  0.743162  0.105202
    H  H17  0.206918  0.905351  0.830523  0.115139
    H  H18  0.663249  0.832897  0.893219  0.136414
    H  H19  0.491774  0.737677  0.840578  0.137164
    H  H20  0.471566  0.648255  0.757570  0.104691
    C  C39  0.572984  0.175805  0.141962  -0.286788
    C  C40  0.434452  0.124865  0.134350  -0.012032
    C  C41  0.285928  0.123402  0.173409  -0.111304
    C  C42  0.274058  0.172956  0.219963  0.066136
    C  C43  0.410827  0.224164  0.227639  -0.031032
    C  C44  0.560935  0.225512  0.188685  0.272441
    C  C45  0.123866  0.171335  0.258516  -0.105815
    C  C46  0.108756  0.220868  0.305172  -0.060268
    C  C47  0.246438  0.272766  0.313249  0.048971
    C  C48  0.397060  0.274036  0.274138  0.106381
    C  C49  0.535002  0.325169  0.281439  0.076943
    C  C50  0.685066  0.326588  0.242660  -0.181706
    C  C51  0.698001  0.276780  0.196220  -0.262077
    C  C52  0.237281  0.323155  0.359896  -0.239248
    C  C53  0.376678  0.373811  0.366955  -0.009499
    C  C54  0.524463  0.374921  0.327755  -0.128842
    H  H21  0.688755  0.177217  0.111187  0.134513
    H  H22  0.176608  0.083523  0.167131  0.094870
    H  H23  0.016614  0.130949  0.252102  0.129857
    H  H24  0.124982  0.323704  0.391643  0.098201
    H  H25  0.634195  0.414665  0.333727  0.097601
    H  H26  0.792712  0.366842  0.248730  0.122893
    H  H27  0.815357  0.277927  0.165754  0.145606
    C  C55  0.285991  0.139315  0.901870  -0.116221
    H  H28  0.172326  0.144859  0.934322  0.108107
    C  C56  0.274711  0.177194  0.865900  -0.137039
    H  H29  0.149666  0.211464  0.870335  0.114865
    C  C57  0.420117  0.170526  0.824292  0.090354
    C  C58  0.576393  0.125569  0.819136  -0.207689
    H  H30  0.694807  0.120322  0.787967  0.117382
    C  C59  0.587594  0.088049  0.855107  -0.010331
    H  H31  0.712025  0.053539  0.851169  0.078072
    C  C60  0.443157  0.094773  0.896515  -0.031068
    C  C61  0.514856  0.193775  0.736882  -0.144108
    H  H32  0.597210  0.149211  0.724608  0.113065
    C  C62  0.509540  0.232367  0.701576  -0.155667
    H  H33  0.587814  0.217046  0.662727  0.114406
    C  C63  0.400403  0.288859  0.715151  0.087991
    C  C64  0.296929  0.306251  0.764604  -0.142432
    H  H34  0.214521  0.350807  0.776864  0.112161
    C  C65  0.302248  0.267656  0.799912  -0.162634
    H  H35  0.223923  0.282959  0.838757  0.112556
    C  C66  0.411440  0.211173  0.786342  0.097105
    C  C67  0.235596  0.374468  0.682318  -0.206968
    H  H36  0.117189  0.379754  0.713494  0.116749
    C  C68  0.224418  0.411928  0.646295  -0.016654
    H  H37  0.099976  0.446429  0.650190  0.078676
    C  C69  0.368865  0.405134  0.604879  -0.023232
    C  C70  0.526042  0.360608  0.599583  -0.118398
    H  H38  0.639709  0.355010  0.567127  0.111377
    C  C71  0.537295  0.322792  0.635600  -0.138406
    H  H39  0.662355  0.288532  0.631198  0.117086
    C  C72  0.391828  0.329499  0.677196  0.096642
    O  O11  0.268181  0.034757  0.077417  -0.553449
    O  O12  0.636505  0.022352  0.931265  -0.554967
    O  O13  0.842062  0.925914  0.958739  -0.362555
    C  C73  0.464576  0.055172  0.934622  0.565850
    O  O14  0.552472  0.079073  0.042832  -0.422697
    O  O15  0.765229  0.982001  0.069979  -0.555602
    C  C74  0.434647  0.073085  0.084457  0.616783
    O  O16  0.348405  0.065861  0.978546  -0.394206
    O  O17  0.448709  0.950947  0.994372  -0.571137
    V  V3   0.725440  0.007355  0.001629  1.287708
    O  O18  0.045694  0.927762  0.021293  -0.453902
    C  C75  0.929903  0.944440  0.066342  0.593363
    O  O19  0.132958  0.959267  0.922254  -0.565839
    C  C76  0.958518  0.926109  0.916435  0.608024
    V  V4   0.224681  0.991820  0.999374  1.319818
    O  O20  0.952973  0.048581  0.008536  -0.570307
    C  C77  0.945056  0.216337  0.344596  0.443477
    H  H40  0.922111  0.253637  0.381721  0.026606
    O  O21  0.830357  0.169223  0.335260  -0.492449
