# Generated by REPEAT Assigner based on pymatgen
data_DB0-m29_o84_o111_f0_pts.sym.17
_audit_creation_date              2022-05-24
_audit_creation_method            REPEAT_Assigner
_cell_length_a                    13.324923
_cell_length_b                    16.872482
_cell_length_c                    11.239004
_cell_angle_alpha                 107.234988
_cell_angle_beta                  101.976655
_cell_angle_gamma                 109.502536
_cell_volume                      2139.058298
_symmetry_space_group_name_H-M    P1
_symmetry_Int_Tables_number       1
loop_
    _symmetry_equiv_pos_site_id
    _symmetry_equiv_pos_as_xyz
    1  x,y,z
loop_
    _atom_site_type_symbol
    _atom_site_label
    _atom_site_fract_x
    _atom_site_fract_y
    _atom_site_fract_z
    _atom_type_partial_charge
    C   C1   0.208879  0.986422  0.860105  -0.083342
    C   C2   0.105124  0.974495  0.784261  0.026666
    C   C3   0.023157  0.981014  0.839933  -0.125154
    C   C4   0.919788  0.968695  0.762330  0.368754
    C   C5   0.838576  0.976517  0.817990  -0.276446
    C   C6   0.229623  0.004167  0.993815  -0.002728
    C   C7   0.147946  0.012147  0.050399  -0.001456
    C   C8   0.044701  0.000637  0.973139  0.091077
    C   C9   0.963207  0.008943  0.029110  -0.042771
    C   C10  0.859667  0.996928  0.952119  0.058266
    C   C11  0.777244  0.003068  0.008654  0.006050
    C   C12  0.169154  0.033168  0.184726  -0.042535
    C   C13  0.088217  0.041439  0.239828  -0.180433
    C   C14  0.985063  0.028870  0.162279  0.162199
    C   C15  0.903899  0.035286  0.218550  -0.141640
    C   C16  0.798647  0.020942  0.142679  -0.048417
    H   H1   0.089082  0.960040  0.680285  0.049380
    H   H2   0.758978  0.966236  0.754297  0.116334
    H   H3   0.248234  0.043670  0.250029  0.073674
    H   H4   0.106221  0.057342  0.344592  0.145078
    H   H5   0.923617  0.051465  0.323187  0.108726
    O   O1   0.618786  0.026313  0.147748  -0.521360
    C   C17  0.711342  0.021047  0.205602  0.591227
    O   O2   0.518936  0.839700  0.153582  -0.498526
    O   O3   0.724379  0.012677  0.319488  -0.551381
    O   O4   0.487628  0.920746  0.330342  -0.511024
    C   C18  0.499289  0.847757  0.265288  0.582223
    Fe  Fe1  0.508987  0.008078  0.242730  1.436162
    O   O5   0.354327  0.954880  0.107409  -0.626702
    O   O6   0.421809  0.103714  0.132750  -0.550540
    C   C19  0.339743  0.020787  0.077944  0.738908
    O   O7   0.569855  0.133656  0.385779  -0.596602
    O   O8   0.414515  0.054892  0.424948  -0.452406
    C   C20  0.502995  0.131530  0.457114  0.609048
    O   O9   0.432318  0.867359  0.614220  -0.610909
    O   O10  0.584830  0.943669  0.568752  -0.468517
    C   C21  0.496261  0.867809  0.539358  0.606288
    O   O11  0.650440  0.048083  0.888716  -0.634563
    O   O12  0.583407  0.902101  0.876340  -0.537463
    C   C22  0.665923  0.984491  0.924268  0.718967
    O   O13  0.283095  0.992924  0.683029  -0.516912
    O   O14  0.513181  0.079682  0.665483  -0.503972
    C   C23  0.501769  0.152767  0.731122  0.560496
    O   O15  0.386801  0.976974  0.853676  -0.513924
    C   C24  0.295562  0.984404  0.796888  0.576361
    O   O16  0.485985  0.161981  0.845001  -0.495921
    Fe  Fe2  0.494393  0.993860  0.755607  1.440198
    C   C25  0.288641  0.513301  0.434870  -0.164093
    C   C26  0.196456  0.456626  0.452461  -0.093176
    C   C27  0.204348  0.391254  0.498109  -0.058287
    C   C28  0.304612  0.382519  0.527132  -0.243067
    C   C29  0.399387  0.440463  0.512378  0.238342
    C   C30  0.390963  0.505974  0.464968  0.162533
    C   C31  0.500993  0.431746  0.541358  -0.336875
    C   C32  0.593414  0.487460  0.520676  0.205485
    C   C33  0.584490  0.552031  0.471434  0.170429
    C   C34  0.483448  0.561838  0.444506  -0.297553
    C   C35  0.696072  0.480668  0.551813  -0.177773
    C   C36  0.787536  0.535926  0.531497  -0.117612
    C   C37  0.778563  0.599232  0.481746  -0.028707
    C   C38  0.678315  0.607961  0.452757  -0.208765
    H   H6   0.276708  0.561757  0.395379  0.123062
    H   H7   0.304565  0.328193  0.558952  0.149833
    H   H8   0.709020  0.433776  0.594167  0.135120
    H   H9   0.677465  0.660252  0.416768  0.133553
    C   C39  0.476075  0.622137  0.269929  -0.274898
    H   H10  0.476049  0.560477  0.204579  0.146647
    C   C40  0.482173  0.692472  0.229313  -0.055402
    H   H11  0.484831  0.683301  0.130907  0.120069
    C   C41  0.487733  0.773848  0.313619  -0.115652
    C   C42  0.481442  0.781983  0.439157  0.117606
    C   C43  0.474298  0.710347  0.478048  -0.319538
    H   H12  0.475526  0.718183  0.577413  0.179703
    C   C44  0.475321  0.631843  0.395607  0.370264
    C   C45  0.515885  0.285928  0.512751  -0.298343
    H   H13  0.515536  0.277714  0.413537  0.191340
    C   C46  0.513453  0.216331  0.554603  0.052870
    C   C47  0.507427  0.224835  0.680136  -0.064269
    C   C48  0.506838  0.304486  0.761247  -0.072207
    H   H14  0.503568  0.313891  0.859486  0.120020
    C   C49  0.507638  0.372725  0.717466  -0.244147
    H   H15  0.503772  0.433222  0.780545  0.143611
    C   C50  0.510031  0.362873  0.592247  0.337017
    H   H16  0.117243  0.462753  0.428544  0.120848
    H   H17  0.131281  0.345874  0.509973  0.108845
    H   H18  0.866864  0.530022  0.555871  0.128087
    H   H19  0.850822  0.643100  0.466766  0.098067
    N   N1   0.897881  0.947955  0.625846  -0.128205
    C   C51  0.883268  0.018860  0.588574  -0.209019
    C   C52  0.808451  0.858529  0.543500  -0.115731
    H   H20  0.954130  0.085881  0.656538  0.066905
    H   H21  0.801977  0.021026  0.592947  0.138616
    H   H22  0.884316  0.005125  0.486598  0.145782
    H   H23  0.825317  0.807679  0.578141  0.033762
    H   H24  0.805907  0.840953  0.439369  0.096017
    H   H25  0.725631  0.856593  0.548453  0.058450
