# Generated by REPEAT Assigner based on pymatgen
data_DB0-m2_o13_o25_f0_pcu.sym.14
_audit_creation_date              2022-05-24
_audit_creation_method            REPEAT_Assigner
_cell_length_a                    15.983648
_cell_length_b                    13.046950
_cell_length_c                    11.564746
_cell_angle_alpha                 99.735445
_cell_angle_beta                  94.248175
_cell_angle_gamma                 89.996241
_cell_volume                      2370.235723
_symmetry_space_group_name_H-M    P1
_symmetry_Int_Tables_number       1
loop_
    _symmetry_equiv_pos_site_id
    _symmetry_equiv_pos_as_xyz
    1  x,y,z
loop_
    _atom_site_type_symbol
    _atom_site_label
    _atom_site_fract_x
    _atom_site_fract_y
    _atom_site_fract_z
    _atom_type_partial_charge
    O   O1   0.496108  0.356756  0.585546  -0.592277
    O   O2   0.505063  0.641961  0.414851  -0.695251
    O   O3   0.491521  0.340987  0.384214  -0.529091
    O   O4   0.509288  0.657761  0.616081  -0.509951
    C   C1   0.491831  0.299937  0.480394  0.839160
    C   C2   0.508952  0.698912  0.519920  0.939918
    O   O5   0.384301  0.517925  0.601764  -0.514096
    O   O6   0.616710  0.480593  0.398564  -0.534037
    O   O7   0.373911  0.495681  0.399654  -0.484980
    O   O8   0.627119  0.503259  0.600689  -0.478782
    C   C3   0.340115  0.508730  0.500655  0.617482
    C   C4   0.660904  0.489983  0.499673  0.589690
    Cu  Cu1  0.506423  0.508227  0.617515  0.731022
    Cu  Cu2  0.494603  0.490510  0.382821  0.862118
    C   C5   0.978479  0.419249  0.545596  0.019490
    C   C6   0.022527  0.579637  0.454680  0.032845
    C   C7   0.026955  0.414427  0.437674  0.038739
    C   C8   0.974049  0.584459  0.562603  0.036342
    C   C9   0.250306  0.509010  0.500337  -0.063482
    C   C10  0.750706  0.489770  0.499957  -0.036785
    C   C11  0.033931  0.508348  0.607956  0.050504
    C   C12  0.967073  0.490537  0.392320  0.043691
    C   C13  0.083409  0.503611  0.500033  0.789058
    C   C14  0.917596  0.495274  0.500241  0.806387
    C   C15  0.174911  0.507320  0.500136  -0.396196
    C   C16  0.826098  0.491517  0.500131  -0.417593
    C   C17  0.512964  0.813216  0.529649  -0.641258
    C   C18  0.486998  0.185858  0.470707  -0.623434
    C   C19  0.434158  0.020601  0.369450  0.302407
    C   C20  0.562752  0.979174  0.633293  0.338905
    C   C21  0.439842  0.126902  0.378534  0.349136
    C   C22  0.557839  0.872792  0.623812  0.315912
    C   C23  0.528380  0.136981  0.555375  0.626556
    C   C24  0.472124  0.862000  0.444219  0.638268
    C   C25  0.522576  0.029150  0.547764  -0.356901
    C   C26  0.476131  0.970161  0.453328  -0.346437
    N   N1   0.515484  0.520984  0.793137  -0.264801
    N   N2   0.485542  0.477758  0.207202  -0.313036
    C   C27  0.412409  0.419320  0.021414  -0.293005
    C   C28  0.588705  0.579315  0.978896  -0.308200
    C   C29  0.421519  0.423415  0.141597  0.414350
    C   C30  0.579448  0.575448  0.858746  0.413474
    C   C31  0.539598  0.531776  0.154730  0.502882
    C   C32  0.461649  0.466625  0.845562  0.475836
    C   C33  0.532440  0.527543  0.033813  -0.090055
    C   C34  0.468703  0.471043  0.966498  -0.073712
    H   H1   0.360547  0.375087  0.971757  0.106077
    H   H2   0.640596  0.623494  0.028548  0.109077
    O   O9   0.054718  0.323477  0.370751  -0.571972
    H   H3   0.002908  0.282336  0.342784  0.386806
    O   O10  0.946294  0.675413  0.629527  -0.572487
    H   H4   0.998104  0.716588  0.657387  0.387569
    O   O11  0.955541  0.333520  0.594176  -0.566580
    H   H5   0.009366  0.300903  0.614471  0.386737
    O   O12  0.045481  0.665361  0.406106  -0.566051
    H   H6   0.991671  0.698130  0.386068  0.385575
    O   O13  0.931831  0.480919  0.276987  -0.573478
    H   H7   0.980505  0.480156  0.228673  0.388164
    O   O14  0.069181  0.517969  0.723287  -0.572778
    H   H8   0.020505  0.519089  0.771653  0.387787
    O   O15  0.425930  0.802742  0.352761  -0.508172
    H   H9   0.464358  0.789618  0.288612  0.365316
    O   O16  0.577900  0.195701  0.643516  -0.504621
    H   H10  0.632738  0.200386  0.609945  0.360228
    O   O17  0.601342  0.826777  0.706804  -0.518543
    H   H11  0.658276  0.816752  0.678653  0.374573
    O   O18  0.395118  0.173547  0.297144  -0.478769
    H   H12  0.339583  0.186803  0.329026  0.338934
    O   O19  0.385144  0.967285  0.276850  -0.545182
    H   H13  0.327586  0.971759  0.303533  0.351313
    O   O20  0.607919  0.033360  0.729238  -0.572018
    H   H14  0.568358  0.042914  0.792075  0.377586
    O   O21  0.399044  0.407624  0.779371  -0.418391
    H   H15  0.419256  0.335243  0.772546  0.341473
    O   O22  0.602670  0.590009  0.220817  -0.397585
    H   H16  0.583162  0.662661  0.227587  0.306675
    O   O23  0.635627  0.628777  0.807423  -0.444684
    H   H17  0.635328  0.700360  0.852393  0.347198
    O   O24  0.365246  0.370222  0.192915  -0.446893
    H   H18  0.366136  0.298373  0.148764  0.346305
