# Generated by REPEAT Assigner based on pymatgen
data_DB0-m2_o8_o13_f0_pcu.sym.53
_audit_creation_date              2022-05-24
_audit_creation_method            REPEAT_Assigner
_cell_length_a                    13.026601
_cell_length_b                    15.549144
_cell_length_c                    17.008943
_cell_angle_alpha                 96.356838
_cell_angle_beta                  90.347964
_cell_angle_gamma                 87.355798
_cell_volume                      3420.374084
_symmetry_space_group_name_H-M    P1
_symmetry_Int_Tables_number       1
loop_
    _symmetry_equiv_pos_site_id
    _symmetry_equiv_pos_as_xyz
    1  x,y,z
loop_
    _atom_site_type_symbol
    _atom_site_label
    _atom_site_fract_x
    _atom_site_fract_y
    _atom_site_fract_z
    _atom_type_partial_charge
    O   O1   0.493833  0.417334  0.379756  -0.641314
    O   O2   0.508274  0.581936  0.614844  -0.631589
    O   O3   0.505502  0.564966  0.385144  -0.622995
    O   O4   0.494929  0.434477  0.609447  -0.615560
    C   C1   0.499211  0.488466  0.345235  0.766679
    C   C2   0.501773  0.511009  0.649248  0.752290
    O   O5   0.348607  0.435328  0.497830  -0.600649
    O   O6   0.652709  0.563883  0.495957  -0.596455
    O   O7   0.354159  0.583028  0.498345  -0.609888
    O   O8   0.647163  0.416548  0.496739  -0.618828
    C   C3   0.302939  0.512558  0.498367  0.698684
    C   C4   0.698416  0.486866  0.495585  0.704215
    Cu  Cu1  0.497741  0.413453  0.494136  0.928599
    Cu  Cu2  0.503155  0.585874  0.500506  0.912015
    C   C5   0.811291  0.477665  0.495309  -0.116890
    C   C6   0.190093  0.522018  0.502845  -0.102244
    C   C7   0.037235  0.612435  0.532194  -0.234261
    C   C8   0.964855  0.385136  0.480813  -0.250463
    C   C9   0.142907  0.602339  0.523306  -0.048809
    C   C10  0.858669  0.396621  0.480470  -0.025091
    C   C11  0.131412  0.450694  0.489384  -0.194448
    C   C12  0.869838  0.548796  0.511852  -0.183762
    C   C13  0.024662  0.458198  0.494738  0.173601
    C   C14  0.976943  0.540243  0.513611  0.110280
    H   H1   0.828951  0.610602  0.522018  0.119870
    H   H2   0.172243  0.390130  0.471774  0.118039
    H   H3   0.811205  0.342144  0.466608  0.093665
    H   H4   0.190124  0.657512  0.533704  0.097018
    C   C15  0.498875  0.482602  0.258579  -0.208368
    C   C16  0.502175  0.517064  0.735984  -0.183918
    C   C17  0.502983  0.556867  0.221090  -0.063246
    C   C18  0.497883  0.442851  0.773488  -0.089860
    C   C19  0.502111  0.552261  0.139675  -0.149740
    C   C20  0.497794  0.447575  0.854912  -0.129593
    C   C21  0.497601  0.472508  0.094595  0.468524
    C   C22  0.502275  0.527295  0.900028  0.453914
    C   C23  0.494328  0.398430  0.132201  -0.360066
    C   C24  0.507569  0.601161  0.862450  -0.341610
    C   C25  0.495546  0.403188  0.213623  0.062738
    C   C26  0.507851  0.596357  0.781011  0.046333
    N   N1   0.497503  0.464506  0.010916  -0.236019
    N   N2   0.502636  0.535314  0.983783  -0.237680
    H   H5   0.495815  0.379867  0.739672  0.131166
    H   H6   0.507787  0.619765  0.254572  0.129217
    H   H7   0.495192  0.387482  0.881066  0.054315
    H   H8   0.505611  0.612476  0.113803  0.060740
    H   H9   0.491878  0.335847  0.097654  0.135876
    H   H10  0.512543  0.663367  0.897309  0.132811
    H   H11  0.495132  0.344001  0.241392  0.100414
    H   H12  0.513554  0.655185  0.753233  0.099854
    N   N3   0.508589  0.714630  0.505180  -0.100115
    N   N4   0.493127  0.284489  0.489388  -0.099951
    C   C27  0.443179  0.754329  0.457521  -0.013715
    C   C28  0.547601  0.244414  0.543817  -0.046678
    C   C29  0.430157  0.843900  0.463920  -0.039302
    C   C30  0.557159  0.154810  0.540133  0.010669
    C   C31  0.487080  0.892406  0.520744  0.268904
    C   C32  0.506275  0.105917  0.479687  0.310866
    C   C33  0.551798  0.850353  0.569952  -0.209216
    C   C34  0.452092  0.148250  0.424446  -0.268366
    C   C35  0.560665  0.761199  0.562378  -0.025966
    C   C36  0.446267  0.237499  0.429692  0.009284
    N   N5   0.480177  0.983787  0.530568  -0.240167
    N   N6   0.510809  0.014348  0.470711  -0.237762
    H   H13  0.584858  0.283169  0.591113  0.144106
    H   H14  0.398523  0.714738  0.415363  0.135392
    H   H15  0.595469  0.887559  0.614789  0.129896
    H   H16  0.413516  0.111049  0.376628  0.148291
    H   H17  0.608777  0.729053  0.603221  0.142217
    H   H18  0.403087  0.269409  0.385967  0.128862
    C   C37  0.991587  0.701238  0.562691  0.617790
    C   C38  0.057699  0.747503  0.626847  -0.464574
    C   C39  0.975977  0.756588  0.494902  -0.387168
    H   H19  0.917587  0.696439  0.592701  -0.082248
    H   H20  0.121414  0.779831  0.600894  0.103321
    H   H21  0.087988  0.700763  0.666990  0.086946
    H   H22  0.009798  0.798394  0.662196  0.096421
    H   H23  0.050195  0.763466  0.465170  0.093310
    H   H24  0.943777  0.821772  0.517831  0.058848
    H   H25  0.921579  0.725796  0.451189  0.072929
    C   C40  0.012423  0.294112  0.464142  0.502110
    C   C41  0.948084  0.225745  0.494574  -0.352456
    C   C42  0.029727  0.271972  0.375810  -0.285166
    H   H26  0.085864  0.287208  0.495984  -0.058317
    H   H27  0.885008  0.207881  0.452796  0.088377
    H   H28  0.917241  0.249089  0.554139  0.066147
    H   H29  0.997974  0.166825  0.499474  0.065024
    H   H30  0.955775  0.277037  0.343608  0.062347
    H   H31  0.063147  0.204907  0.364115  0.043574
    H   H32  0.083465  0.317255  0.354052  0.051586
    C   C43  0.626748  0.114763  0.598784  0.093982
    C   C44  0.733544  0.149175  0.596590  -0.289782
    C   C45  0.582833  0.133129  0.681706  -0.277269
    H   H33  0.637418  0.043847  0.584816  0.137215
    H   H34  0.734926  0.216700  0.625117  0.084963
    H   H35  0.757549  0.146312  0.534041  0.061126
    H   H36  0.787839  0.108081  0.628338  0.073270
    H   H37  0.581950  0.203366  0.702236  0.096512
    H   H38  0.630808  0.097751  0.722732  0.077991
    H   H39  0.503285  0.110734  0.681652  0.034060
    C   C46  0.350218  0.885492  0.413725  0.188327
    C   C47  0.380805  0.873721  0.327156  -0.216730
    C   C48  0.246003  0.848573  0.423547  -0.369878
    H   H40  0.339960  0.955712  0.431938  0.108197
    H   H41  0.384171  0.804190  0.303785  0.070401
    H   H42  0.456939  0.901142  0.320818  0.017470
    H   H43  0.323265  0.909044  0.292801  0.059629
    H   H44  0.241962  0.783233  0.390450  0.095543
    H   H45  0.185980  0.892092  0.400378  0.085932
    H   H46  0.232016  0.845405  0.487294  0.085483
