# Generated by REPEAT Assigner based on pymatgen
data_DB0-m29_o83_o46_f0_pts.sym.28
_audit_creation_date              2022-05-24
_audit_creation_method            REPEAT_Assigner
_cell_length_a                    15.685805
_cell_length_b                    10.320688
_cell_length_c                    12.863096
_cell_angle_alpha                 82.764675
_cell_angle_beta                  88.160577
_cell_angle_gamma                 107.559368
_cell_volume                      1964.130607
_symmetry_space_group_name_H-M    P1
_symmetry_Int_Tables_number       1
loop_
    _symmetry_equiv_pos_site_id
    _symmetry_equiv_pos_as_xyz
    1  x,y,z
loop_
    _atom_site_type_symbol
    _atom_site_label
    _atom_site_fract_x
    _atom_site_fract_y
    _atom_site_fract_z
    _atom_type_partial_charge
    C   C1   0.289811  0.026208  0.066269  -0.188166
    C   C2   0.275700  0.027566  0.959707  0.067751
    C   C3   0.192415  0.023628  0.925678  -0.187198
    C   C4   0.217093  0.011701  0.138164  -0.055653
    C   C5   0.130908  0.986049  0.102114  0.136995
    C   C6   0.119034  0.005216  0.995571  0.034796
    C   C7   0.033809  0.003165  0.961719  0.100331
    C   C8   0.019851  0.035870  0.856414  -0.169290
    C   C9   0.936156  0.032759  0.825893  -0.178871
    C   C10  0.055563  0.936988  0.171316  -0.182496
    C   C11  0.972211  0.927529  0.138651  -0.146075
    C   C12  0.960770  0.971065  0.035339  0.043493
    C   C13  0.877096  0.978222  0.004276  0.074210
    C   C14  0.865125  0.005610  0.899045  0.152725
    C   C15  0.782421  0.007461  0.865989  -0.161509
    C   C16  0.805975  0.965538  0.076306  -0.152279
    C   C17  0.723597  0.969746  0.044088  -0.033006
    C   C18  0.710382  0.985100  0.937760  -0.033434
    H   H1   0.185431  0.023632  0.843067  0.140790
    H   H2   0.072300  0.067175  0.794191  0.149111
    H   H3   0.927520  0.057129  0.743460  0.139288
    H   H4   0.058422  0.899679  0.252440  0.137505
    H   H5   0.917525  0.882984  0.197727  0.140854
    H   H6   0.773581  0.022746  0.782849  0.152495
    H   H7   0.814026  0.961607  0.159113  0.132483
    O   O1   0.595649  0.032184  0.103563  -0.535729
    C   C19  0.654706  0.967516  0.124900  0.578149
    O   O2   0.440896  0.712540  0.261877  -0.514982
    O   O3   0.658081  0.913485  0.221989  -0.516293
    O   O4   0.507846  0.883439  0.356263  -0.596661
    C   C20  0.474320  0.752181  0.348989  0.741713
    Fe  Fe1  0.518212  0.021302  0.230840  1.405813
    O   O5   0.391199  0.970097  0.189845  -0.603869
    O   O6   0.450456  0.135525  0.050146  -0.436189
    C   C21  0.380694  0.042176  0.101862  0.765068
    O   O7   0.575588  0.205513  0.275447  -0.612004
    O   O8   0.455964  0.270350  0.221291  -0.492688
    C   C22  0.525409  0.286764  0.277574  0.656582
    O   O9   0.427189  0.798090  0.729830  -0.629940
    O   O10  0.561208  0.763146  0.758851  -0.511622
    C   C23  0.482845  0.726607  0.719651  0.668135
    O   O11  0.612596  0.037875  0.808966  -0.650038
    O   O12  0.550615  0.876472  0.949710  -0.468474
    C   C24  0.621063  0.970113  0.899631  0.787649
    O   O13  0.340220  0.081609  0.780991  -0.518994
    O   O14  0.492432  0.119350  0.644611  -0.600514
    C   C25  0.523985  0.250956  0.652039  0.735737
    O   O15  0.409065  0.975190  0.899895  -0.516381
    C   C26  0.346057  0.032336  0.878689  0.537177
    O   O16  0.555789  0.290910  0.739748  -0.515913
    Fe  Fe2  0.484606  0.984320  0.771178  1.450655
    C   C27  0.469438  0.656023  0.445873  -0.169143
    C   C28  0.456611  0.706101  0.537420  -0.088653
    H   H8   0.441384  0.801823  0.533709  0.116128
    C   C29  0.473090  0.646315  0.632624  0.059241
    C   C30  0.497342  0.528444  0.639256  -0.251752
    H   H9   0.511563  0.487906  0.715451  0.184072
    C   C31  0.506008  0.469484  0.549573  0.181995
    C   C32  0.493106  0.534927  0.451464  0.194402
    H   H10  0.492346  0.521506  0.284768  0.174312
    C   C33  0.504102  0.478357  0.361328  -0.235415
    C   C34  0.529095  0.361223  0.367558  0.042300
    H   H11  0.558389  0.203282  0.467116  0.102654
    C   C35  0.542739  0.298648  0.463310  -0.080811
    C   C36  0.528773  0.347500  0.555141  -0.157104
    C   C37  0.233575  0.042945  0.249854  0.586708
    C   C38  0.189151  0.146402  0.281480  -0.396395
    C   C39  0.211497  0.913426  0.329839  -0.338945
    H   H12  0.304545  0.097762  0.255842  -0.070048
    H   H13  0.118747  0.099003  0.313583  0.076890
    H   H14  0.192588  0.224983  0.212843  0.068402
    H   H15  0.227104  0.198642  0.343644  0.091569
    H   H16  0.154876  0.906871  0.386165  0.058005
    H   H17  0.270946  0.915885  0.374866  0.066806
    H   H18  0.194900  0.821720  0.288683  0.063541
