# Generated by REPEAT Assigner based on pymatgen
data_DB0-m3_o17_o500_f0_fsc.sym.7_sqe
_audit_creation_date              2022-05-24
_audit_creation_method            REPEAT_Assigner
_cell_length_a                    11.461865
_cell_length_b                    13.405656
_cell_length_c                    8.552164
_cell_angle_alpha                 90.000000
_cell_angle_beta                  107.428958
_cell_angle_gamma                 90.000000
_cell_volume                      1253.742342
_symmetry_space_group_name_H-M    P1
_symmetry_Int_Tables_number       1
loop_
    _symmetry_equiv_pos_site_id
    _symmetry_equiv_pos_as_xyz
    1  x,y,z
loop_
    _atom_site_type_symbol
    _atom_site_label
    _atom_site_fract_x
    _atom_site_fract_y
    _atom_site_fract_z
    _atom_type_partial_charge
    C   C1   0.684944  0.974146  0.582792  0.029234
    C   C2   0.317801  0.026957  0.416641  0.129243
    C   C3   0.747802  0.984714  0.746423  -0.123394
    C   C4   0.255745  0.012913  0.253039  -0.172399
    C   C5   0.872084  0.004415  0.795865  0.076793
    C   C6   0.132605  0.989115  0.204086  0.161118
    C   C7   0.926918  0.027238  0.675913  -0.060056
    C   C8   0.078842  0.964269  0.324102  -0.165607
    H   H1   0.020121  0.053371  0.709656  0.074858
    H   H2   0.986823  0.935329  0.290283  0.115612
    C   C9   0.859646  0.025382  0.510982  -0.180057
    C   C10  0.146421  0.967120  0.488806  -0.023241
    C   C11  0.739356  0.993711  0.463330  -0.081501
    C   C12  0.264728  0.003576  0.536163  -0.257943
    C   C13  0.941527  0.003127  0.972778  -0.204645
    C   C14  0.063188  0.988894  0.027278  -0.158647
    H   H3   0.890574  0.011214  0.059988  0.129675
    H   H4   0.114377  0.980895  0.940402  0.130883
    H   H5   0.588562  0.959097  0.548570  0.119007
    H   H6   0.413368  0.046661  0.451812  0.113781
    H   H7   0.901477  0.049276  0.419790  0.107346
    H   H8   0.106270  0.940564  0.580193  0.098652
    O   O1   0.630274  0.082207  0.221123  -0.709067
    O   O2   0.373046  0.915002  0.778633  -0.693369
    O   O3   0.388790  0.087187  0.778149  -0.745131
    O   O4   0.616572  0.910732  0.220002  -0.776739
    C   C15  0.662140  0.995219  0.291036  0.869697
    C   C16  0.342316  0.002337  0.708216  0.874922
    O   O5   0.363183  0.920077  0.105175  -0.618176
    O   O6   0.640720  0.077566  0.894531  -0.668479
    O   O7   0.623951  0.905548  0.887694  -0.687850
    O   O8   0.378077  0.090980  0.108688  -0.631852
    C   C17  0.329188  0.008413  0.140643  0.714791
    C   C18  0.674092  0.988747  0.858419  0.836710
    Zn  Zn1  0.493647  0.888419  0.999271  1.012831
    Zn  Zn2  0.510093  0.108998  0.000319  0.992305
    C   C19  0.544318  0.294220  0.880713  -0.122575
    C   C20  0.467551  0.703835  0.125890  -0.033201
    C   C21  0.494945  0.291146  0.127268  -0.179116
    C   C22  0.504865  0.707018  0.872832  -0.054595
    N   N1   0.517479  0.240576  0.000749  0.073419
    N   N2   0.486602  0.756945  0.000924  0.023215
    C   C23  0.491111  0.394287  0.129931  0.127339
    C   C24  0.520195  0.604619  0.876904  0.096729
    C   C25  0.539149  0.398001  0.880076  0.115807
    C   C26  0.476115  0.600665  0.128860  0.029555
    C   C27  0.512238  0.447933  0.005256  0.027170
    C   C28  0.505583  0.550944  0.005547  0.061644
    C   C29  0.465038  0.444413  0.257432  -0.158395
    C   C30  0.544405  0.555086  0.748362  -0.190357
    C   C31  0.556135  0.452635  0.751182  -0.105981
    C   C32  0.456841  0.546732  0.256218  -0.093228
    H   H9   0.449741  0.406148  0.360444  0.103815
    H   H10  0.556807  0.595676  0.645461  0.137572
    H   H11  0.574448  0.416916  0.647971  0.116595
    H   H12  0.436270  0.582845  0.357619  0.129640
    C   C33  0.586748  0.245305  0.754628  0.722339
    O   O9   0.521620  0.186460  0.659185  -0.458251
    O   O10  0.701452  0.269035  0.740704  -0.604350
    H   H13  0.718341  0.228731  0.649864  0.441696
    C   C34  0.418633  0.752667  0.244811  0.613125
    O   O11  0.314388  0.734454  0.244568  -0.506940
    O   O12  0.486614  0.824222  0.350054  -0.338654
    H   H14  0.431659  0.866764  0.394996  0.241473
    C   C35  0.472386  0.239977  0.266039  0.883949
    O   O13  0.557662  0.209768  0.378584  -0.556085
    O   O14  0.355144  0.241980  0.282437  -0.589512
    H   H15  0.355876  0.214842  0.392947  0.359226
    C   C36  0.468180  0.753597  0.713016  0.829620
    O   O15  0.544083  0.784679  0.651442  -0.560258
    O   O16  0.344064  0.752326  0.626012  -0.665603
    H   H16  0.325842  0.788976  0.518940  0.453869
