# Generated by REPEAT Assigner based on pymatgen
data_DB0-m3_o81_o23_f0_fsc.sym.3_sqe
_audit_creation_date              2022-05-24
_audit_creation_method            REPEAT_Assigner
_cell_length_a                    14.756582
_cell_length_b                    14.215018
_cell_length_c                    6.544958
_cell_angle_alpha                 90.000000
_cell_angle_beta                  98.313933
_cell_angle_gamma                 90.000000
_cell_volume                      1358.475405
_symmetry_space_group_name_H-M    P1
_symmetry_Int_Tables_number       1
loop_
    _symmetry_equiv_pos_site_id
    _symmetry_equiv_pos_as_xyz
    1  x,y,z
loop_
    _atom_site_type_symbol
    _atom_site_label
    _atom_site_fract_x
    _atom_site_fract_y
    _atom_site_fract_z
    _atom_type_partial_charge
    C   C1   0.104583  0.006049  0.908840  0.034250
    C   C2   0.186196  0.989710  0.036865  0.226847
    C   C3   0.185726  0.966439  0.240944  -0.282128
    C   C4   0.104109  0.958824  0.318312  -0.312617
    C   C5   0.022457  0.974809  0.192116  0.324850
    C   C6   0.022039  0.998014  0.986754  -0.029560
    C   C7   0.941215  0.967561  0.272640  -0.431668
    C   C8   0.858886  0.982633  0.148182  0.169799
    C   C9   0.858095  0.004942  0.943790  0.149865
    C   C10  0.938854  0.012584  0.862891  -0.280256
    C   C11  0.777403  0.975969  0.227519  -0.197922
    C   C12  0.694894  0.990125  0.101608  -0.189047
    C   C13  0.694482  0.010424  0.894945  0.037098
    C   C14  0.776157  0.018363  0.817618  -0.166377
    C   C15  0.107225  0.032292  0.706211  -0.138542
    C   C16  0.189660  0.038432  0.632379  -0.225411
    C   C17  0.270486  0.019847  0.758803  -0.011115
    C   C18  0.269111  0.998006  0.963578  -0.258076
    H   H1   0.249666  0.953671  0.340317  0.227984
    H   H2   0.104097  0.939998  0.478258  0.175622
    H   H3   0.778194  0.961321  0.389830  0.169007
    H   H4   0.775764  0.032381  0.655151  0.081889
    H   H5   0.934299  0.029486  0.701633  0.141975
    H   H6   0.942215  0.949812  0.433539  0.161799
    H   H7   0.046212  0.047620  0.600621  0.116541
    H   H8   0.190753  0.056650  0.472552  0.175212
    O   O1   0.381658  0.919172  0.201885  -0.737448
    O   O2   0.386441  0.081465  0.174275  -0.711261
    C   C19  0.352864  0.998776  0.112919  0.888973
    O   O3   0.385429  0.092200  0.593936  -0.740371
    O   O4   0.383731  0.930937  0.622576  -0.729670
    C   C20  0.353960  0.014558  0.664696  0.855706
    O   O5   0.582278  0.089553  0.657848  -0.641141
    O   O6   0.577453  0.927208  0.685481  -0.680028
    C   C21  0.610512  0.009867  0.747534  0.738007
    O   O7   0.579214  0.916658  0.266053  -0.710489
    O   O8   0.580812  0.077844  0.237500  -0.704014
    C   C22  0.611297  0.994475  0.196665  0.874553
    Zn  Zn1  0.484099  0.108379  0.414075  1.061466
    Zn  Zn2  0.480189  0.900396  0.444341  1.098523
    C   C23  0.533036  0.456805  0.245043  -0.015453
    C   C24  0.530152  0.563139  0.256678  -0.107513
    C   C25  0.530415  0.446423  0.623133  -0.200442
    C   C26  0.531465  0.552771  0.636807  -0.116502
    H   H9   0.601006  0.590788  0.275684  -0.030415
    H   H10  0.605003  0.432064  0.266076  -0.036501
    H   H11  0.491191  0.417665  0.741311  0.070155
    H   H12  0.494929  0.574322  0.765877  0.083676
    N   N1   0.478193  0.777063  0.455021  -0.022756
    N   N2   0.485713  0.231513  0.395483  -0.004046
    C   C27  0.484018  0.415648  0.411801  0.471970
    C   C28  0.482095  0.593015  0.436414  0.504475
    C   C29  0.384782  0.556035  0.401680  -0.150940
    C   C30  0.385920  0.449957  0.380702  -0.105091
    C   C31  0.479532  0.695742  0.448523  -0.172468
    C   C32  0.485155  0.312873  0.400290  -0.170876
    H   H13  0.352222  0.429600  0.224443  0.041706
    H   H14  0.347319  0.587240  0.258575  0.060882
    H   H15  0.348672  0.417870  0.498747  0.052183
    H   H16  0.349973  0.575577  0.534827  0.051423
    H   H17  0.498268  0.433569  0.091767  0.014851
    H   H18  0.491791  0.591071  0.111105  0.038863
    C   C33  0.625673  0.409489  0.662814  0.187454
    C   C34  0.694084  0.450421  0.570009  -0.112720
    C   C35  0.782271  0.415991  0.608789  -0.200472
    C   C36  0.802224  0.340834  0.740792  -0.013789
    C   C37  0.734068  0.300407  0.834935  -0.194539
    C   C38  0.645913  0.334901  0.796406  -0.110497
    H   H19  0.679194  0.510311  0.469254  0.185474
    H   H20  0.835856  0.448177  0.536248  0.115568
    H   H21  0.871368  0.313899  0.771206  0.088367
    H   H22  0.749750  0.241721  0.939090  0.122710
    H   H23  0.592521  0.303208  0.870392  0.100748
    C   C39  0.628169  0.586187  0.680411  -0.075581
    C   C40  0.687413  0.542079  0.833148  -0.042011
    C   C41  0.777142  0.571421  0.877783  -0.191485
    C   C42  0.807876  0.645455  0.770495  0.006524
    C   C43  0.748716  0.690352  0.619253  -0.199792
    C   C44  0.658950  0.661008  0.574245  -0.055731
    H   H24  0.663454  0.484049  0.917732  0.142852
    H   H25  0.823360  0.536403  0.997073  0.108710
    H   H26  0.878185  0.668597  0.805607  0.084316
    H   H27  0.772625  0.748939  0.536256  0.101747
    H   H28  0.613433  0.698187  0.457880  0.162139
