# Generated by REPEAT Assigner based on pymatgen
data_DB0-m3_o7_o9_f0_pcu.sym.45_sqe
_audit_creation_date              2022-05-24
_audit_creation_method            REPEAT_Assigner
_cell_length_a                    11.008429
_cell_length_b                    17.755676
_cell_length_c                    16.623090
_cell_angle_alpha                 90.000511
_cell_angle_beta                  90.002968
_cell_angle_gamma                 89.998463
_cell_volume                      3249.184005
_symmetry_space_group_name_H-M    P1
_symmetry_Int_Tables_number       1
loop_
    _symmetry_equiv_pos_site_id
    _symmetry_equiv_pos_as_xyz
    1  x,y,z
loop_
    _atom_site_type_symbol
    _atom_site_label
    _atom_site_fract_x
    _atom_site_fract_y
    _atom_site_fract_z
    _atom_type_partial_charge
    O   O1   0.501721  0.385843  0.562049  -0.650008
    O   O2   0.498609  0.613962  0.437958  -0.650562
    O   O3   0.502382  0.389958  0.423315  -0.688255
    O   O4   0.497947  0.609847  0.576691  -0.687771
    C   C1   0.503356  0.352689  0.491573  0.722698
    C   C2   0.496973  0.647117  0.508433  0.722556
    O   O5   0.317627  0.497895  0.564013  -0.673503
    O   O6   0.682703  0.501910  0.435993  -0.672825
    O   O7   0.321059  0.500869  0.425481  -0.590025
    O   O8   0.679270  0.498936  0.574525  -0.590095
    C   C3   0.261775  0.500236  0.494206  0.717073
    C   C4   0.738555  0.499570  0.505800  0.716787
    Zn  Zn1  0.496953  0.496515  0.591475  1.043841
    Zn  Zn2  0.503377  0.503290  0.408531  1.043143
    H   H1   0.228087  0.622953  0.151033  0.061227
    H   H2   0.772244  0.376852  0.848973  0.061811
    C   C5   0.211318  0.642622  0.277270  -0.185398
    C   C6   0.789013  0.357183  0.722737  -0.183264
    H   H3   0.258239  0.696053  0.275059  0.106789
    H   H4   0.742094  0.303752  0.724948  0.106221
    C   C7   0.167913  0.615658  0.349565  -0.060349
    C   C8   0.832418  0.384147  0.650441  -0.061847
    H   H5   0.180194  0.648395  0.403795  0.071947
    H   H6   0.820138  0.351409  0.596212  0.072251
    C   C9   0.108076  0.547296  0.352552  0.099294
    C   C10  0.892253  0.452510  0.647454  0.099947
    C   C11  0.089175  0.507140  0.282523  -0.104903
    C   C12  0.911154  0.492666  0.717483  -0.105205
    H   H7   0.040610  0.454241  0.284171  0.082520
    H   H8   0.959718  0.545565  0.715835  0.082576
    C   C13  0.132840  0.534101  0.210306  -0.099638
    C   C14  0.867489  0.465705  0.789700  -0.099264
    H   H9   0.118612  0.502294  0.155661  0.078172
    H   H10  0.881717  0.497512  0.844344  0.078256
    C   C15  0.194168  0.601738  0.207696  -0.036072
    C   C16  0.806162  0.398067  0.792310  -0.037884
    C   C17  0.931661  0.517012  0.434194  -0.128133
    C   C18  0.068669  0.482793  0.565812  -0.130161
    H   H11  0.879589  0.532716  0.382163  0.120646
    H   H12  0.120740  0.467090  0.617843  0.121630
    C   C19  0.873026  0.497976  0.504952  -0.117400
    C   C20  0.127303  0.501830  0.495054  -0.115998
    C   C21  0.943618  0.479682  0.571512  0.044475
    C   C22  0.056711  0.520123  0.428494  0.043156
    C   C23  0.532272  0.847669  0.574235  -0.209873
    C   C24  0.468057  0.152136  0.425770  -0.210602
    H   H13  0.564313  0.879074  0.625748  0.135300
    H   H14  0.436016  0.120732  0.374257  0.135553
    C   C25  0.530977  0.769849  0.576350  -0.126403
    C   C26  0.469353  0.229957  0.423656  -0.125844
    H   H15  0.563012  0.741001  0.629531  0.125644
    H   H16  0.437318  0.258805  0.370475  0.125527
    C   C27  0.492816  0.729627  0.509755  -0.043236
    C   C28  0.507513  0.270178  0.490251  -0.043447
    C   C29  0.452162  0.767888  0.442555  -0.074326
    C   C30  0.548167  0.231918  0.557451  -0.074706
    H   H17  0.417774  0.737713  0.391075  0.140649
    H   H18  0.582554  0.262092  0.608931  0.140573
    C   C31  0.453141  0.845350  0.440702  -0.234019
    C   C32  0.547188  0.154455  0.559304  -0.233265
    H   H19  0.422121  0.874794  0.387618  0.127634
    H   H20  0.578207  0.125011  0.612388  0.127474
    C   C33  0.494429  0.885333  0.506042  0.313698
    C   C34  0.505899  0.114473  0.493964  0.314625
    C   C35  0.498497  0.966038  0.502105  -0.175244
    C   C36  0.501831  0.033767  0.497901  -0.177450
    C   C37  0.428983  0.443404  0.839874  -0.331289
    C   C38  0.571344  0.556402  0.160132  -0.331568
    H   H21  0.378278  0.404539  0.876821  0.165284
    H   H22  0.622050  0.595267  0.123185  0.165277
    C   C39  0.422356  0.440814  0.756835  0.165928
    C   C40  0.577973  0.558992  0.243171  0.166818
    N   N1   0.489215  0.489767  0.711727  -0.232771
    N   N2   0.511115  0.510038  0.288279  -0.233025
    C   C41  0.560361  0.541103  0.748928  0.165397
    C   C42  0.439967  0.458703  0.251078  0.166737
    H   H23  0.613861  0.579897  0.713576  0.093807
    H   H24  0.386468  0.419909  0.286430  0.093530
    C   C43  0.565796  0.545531  0.831766  -0.346357
    C   C44  0.434531  0.454276  0.168240  -0.347115
    H   H25  0.622280  0.587504  0.860399  0.161219
    H   H26  0.378047  0.412303  0.139607  0.161278
    C   C45  0.499256  0.496173  0.877510  0.408879
    C   C46  0.501071  0.503634  0.122496  0.408889
    C   C47  0.500500  0.499115  0.963768  -0.172993
    C   C48  0.499826  0.500692  0.036238  -0.172852
    C   C49  0.340493  0.382932  0.719954  0.376460
    C   C50  0.388345  0.304389  0.737415  -0.405957
    C   C51  0.211711  0.390556  0.752139  -0.257289
    H   H27  0.336304  0.390565  0.654549  0.009119
    H   H28  0.371254  0.288249  0.800822  0.084118
    H   H29  0.487524  0.303163  0.726541  0.090179
    H   H30  0.342639  0.263289  0.697323  0.098122
    H   H31  0.203224  0.366887  0.813554  0.042939
    H   H32  0.148789  0.359296  0.712152  0.055950
    H   H33  0.185727  0.450866  0.753524  0.035444
    C   C52  0.659836  0.616873  0.280052  0.375884
    C   C53  0.788618  0.609249  0.247867  -0.259129
    C   C54  0.611985  0.695417  0.262592  -0.406804
    H   H34  0.664026  0.609239  0.345457  0.009888
    H   H35  0.797105  0.632918  0.186451  0.043419
    H   H36  0.814601  0.548939  0.246481  0.036014
    H   H37  0.851540  0.640508  0.287854  0.056538
    H   H38  0.629077  0.711558  0.199185  0.084314
    H   H39  0.657691  0.736516  0.302684  0.098478
    H   H40  0.512806  0.696643  0.273466  0.090522
