# Generated by REPEAT Assigner based on pymatgen
data_DB0-m15_o19_o108_f0_fsc
_audit_creation_date              2022-05-24
_audit_creation_method            REPEAT_Assigner
_cell_length_a                    6.722400
_cell_length_b                    10.182100
_cell_length_c                    12.386657
_cell_angle_alpha                 90.000000
_cell_angle_beta                  80.149119
_cell_angle_gamma                 90.000000
_cell_volume                      835.343373
_symmetry_space_group_name_H-M    P1
_symmetry_Int_Tables_number       1
loop_
    _symmetry_equiv_pos_site_id
    _symmetry_equiv_pos_as_xyz
    1  x,y,z
loop_
    _atom_site_type_symbol
    _atom_site_label
    _atom_site_fract_x
    _atom_site_fract_y
    _atom_site_fract_z
    _atom_type_partial_charge
    Co  Co1  0.987107  0.128993  0.998682  0.822833
    Co  Co2  0.004093  0.867617  0.001397  0.831825
    O   O1   0.159595  0.117502  0.116800  -0.585479
    O   O2   0.176535  0.893727  0.118216  -0.597910
    O   O3   0.812099  0.101790  0.883004  -0.605672
    O   O4   0.831890  0.879133  0.883899  -0.595752
    O   O5   0.233537  0.114698  0.880741  -0.590566
    O   O6   0.251413  0.891403  0.885081  -0.585751
    O   O7   0.739934  0.105582  0.114499  -0.581096
    O   O8   0.755833  0.882521  0.117988  -0.588074
    C   C1   0.224781  0.008391  0.155108  0.781736
    C   C2   0.762531  0.987114  0.846835  0.761251
    C   C3   0.323415  0.004805  0.845465  0.772003
    C   C4   0.665222  0.992457  0.152578  0.770828
    N   N1   0.012254  0.681070  0.002991  -0.083974
    N   N2   0.982486  0.315633  0.998396  -0.088111
    C   C5   0.004393  0.567548  0.001883  0.136001
    C   C6   0.991177  0.429121  0.999851  0.139115
    C   C7   0.675382  0.980660  0.746936  -0.005080
    C   C8   0.802883  0.953017  0.650442  -0.167943
    C   C9   0.734729  0.957676  0.551930  -0.067667
    C   C10  0.474039  0.005559  0.745387  -0.225999
    C   C11  0.406637  0.013949  0.646259  0.266604
    C   C12  0.536512  0.991768  0.548682  -0.047752
    C   C13  0.464440  0.000155  0.450061  0.053959
    C   C14  0.590892  0.984033  0.350426  -0.193496
    C   C15  0.517532  0.991908  0.253359  -0.083280
    C   C16  0.206703  0.043267  0.645751  -0.275005
    C   C17  0.135290  0.050704  0.548140  -0.230822
    C   C18  0.263363  0.028184  0.450617  0.238563
    C   C19  0.188778  0.033275  0.353592  -0.215413
    C   C20  0.314328  0.013224  0.254630  -0.057199
    H   H1   0.958491  0.927807  0.652080  0.152371
    H   H2   0.106499  0.061894  0.722255  0.217102
    H   H3   0.979112  0.075705  0.547758  0.147035
    H   H4   0.029852  0.051434  0.355281  0.123933
    H   H5   0.840340  0.933614  0.479228  0.083776
    H   H6   0.750862  0.970206  0.344914  0.173106
