# Generated by REPEAT Assigner based on pymatgen
data_DB0-m2_o7_o24_f0_nbo.sym.135
_audit_creation_date              2022-05-24
_audit_creation_method            REPEAT_Assigner
_cell_length_a                    40.667961
_cell_length_b                    35.287220
_cell_length_c                    21.229173
_cell_angle_alpha                 90.000000
_cell_angle_beta                  60.047381
_cell_angle_gamma                 90.000000
_cell_volume                      26396.157050
_symmetry_space_group_name_H-M    P1
_symmetry_Int_Tables_number       1
loop_
    _symmetry_equiv_pos_site_id
    _symmetry_equiv_pos_as_xyz
    1  x,y,z
loop_
    _atom_site_type_symbol
    _atom_site_label
    _atom_site_fract_x
    _atom_site_fract_y
    _atom_site_fract_z
    _atom_type_partial_charge
    O   O1    0.945776  0.477702  0.068398  -0.596425
    O   O2    0.054223  0.477703  0.931600  -0.596408
    O   O3    0.445776  0.977702  0.068398  -0.596778
    O   O4    0.554223  0.977703  0.931600  -0.596758
    O   O5    0.945957  0.540170  0.033451  -0.610654
    O   O6    0.054042  0.540171  0.966550  -0.610694
    O   O7    0.445957  0.040170  0.033451  -0.610996
    O   O8    0.554042  0.040171  0.966550  -0.610985
    C   C1    0.928002  0.508979  0.068070  0.713403
    C   C2    0.071997  0.508980  0.931929  0.713406
    C   C3    0.428002  0.008979  0.068070  0.714168
    C   C4    0.571997  0.008980  0.931929  0.714112
    O   O9    0.009925  0.477668  0.080521  -0.647749
    O   O10   0.990074  0.477669  0.919477  -0.647770
    O   O11   0.509925  0.977668  0.080521  -0.648084
    O   O12   0.490074  0.977669  0.919477  -0.648067
    O   O13   0.988971  0.540210  0.100172  -0.609160
    O   O14   0.011028  0.540211  0.899829  -0.609126
    O   O15   0.488971  0.040210  0.100172  -0.609462
    O   O16   0.511028  0.040211  0.899829  -0.609439
    C   C5    0.998622  0.508753  0.120406  0.706517
    C   C6    0.001377  0.508754  0.879593  0.706568
    C   C7    0.498622  0.008753  0.120406  0.707170
    C   C8    0.501377  0.008754  0.879593  0.707155
    Cu  Cu1   0.000000  0.471930  0.999999  0.971669
    Cu  Cu2   0.500000  0.971930  0.999999  0.971471
    Cu  Cu3   0.999999  0.545954  0.000001  0.954361
    Cu  Cu4   0.499999  0.045954  0.000001  0.954077
    C   C9    0.962792  0.505074  0.265743  0.405954
    C   C10   0.037208  0.505080  0.734255  0.406278
    C   C11   0.462792  0.005074  0.265743  0.406822
    C   C12   0.537208  0.005080  0.734255  0.407084
    C   C13   0.977488  0.537250  0.292426  -0.237303
    C   C14   0.022509  0.537254  0.707575  -0.237650
    C   C15   0.477488  0.037250  0.292426  -0.238512
    C   C16   0.522509  0.037254  0.707575  -0.238979
    H   H1    0.962444  0.561262  0.329138  0.095723
    H   H2    0.037551  0.561267  0.670865  0.095868
    H   H3    0.462444  0.061262  0.329138  0.096130
    H   H4    0.537551  0.061267  0.670865  0.096279
    C   C17   0.998741  0.508322  0.310793  0.253361
    C   C18   0.001259  0.508323  0.689205  0.252926
    C   C19   0.498741  0.008322  0.310793  0.255012
    C   C20   0.501259  0.008323  0.689205  0.255312
    C   C21   0.983882  0.476127  0.285389  -0.305648
    C   C22   0.016121  0.476130  0.714606  -0.305459
    C   C23   0.483882  0.976127  0.285389  -0.306813
    C   C24   0.516121  0.976130  0.714606  -0.307278
    C   C25   0.018644  0.479945  0.210236  -0.023697
    C   C26   0.981358  0.479945  0.789759  -0.023760
    C   C27   0.518644  0.979945  0.210236  -0.022636
    C   C28   0.481358  0.979945  0.789759  -0.022351
    C   C29   0.033509  0.512048  0.236853  -0.047673
    C   C30   0.966491  0.512047  0.763145  -0.047591
    C   C31   0.533509  0.012048  0.236853  -0.049183
    C   C32   0.466491  0.012047  0.763145  -0.049389
    C   C33   0.012379  0.540778  0.216944  -0.072793
    C   C34   0.987618  0.540778  0.783057  -0.072443
    C   C35   0.512379  0.040778  0.216944  -0.071516
    C   C36   0.487618  0.040778  0.783057  -0.071350
    C   C37   0.997487  0.508613  0.191311  -0.002937
    C   C38   0.002513  0.508615  0.808687  -0.003192
    C   C39   0.497487  0.008613  0.191311  -0.004138
    C   C40   0.502513  0.008615  0.808687  -0.004316
    H   H5    0.973350  0.448967  0.314982  0.106233
    H   H6    0.026656  0.448971  0.685011  0.106225
    H   H7    0.473350  0.948967  0.314982  0.106659
    H   H8    0.526656  0.948971  0.685011  0.106812
    H   H9    0.035745  0.456143  0.174985  0.052076
    H   H10   0.964260  0.456142  0.825008  0.052079
    H   H11   0.535745  0.956143  0.174985  0.052144
    H   H12   0.464260  0.956142  0.825008  0.052086
    H   H13   0.062994  0.515032  0.226213  0.036320
    H   H14   0.937005  0.515028  0.773784  0.036316
    H   H15   0.562994  0.015032  0.226213  0.036854
    H   H16   0.437005  0.015028  0.773784  0.036906
    H   H17   0.024250  0.567560  0.186679  0.053072
    H   H18   0.975744  0.567559  0.813325  0.052966
    H   H19   0.524250  0.067560  0.186679  0.053035
    H   H20   0.475744  0.067559  0.813325  0.053043
    C   C41   0.671388  0.520003  0.273022  -0.214317
    C   C42   0.328611  0.520006  0.726974  -0.214330
    C   C43   0.171388  0.020003  0.273022  -0.214335
    C   C44   0.828611  0.020006  0.726974  -0.214457
    H   H21   0.685803  0.528722  0.216694  0.142073
    H   H22   0.314197  0.528724  0.783301  0.142079
    H   H23   0.185803  0.028722  0.216694  0.141826
    H   H24   0.814197  0.028724  0.783301  0.141867
    C   C45   0.632259  0.519613  0.312494  -0.063042
    C   C46   0.367740  0.519616  0.687501  -0.062995
    C   C47   0.132259  0.019613  0.312494  -0.062847
    C   C48   0.867740  0.019616  0.687501  -0.062739
    H   H25   0.616612  0.528161  0.286065  0.110163
    H   H26   0.383387  0.528163  0.713930  0.110145
    H   H27   0.116612  0.028161  0.286065  0.110017
    H   H28   0.883387  0.028163  0.713930  0.109985
    C   C49   0.613611  0.508463  0.384642  -0.058912
    C   C50   0.386388  0.508466  0.615353  -0.058956
    C   C51   0.113611  0.008463  0.384642  -0.059135
    C   C52   0.886388  0.008466  0.615353  -0.059214
    C   C53   0.634622  0.497727  0.416660  -0.081271
    C   C54   0.365376  0.497731  0.583335  -0.081246
    C   C55   0.134622  0.997727  0.416660  -0.081143
    C   C56   0.865376  0.997731  0.583335  -0.081121
    H   H29   0.620853  0.488894  0.472861  0.130203
    H   H30   0.379145  0.488898  0.527134  0.130183
    H   H31   0.120853  0.988894  0.472861  0.130023
    H   H32   0.879145  0.988898  0.527134  0.130005
    C   C57   0.673745  0.498160  0.376956  -0.222198
    C   C58   0.326253  0.498165  0.623039  -0.222186
    C   C59   0.173745  0.998160  0.376956  -0.222381
    C   C60   0.826253  0.998165  0.623039  -0.222409
    H   H33   0.690014  0.489726  0.402220  0.146664
    H   H34   0.309984  0.489730  0.597775  0.146668
    H   H35   0.190014  0.989726  0.402220  0.146556
    H   H36   0.809984  0.989730  0.597775  0.146570
    C   C61   0.692152  0.509300  0.305182  0.310829
    C   C62   0.307846  0.509304  0.694814  0.310802
    C   C63   0.192152  0.009300  0.305182  0.310285
    C   C64   0.807846  0.009304  0.694814  0.310419
    C   C65   0.732888  0.509607  0.263935  -0.174762
    C   C66   0.267110  0.509611  0.736061  -0.174781
    C   C67   0.232888  0.009607  0.263935  -0.174276
    C   C68   0.767110  0.009611  0.736061  -0.174479
    C   C69   0.767087  0.509720  0.229366  -0.161500
    C   C70   0.232911  0.509723  0.770630  -0.161449
    C   C71   0.267087  0.009720  0.229366  -0.162184
    C   C72   0.732911  0.009723  0.770630  -0.162003
    C   C73   0.827253  0.541485  0.150588  -0.215746
    C   C74   0.172745  0.541487  0.849413  -0.215777
    C   C75   0.327253  0.041485  0.150588  -0.216107
    C   C76   0.672745  0.041487  0.849413  -0.216116
    H   H37   0.811785  0.566688  0.152040  0.134886
    H   H38   0.188213  0.566690  0.847964  0.134875
    H   H39   0.311785  0.066688  0.152040  0.134901
    H   H40   0.688213  0.066690  0.847964  0.134898
    C   C77   0.866394  0.541335  0.111090  -0.042883
    C   C78   0.133604  0.541337  0.888912  -0.042912
    C   C79   0.366394  0.041335  0.111090  -0.042704
    C   C80   0.633604  0.041337  0.888912  -0.042737
    H   H41   0.881017  0.566699  0.082166  0.118191
    H   H42   0.118981  0.566700  0.917839  0.118215
    H   H43   0.381017  0.066699  0.082166  0.117835
    H   H44   0.618981  0.066700  0.917839  0.117867
    C   C81   0.886356  0.509151  0.109008  -0.113745
    C   C82   0.113642  0.509152  0.890990  -0.113711
    C   C83   0.386356  0.009151  0.109008  -0.114655
    C   C84   0.613642  0.009152  0.890990  -0.114569
    C   C85   0.866678  0.477228  0.147025  -0.035765
    C   C86   0.133321  0.477231  0.852969  -0.035826
    C   C87   0.366678  0.977228  0.147025  -0.035702
    C   C88   0.633321  0.977231  0.852969  -0.035750
    H   H45   0.881486  0.451764  0.146783  0.113865
    H   H46   0.118513  0.451768  0.853208  0.113875
    H   H47   0.381486  0.951764  0.146783  0.113581
    H   H48   0.618513  0.951768  0.853208  0.113588
    C   C89   0.827569  0.477533  0.186475  -0.219379
    C   C90   0.172430  0.477537  0.813519  -0.219393
    C   C91   0.327569  0.977533  0.186475  -0.219692
    C   C92   0.672430  0.977537  0.813519  -0.219685
    H   H49   0.812357  0.452538  0.216136  0.134990
    H   H50   0.187642  0.452542  0.783854  0.134994
    H   H51   0.312357  0.952538  0.216136  0.134986
    H   H52   0.687642  0.952542  0.783854  0.135000
    C   C93   0.807826  0.509606  0.188272  0.304216
    C   C94   0.192173  0.509609  0.811725  0.304228
    C   C95   0.307826  0.009606  0.188272  0.304729
    C   C96   0.692173  0.009609  0.811725  0.304685
    O   O17   0.032636  0.563093  0.471408  -0.618384
    O   O18   0.967363  0.563093  0.528589  -0.618277
    O   O19   0.532636  0.063093  0.471408  -0.617785
    O   O20   0.467363  0.063093  0.528589  -0.617764
    C   C97   0.999999  0.580882  0.499998  0.667903
    C   C98   0.499999  0.080882  0.499998  0.666632
    O   O21   0.032006  0.506890  0.377434  -0.624253
    O   O22   0.967995  0.506891  0.622563  -0.624278
    O   O23   0.532006  0.006890  0.377434  -0.623326
    O   O24   0.467995  0.006891  0.622563  -0.623377
    O   O25   0.966567  0.506295  0.440848  -0.604736
    O   O26   0.033434  0.506297  0.559150  -0.604766
    O   O27   0.466567  0.006295  0.440848  -0.604522
    O   O28   0.533434  0.006297  0.559150  -0.604460
    C   C99   0.999131  0.508229  0.380158  0.608708
    C   C100  0.000870  0.508231  0.619839  0.608951
    C   C101  0.499131  0.008230  0.380158  0.607040
    C   C102  0.500870  0.008231  0.619839  0.606998
    Cu  Cu5   0.037814  0.508022  0.463330  0.987386
    Cu  Cu6   0.962186  0.508021  0.536668  0.987282
    Cu  Cu7   0.537814  0.008022  0.463330  0.988412
    Cu  Cu8   0.462186  0.008021  0.536668  0.988468
    O   O29   0.032741  0.452925  0.470384  -0.597575
    O   O30   0.967261  0.452925  0.529614  -0.597482
    O   O31   0.532741  0.952925  0.470384  -0.596928
    O   O32   0.467261  0.952925  0.529614  -0.596916
    C   C103  0.000001  0.435173  0.499999  0.711564
    C   C104  0.500001  0.935173  0.499999  0.710282
    O   O33   0.511636  0.562140  0.540091  -0.597729
    O   O34   0.488364  0.562140  0.459903  -0.597734
    O   O35   0.011636  0.062140  0.540091  -0.598034
    O   O36   0.988364  0.062140  0.459903  -0.598060
    C   C105  0.500000  0.579960  0.499997  0.678135
    C   C106  0.000000  0.079960  0.499997  0.678998
    O   O37   0.555243  0.497625  0.495752  -0.610788
    O   O38   0.444756  0.497627  0.504243  -0.610785
    O   O39   0.055243  0.997625  0.495752  -0.611000
    O   O40   0.944756  0.997627  0.504243  -0.610965
    O   O41   0.552957  0.518565  0.394221  -0.589986
    O   O42   0.447042  0.518566  0.605774  -0.589943
    O   O43   0.052957  0.018565  0.394221  -0.590252
    O   O44   0.947042  0.018566  0.605774  -0.590247
    C   C107  0.571967  0.508160  0.426846  0.694320
    C   C108  0.428032  0.508162  0.573148  0.694304
    C   C109  0.071967  0.008160  0.426846  0.694880
    C   C110  0.928032  0.008162  0.573148  0.694880
    Cu  Cu9   0.501351  0.508092  0.560146  0.959956
    Cu  Cu10  0.498648  0.508093  0.439849  0.960011
    Cu  Cu11  0.001351  0.008092  0.560146  0.959246
    Cu  Cu12  0.998648  0.008093  0.439849  0.959254
    O   O45   0.490648  0.454042  0.561441  -0.596678
    O   O46   0.509349  0.454042  0.438554  -0.596676
    O   O47   0.990648  0.954042  0.561441  -0.596968
    O   O48   0.009349  0.954042  0.438554  -0.596978
    C   C111  0.499998  0.436216  0.499997  0.692406
    C   C112  0.999998  0.936216  0.499997  0.693314
    C   C113  0.490236  0.335800  0.563104  -0.237562
    C   C114  0.509759  0.335800  0.436891  -0.237616
    C   C115  0.990236  0.835800  0.563104  -0.237390
    C   C116  0.009759  0.835800  0.436891  -0.237526
    H   H53   0.482574  0.320459  0.612625  0.144597
    H   H54   0.517421  0.320459  0.387369  0.144631
    H   H55   0.982574  0.820459  0.612625  0.143879
    H   H56   0.017421  0.820459  0.387369  0.143942
    C   C117  0.490216  0.374872  0.563247  -0.055605
    C   C118  0.509780  0.374872  0.436748  -0.055652
    C   C119  0.990216  0.874872  0.563247  -0.055532
    C   C120  0.009780  0.874872  0.436748  -0.055540
    H   H57   0.482449  0.389567  0.613417  0.116382
    H   H58   0.517547  0.389567  0.386578  0.116404
    H   H59   0.982449  0.889567  0.613417  0.115881
    H   H60   0.017547  0.889567  0.386578  0.115909
    C   C121  0.499998  0.394653  0.499997  -0.070056
    C   C122  0.999998  0.894653  0.499997  -0.070949
    C   C123  0.499998  0.316268  0.499997  0.330033
    C   C124  0.999998  0.816268  0.499997  0.329734
    C   C125  0.499998  0.275615  0.499997  -0.175872
    C   C126  0.999998  0.775615  0.499997  -0.176385
    C   C127  0.999998  0.741476  0.499997  -0.155275
    C   C128  0.499998  0.241476  0.499997  -0.155409
    C   C129  0.966212  0.681291  0.529290  -0.219460
    C   C130  0.033785  0.681291  0.470705  -0.219590
    C   C131  0.466212  0.181291  0.529290  -0.219354
    C   C132  0.533785  0.181291  0.470705  -0.219352
    H   H61   0.939699  0.696631  0.552272  0.137255
    H   H62   0.060297  0.696632  0.447723  0.137242
    H   H63   0.439699  0.196631  0.552272  0.137892
    H   H64   0.560297  0.196632  0.447723  0.137864
    C   C133  0.966136  0.642218  0.529356  -0.075010
    C   C134  0.033862  0.642219  0.470640  -0.074608
    C   C135  0.466136  0.142218  0.529356  -0.075577
    C   C136  0.533862  0.142219  0.470640  -0.075327
    H   H65   0.939282  0.627513  0.552621  0.129277
    H   H66   0.060716  0.627515  0.447375  0.129145
    H   H67   0.439282  0.127513  0.552621  0.129941
    H   H68   0.560716  0.127515  0.447375  0.129825
    C   C137  0.999999  0.622442  0.499998  -0.048369
    C   C138  0.499999  0.122442  0.499998  -0.046745
    C   C139  0.999998  0.700823  0.499997  0.303304
    C   C140  0.499998  0.200823  0.499997  0.303812
    C   C141  0.487900  0.680345  0.459124  -0.220641
    C   C142  0.512103  0.680344  0.540871  -0.220414
    C   C143  0.987900  0.180345  0.459124  -0.220627
    C   C144  0.012103  0.180344  0.540871  -0.220399
    H   H69   0.478403  0.695690  0.427058  0.142466
    H   H70   0.521601  0.695689  0.572936  0.142355
    H   H71   0.978403  0.195690  0.427058  0.141820
    H   H72   0.021601  0.195689  0.572936  0.141705
    C   C145  0.487874  0.641280  0.459027  -0.076457
    C   C146  0.512129  0.641279  0.540967  -0.076590
    C   C147  0.987874  0.141280  0.459027  -0.076403
    C   C148  0.012129  0.141279  0.540967  -0.076521
    H   H73   0.478247  0.626584  0.426548  0.122683
    H   H74   0.521755  0.626583  0.573446  0.122734
    H   H75   0.978247  0.126584  0.426548  0.122197
    H   H76   0.021755  0.126583  0.573446  0.122237
    C   C149  0.500001  0.621508  0.499997  -0.042336
    C   C150  0.000001  0.121508  0.499997  -0.043084
    C   C151  0.500002  0.699866  0.499997  0.306126
    C   C152  0.000002  0.199866  0.499997  0.305756
    C   C153  0.500002  0.740503  0.499998  -0.164791
    C   C154  0.000002  0.240503  0.499998  -0.164934
    C   C155  0.000002  0.274633  0.499998  -0.163958
    C   C156  0.500002  0.774633  0.499998  -0.163627
    C   C157  0.966188  0.334791  0.530221  -0.227266
    C   C158  0.033815  0.334792  0.469777  -0.227293
    C   C159  0.466188  0.834791  0.530221  -0.227103
    C   C160  0.533815  0.834792  0.469777  -0.227112
    H   H77   0.939659  0.319446  0.553927  0.139468
    H   H78   0.060345  0.319447  0.446070  0.139474
    H   H79   0.439659  0.819446  0.553927  0.140061
    H   H80   0.560345  0.819447  0.446070  0.140063
    C   C161  0.966111  0.373857  0.530294  -0.052608
    C   C162  0.033892  0.373857  0.469704  -0.052578
    C   C163  0.466111  0.873857  0.530294  -0.052985
    C   C164  0.533892  0.873857  0.469704  -0.052963
    H   H81   0.939234  0.388555  0.554302  0.117968
    H   H82   0.060769  0.388556  0.445697  0.117983
    H   H83   0.439234  0.888555  0.554302  0.118599
    H   H84   0.560769  0.888556  0.445697  0.118582
    C   C165  0.000001  0.393626  0.499999  -0.091626
    C   C166  0.500001  0.893626  0.499999  -0.090361
    C   C167  0.000002  0.315271  0.499999  0.310757
    C   C168  0.500002  0.815271  0.499999  0.311013
    C   C169  0.922759  0.497637  0.278068  -0.064045
    C   C170  0.895625  0.481838  0.353415  -0.020175
    C   C171  0.881690  0.512269  0.411325  0.063716
    C   C172  0.861002  0.542453  0.394157  0.040898
    C   C173  0.887911  0.560834  0.322133  -0.008159
    C   C174  0.904977  0.531621  0.261536  -0.096267
    H   H85   0.926076  0.475120  0.238880  -0.015159
    H   H86   0.909071  0.458791  0.367883  -0.013740
    H   H87   0.870769  0.469543  0.352520  0.009097
    H   H88   0.905646  0.524937  0.414709  -0.021432
    H   H89   0.861753  0.499352  0.464618  -0.024005
    H   H90   0.850064  0.564280  0.437510  -0.023368
    H   H91   0.836825  0.529626  0.391513  -0.021173
    H   H92   0.910321  0.576382  0.326161  0.002234
    H   H93   0.871816  0.581707  0.309061  -0.012406
    H   H94   0.926096  0.545837  0.211146  0.012568
    H   H95   0.881919  0.520926  0.252869  0.077854
    C   C175  0.077241  0.497646  0.721931  -0.063842
    C   C176  0.104377  0.481848  0.646585  -0.020963
    C   C177  0.118310  0.512279  0.588675  0.064320
    C   C178  0.138995  0.542466  0.605844  0.041052
    C   C179  0.112085  0.560846  0.677868  -0.008370
    C   C180  0.095021  0.531633  0.738465  -0.096866
    H   H96   0.073926  0.475130  0.761119  -0.015147
    H   H97   0.090933  0.458799  0.632116  -0.013553
    H   H98   0.129234  0.469557  0.647480  0.009276
    H   H99   0.094353  0.524945  0.585292  -0.021555
    H   H100  0.138247  0.499364  0.535382  -0.024125
    H   H101  0.149931  0.564293  0.562491  -0.023436
    H   H102  0.163173  0.529641  0.608488  -0.021255
    H   H103  0.089674  0.576392  0.673839  0.002292
    H   H104  0.128178  0.581721  0.690940  -0.012275
    H   H105  0.073900  0.545848  0.788854  0.012722
    H   H106  0.118079  0.520940  0.747133  0.078087
    C   C181  0.422759  0.997637  0.278068  -0.064042
    C   C182  0.395625  0.981838  0.353415  -0.020356
    C   C183  0.381690  0.012269  0.411325  0.063370
    C   C184  0.361002  0.042453  0.394157  0.040334
    C   C185  0.387911  0.060834  0.322133  -0.008340
    C   C186  0.404977  0.031621  0.261536  -0.096372
    H   H107  0.426076  0.975120  0.238880  -0.015003
    H   H108  0.409071  0.958791  0.367883  -0.013817
    H   H109  0.370769  0.969543  0.352520  0.009369
    H   H110  0.405646  0.024937  0.414709  -0.021468
    H   H111  0.361753  0.999352  0.464618  -0.023735
    H   H112  0.350064  0.064280  0.437510  -0.023119
    H   H113  0.336825  0.029626  0.391513  -0.020708
    H   H114  0.410321  0.076382  0.326161  0.002097
    H   H115  0.371816  0.081707  0.309061  -0.012045
    H   H116  0.426096  0.045837  0.211146  0.012678
    H   H117  0.381919  0.020926  0.252869  0.078267
    C   C187  0.577241  0.997646  0.721931  -0.063834
    C   C188  0.604377  0.981848  0.646585  -0.020426
    C   C189  0.618310  0.012279  0.588675  0.063867
    C   C190  0.638995  0.042466  0.605844  0.040922
    C   C191  0.612085  0.060846  0.677868  -0.008726
    C   C192  0.595021  0.031633  0.738465  -0.096436
    H   H118  0.573926  0.975130  0.761119  -0.015068
    H   H119  0.590933  0.958799  0.632116  -0.013851
    H   H120  0.629234  0.969557  0.647480  0.009328
    H   H121  0.594353  0.024945  0.585292  -0.021672
    H   H122  0.638247  0.999364  0.535382  -0.023932
    H   H123  0.649931  0.064293  0.562491  -0.023307
    H   H124  0.663173  0.029641  0.608488  -0.020905
    H   H125  0.589674  0.076392  0.673839  0.002146
    H   H126  0.628178  0.081721  0.690940  -0.011952
    H   H127  0.573900  0.045848  0.788854  0.012692
    H   H128  0.618079  0.020940  0.747133  0.078280
