# Generated by REPEAT Assigner based on pymatgen
data_DB0-m3_o1480_o25_f0_fsc.sym.44_sqe
_audit_creation_date              2022-05-24
_audit_creation_method            REPEAT_Assigner
_cell_length_a                    8.524595
_cell_length_b                    10.683734
_cell_length_c                    14.297476
_cell_angle_alpha                 97.724659
_cell_angle_beta                  90.108023
_cell_angle_gamma                 90.008413
_cell_volume                      1290.316926
_symmetry_space_group_name_H-M    P1
_symmetry_Int_Tables_number       1
loop_
    _symmetry_equiv_pos_site_id
    _symmetry_equiv_pos_as_xyz
    1  x,y,z
loop_
    _atom_site_type_symbol
    _atom_site_label
    _atom_site_fract_x
    _atom_site_fract_y
    _atom_site_fract_z
    _atom_type_partial_charge
    C   C1   0.997481  0.690703  0.047147  -0.090283
    C   C2   0.138029  0.747422  0.032595  -0.054273
    C   C3   0.141158  0.868253  0.010385  -0.349697
    C   C4   0.858693  0.751536  0.034094  -0.135498
    C   C5   0.860788  0.876494  0.016613  -0.164370
    C   C6   0.003005  0.936943  0.007679  0.405122
    C   C7   0.003033  0.062726  0.991349  -0.298790
    C   C8   0.141339  0.131017  0.987968  -0.102923
    C   C9   0.138082  0.252083  0.966181  -0.128837
    C   C10  0.722318  0.941594  0.008200  0.257751
    N   N1   0.724918  0.063101  0.992506  -0.647898
    C   C11  0.861059  0.124093  0.983349  0.669664
    C   C12  0.859092  0.248710  0.965925  -0.366413
    C   C13  0.997586  0.309371  0.952383  -0.017947
    H   H1   0.610478  0.896335  0.015455  0.056119
    H   H2   0.995627  0.592616  0.058032  0.127032
    H   H3   0.995822  0.407516  0.941651  0.122077
    H   H4   0.254125  0.902913  0.992782  0.170214
    H   H5   0.254536  0.096024  0.004975  0.106434
    O   O1   0.330155  0.634229  0.936880  -0.724732
    O   O2   0.334651  0.626479  0.097710  -0.746552
    C   C14  0.279187  0.670220  0.022776  0.900008
    O   O3   0.330267  0.365099  0.062098  -0.689616
    O   O4   0.334431  0.372817  0.901247  -0.718551
    C   C15  0.279263  0.329068  0.976115  0.826222
    O   O5   0.667949  0.364660  0.062155  -0.673472
    O   O6   0.663163  0.372206  0.901781  -0.707984
    C   C16  0.717165  0.326228  0.976167  0.871041
    O   O7   0.667884  0.634680  0.937640  -0.727380
    O   O8   0.663447  0.627171  0.098009  -0.739928
    C   C17  0.717410  0.673008  0.023674  0.893849
    Zn  Zn1  0.499367  0.492391  0.103288  1.079638
    Zn  Zn2  0.499200  0.506960  0.896095  1.090181
    C   C18  0.624597  0.563661  0.534466  -0.230843
    C   C19  0.624736  0.442747  0.465940  -0.242380
    H   H6   0.729730  0.615218  0.564897  0.121122
    H   H7   0.507283  0.287847  0.544001  0.111288
    N   N2   0.499635  0.485176  0.225332  0.059098
    N   N3   0.499543  0.514197  0.774055  0.058638
    C   C20  0.495453  0.615860  0.476741  -0.132732
    C   C21  0.497907  0.494247  0.409345  0.732894
    C   C22  0.370978  0.558293  0.534280  -0.200051
    C   C23  0.499855  0.505841  0.590090  0.817594
    C   C24  0.373494  0.436582  0.465239  -0.161947
    C   C25  0.502344  0.383953  0.522934  -0.181399
    C   C26  0.499005  0.488133  0.306517  -0.285488
    C   C27  0.499711  0.511509  0.692890  -0.320410
    H   H8   0.269091  0.384331  0.434445  0.108241
    H   H9   0.264712  0.607044  0.565462  0.102257
    H   H10  0.491618  0.711814  0.455345  0.098507
    C   C28  0.770026  0.376141  0.423728  0.770908
    F   F1   0.862525  0.340453  0.495095  -0.248185
    F   F2   0.853705  0.456951  0.374703  -0.236225
    F   F3   0.726470  0.270215  0.362856  -0.231092
