# Generated by REPEAT Assigner based on pymatgen
data_DB0-m2_o11_o12_f0_pcu.sym.72
_audit_creation_date              2022-05-24
_audit_creation_method            REPEAT_Assigner
_cell_length_a                    11.181190
_cell_length_b                    11.033441
_cell_length_c                    9.572975
_cell_angle_alpha                 90.020486
_cell_angle_beta                  102.175998
_cell_angle_gamma                 89.995018
_cell_volume                      1154.421972
_symmetry_space_group_name_H-M    P1
_symmetry_Int_Tables_number       1
loop_
    _symmetry_equiv_pos_site_id
    _symmetry_equiv_pos_as_xyz
    1  x,y,z
loop_
    _atom_site_type_symbol
    _atom_site_label
    _atom_site_fract_x
    _atom_site_fract_y
    _atom_site_fract_z
    _atom_type_partial_charge
    O   O1   0.479739  0.324716  0.623522  -0.609185
    O   O2   0.487693  0.326082  0.384542  -0.584401
    C   C1   0.482571  0.268867  0.503592  0.698447
    O   O3   0.310185  0.500343  0.584946  -0.588607
    O   O4   0.309311  0.509699  0.344251  -0.527904
    C   C2   0.252196  0.506748  0.450425  0.626555
    Cu  Cu1  0.488421  0.500510  0.645844  1.036465
    Cu  Cu2  0.486617  0.502499  0.365664  0.853764
    O   O5   0.487800  0.676699  0.626648  -0.676974
    O   O6   0.493923  0.678453  0.388329  -0.597896
    O   O7   0.665891  0.492403  0.666903  -0.634810
    O   O8   0.664549  0.503448  0.426917  -0.643834
    C   C3   0.491737  0.734316  0.508329  0.765189
    C   C4   0.722610  0.496755  0.560481  0.824006
    H   H1   0.865681  0.498621  0.378125  0.127377
    H   H2   0.100412  0.491334  0.627737  0.159719
    C   C5   0.117353  0.509319  0.414118  -0.077470
    C   C6   0.052759  0.499093  0.517188  -0.224925
    H   H3   0.906440  0.493783  0.702751  0.194832
    C   C7   0.856962  0.495457  0.592491  -0.460272
    C   C8   0.917693  0.498000  0.486651  0.129650
    C   C9   0.490675  0.934037  0.395513  -0.044435
    C   C10  0.493680  0.867085  0.513020  -0.298398
    H   H4   0.488918  0.888941  0.294537  0.113050
    H   H5   0.498213  0.907532  0.616625  0.174569
    C   C11  0.491492  0.068322  0.394524  0.002216
    C   C12  0.479843  0.136163  0.506744  -0.297233
    H   H6   0.500922  0.112526  0.296369  0.101431
    H   H7   0.467796  0.096198  0.605673  0.161087
    C   C13  0.417443  0.433298  0.910806  0.097478
    N   N1   0.490471  0.499231  0.855510  -0.368714
    H   H8   0.346599  0.381462  0.841329  0.108435
    H   H9   0.568095  0.529138  0.924371  0.271131
    C   C14  0.430119  0.421733  0.068312  0.054514
    N   N2   0.483665  0.503362  0.155779  -0.260281
    H   H10  0.388292  0.344556  0.109123  0.118914
    H   H11  0.503749  0.583393  0.111005  0.232707
    C   C15  0.055766  0.521239  0.258912  0.001058
    C   C16  0.019270  0.396778  0.196153  0.002672
    C   C17  0.952096  0.408976  0.041616  0.286550
    C   C18  0.917155  0.284623  0.978668  -0.295087
    H   H12  0.118320  0.563141  0.197272  0.007667
    H   H13  0.976226  0.583210  0.244493  0.006998
    H   H14  0.959579  0.350369  0.258107  -0.009052
    H   H15  0.103081  0.341742  0.201282  -0.000084
    H   H16  0.012132  0.454314  0.979028  -0.059826
    H   H17  0.867959  0.463620  0.035993  -0.070417
    H   H18  0.000704  0.229460  0.982527  0.045641
    H   H19  0.867879  0.294513  0.865922  0.070131
    H   H20  0.856646  0.238591  0.040114  0.057556
