# Generated by REPEAT Assigner based on pymatgen
data_DB0-m2_o7_o11_f0_nbo.sym.19_sqe
_audit_creation_date              2022-05-24
_audit_creation_method            REPEAT_Assigner
_cell_length_a                    41.106708
_cell_length_b                    35.323116
_cell_length_c                    21.765800
_cell_angle_alpha                 90.000000
_cell_angle_beta                  120.863852
_cell_angle_gamma                 90.000000
_cell_volume                      27128.785530
_symmetry_space_group_name_H-M    P1
_symmetry_Int_Tables_number       1
loop_
    _symmetry_equiv_pos_site_id
    _symmetry_equiv_pos_as_xyz
    1  x,y,z
loop_
    _atom_site_type_symbol
    _atom_site_label
    _atom_site_fract_x
    _atom_site_fract_y
    _atom_site_fract_z
    _atom_type_partial_charge
    O   O1    0.446503  0.520627  0.927184  -0.587465
    O   O2    0.553500  0.520627  0.072808  -0.587549
    O   O3    0.946503  0.020627  0.927184  -0.587448
    O   O4    0.053500  0.020627  0.072808  -0.587449
    O   O5    0.445581  0.458417  0.961339  -0.617406
    O   O6    0.554422  0.458417  0.038654  -0.617326
    O   O7    0.945581  0.958417  0.961339  -0.617349
    O   O8    0.054422  0.958417  0.038654  -0.617229
    C   C1    0.428205  0.489616  0.925977  0.708401
    C   C2    0.571798  0.489616  0.074015  0.708659
    C   C3    0.928205  0.989616  0.925977  0.708306
    C   C4    0.071798  0.989616  0.074015  0.708268
    O   O9    0.512976  0.520623  0.925823  -0.631575
    O   O10   0.487028  0.520623  0.074169  -0.631552
    O   O11   0.012976  0.020623  0.925823  -0.631527
    O   O12   0.987028  0.020623  0.074169  -0.631533
    O   O13   0.491263  0.458376  0.903435  -0.632858
    O   O14   0.508740  0.458376  0.096557  -0.632809
    O   O15   0.991263  0.958376  0.903435  -0.632825
    O   O16   0.008740  0.958376  0.096557  -0.632787
    C   C5    0.502931  0.489420  0.886789  0.785591
    C   C6    0.497072  0.489420  0.113203  0.785566
    C   C7    0.002931  0.989420  0.886789  0.785611
    C   C8    0.997072  0.989420  0.113203  0.785570
    Cu  Cu1   0.500002  0.526412  0.999996  0.959695
    Cu  Cu2   0.000002  0.026412  0.999996  0.959585
    Cu  Cu3   0.500002  0.452596  0.999996  1.004868
    Cu  Cu4   0.000002  0.952596  0.999996  1.004841
    C   C9    0.466294  0.675965  0.463423  -0.205207
    C   C10   0.533709  0.675965  0.536568  -0.204924
    C   C11   0.966294  0.175965  0.463423  -0.205199
    C   C12   0.033709  0.175965  0.536568  -0.204917
    H   H1    0.439854  0.691301  0.434734  0.136070
    H   H2    0.560149  0.691301  0.565256  0.135988
    H   H3    0.939854  0.191301  0.434734  0.136067
    H   H4    0.060149  0.191301  0.565256  0.135987
    C   C13   0.000001  0.388908  0.499996  -0.063397
    C   C14   0.500001  0.888908  0.499996  -0.063375
    C   C15   0.500002  0.736022  0.499996  -0.154702
    C   C16   0.000002  0.236022  0.499996  -0.154714
    C   C17   0.500002  0.617217  0.499995  -0.002469
    C   C18   0.000002  0.117217  0.499995  -0.002432
    C   C19   0.525202  0.514299  0.742717  -0.008646
    C   C20   0.474802  0.514299  0.257276  -0.008863
    C   C21   0.025202  0.014299  0.742717  -0.008639
    C   C22   0.974802  0.014299  0.257276  -0.008775
    C   C23   0.495440  0.503599  0.680300  -0.332173
    C   C24   0.504564  0.503599  0.319692  -0.332008
    C   C25   0.995440  0.003599  0.680300  -0.332166
    C   C26   0.004564  0.003599  0.319692  -0.332045
    H   H5    0.550485  0.524978  0.744890  0.109208
    H   H6    0.449518  0.524979  0.255101  0.109288
    H   H7    0.050485  0.024978  0.744890  0.109211
    H   H8    0.949518  0.024979  0.255101  0.109245
    H   H9    0.468677  0.496655  0.676008  0.186135
    H   H10   0.531326  0.496655  0.323982  0.186106
    H   H11   0.968677  0.996655  0.676008  0.186139
    H   H12   0.031326  0.996655  0.323982  0.186117
    C   C27   0.523438  0.515138  0.808383  0.000632
    C   C28   0.476565  0.515138  0.191609  0.000712
    C   C29   0.023438  0.015138  0.808383  0.000642
    C   C30   0.976565  0.015138  0.191609  0.000661
    C   C31   0.504156  0.488984  0.820923  -0.327974
    C   C32   0.495848  0.488985  0.179069  -0.327932
    C   C33   0.004156  0.988984  0.820923  -0.328002
    C   C34   0.995848  0.988985  0.179069  -0.327910
    H   H13   0.540253  0.536020  0.848895  0.122488
    H   H14   0.459750  0.536021  0.151098  0.122461
    H   H15   0.040253  0.036020  0.848895  0.122478
    H   H16   0.959750  0.036021  0.151098  0.122474
    H   H17   0.490438  0.465760  0.783924  0.185149
    H   H18   0.509565  0.465761  0.216068  0.185098
    H   H19   0.990438  0.965760  0.783924  0.185146
    H   H20   0.009565  0.965761  0.216068  0.185091
    C   C35   0.172664  0.499863  0.726623  -0.223905
    C   C36   0.827339  0.499863  0.273369  -0.223940
    C   C37   0.672664  0.999863  0.726623  -0.223958
    C   C38   0.327339  0.999863  0.273369  -0.223989
    H   H21   0.187509  0.499313  0.784432  0.142184
    H   H22   0.812494  0.499314  0.215560  0.142193
    H   H23   0.687509  0.999313  0.784432  0.142182
    H   H24   0.312494  0.999314  0.215560  0.142203
    C   C39   0.133620  0.501751  0.687782  -0.037430
    C   C40   0.866383  0.501751  0.312210  -0.037007
    C   C41   0.633620  0.001751  0.687782  -0.037240
    C   C42   0.366383  0.001751  0.312210  -0.036982
    H   H25   0.118455  0.502561  0.716189  0.104789
    H   H26   0.881548  0.502562  0.283803  0.104524
    H   H27   0.618455  0.002561  0.716189  0.104745
    H   H28   0.381548  0.002562  0.283803  0.104522
    C   C43   0.114427  0.502212  0.613741  -0.056064
    C   C44   0.885576  0.502212  0.386251  -0.055914
    C   C45   0.614427  0.002212  0.613741  -0.056221
    C   C46   0.385576  0.002212  0.386251  -0.055971
    C   C47   0.134799  0.501087  0.579180  -0.060354
    C   C48   0.865204  0.501087  0.420812  -0.060386
    C   C49   0.634799  0.001087  0.579180  -0.060296
    C   C50   0.365204  0.001087  0.420812  -0.060347
    H   H29   0.120573  0.501337  0.521449  0.123358
    H   H30   0.879430  0.501337  0.478543  0.123291
    H   H31   0.620573  0.001337  0.521449  0.123349
    H   H32   0.379430  0.001337  0.478543  0.123288
    C   C51   0.173833  0.499193  0.618250  -0.234391
    C   C52   0.826170  0.499193  0.381742  -0.234310
    C   C53   0.673833  0.999193  0.618250  -0.234407
    C   C54   0.326170  0.999193  0.381742  -0.234369
    H   H33   0.189599  0.498111  0.590983  0.149032
    H   H34   0.810404  0.498110  0.409009  0.149026
    H   H35   0.689599  0.998111  0.590983  0.149031
    H   H36   0.310404  0.998110  0.409009  0.149038
    C   C55   0.192779  0.498403  0.691922  0.311120
    C   C56   0.807224  0.498403  0.308070  0.310968
    C   C57   0.692779  0.998403  0.691922  0.311105
    C   C58   0.307224  0.998403  0.308070  0.311106
    C   C59   0.233404  0.496044  0.732394  -0.170156
    C   C60   0.766599  0.496044  0.267598  -0.170140
    C   C61   0.733404  0.996044  0.732394  -0.170129
    C   C62   0.266599  0.996044  0.267598  -0.170330
    C   C63   0.267521  0.494251  0.766190  -0.163708
    C   C64   0.732482  0.494251  0.233802  -0.163697
    C   C65   0.767521  0.994251  0.766190  -0.163710
    C   C66   0.232482  0.994251  0.233802  -0.163493
    C   C67   0.326636  0.460305  0.843108  -0.207097
    C   C68   0.673367  0.460305  0.156884  -0.206977
    C   C69   0.826636  0.960305  0.843108  -0.207079
    C   C70   0.173367  0.960305  0.156884  -0.206978
    H   H37   0.310439  0.435897  0.841824  0.135767
    H   H38   0.689564  0.435897  0.158169  0.135750
    H   H39   0.810439  0.935897  0.841824  0.135767
    H   H40   0.189564  0.935897  0.158169  0.135751
    C   C71   0.365747  0.459067  0.881923  -0.064694
    C   C72   0.634256  0.459067  0.118069  -0.064759
    C   C73   0.865747  0.959067  0.881923  -0.064728
    C   C74   0.134256  0.959067  0.118069  -0.064862
    H   H41   0.379641  0.433495  0.910695  0.122939
    H   H42   0.620362  0.433495  0.089297  0.122926
    H   H43   0.879641  0.933495  0.910695  0.122942
    H   H44   0.120362  0.933495  0.089297  0.122958
    C   C75   0.386616  0.490300  0.883986  -0.077962
    C   C76   0.613387  0.490300  0.116006  -0.078229
    C   C77   0.886616  0.990300  0.883986  -0.077897
    C   C78   0.113387  0.990300  0.116006  -0.077875
    C   C79   0.367879  0.522620  0.846573  -0.070957
    C   C80   0.632125  0.522620  0.153418  -0.070820
    C   C81   0.867879  0.022620  0.846573  -0.070970
    C   C82   0.132125  0.022620  0.153418  -0.070917
    H   H45   0.383351  0.547462  0.847118  0.116641
    H   H46   0.616652  0.547462  0.152874  0.116592
    H   H47   0.883351  0.047462  0.847118  0.116645
    H   H48   0.116652  0.047462  0.152874  0.116611
    C   C83   0.328846  0.523709  0.807903  -0.208755
    C   C84   0.671158  0.523709  0.192089  -0.208724
    C   C85   0.828846  0.023709  0.807903  -0.208747
    C   C86   0.171158  0.023709  0.192089  -0.208716
    H   H49   0.314399  0.549075  0.778978  0.140615
    H   H50   0.685605  0.549075  0.221014  0.140611
    H   H51   0.814399  0.049075  0.778978  0.140613
    H   H52   0.185605  0.049075  0.221014  0.140612
    C   C87   0.308186  0.492648  0.806211  0.300955
    C   C88   0.691817  0.492647  0.193781  0.300896
    C   C89   0.808186  0.992648  0.806211  0.300941
    C   C90   0.191817  0.992647  0.193781  0.300795
    C   C91   0.500002  0.695449  0.499996  0.294859
    C   C92   0.000002  0.195449  0.499996  0.294862
    C   C93   0.466217  0.636950  0.463340  -0.099333
    C   C94   0.533787  0.636950  0.536651  -0.099511
    C   C95   0.966217  0.136950  0.463340  -0.099361
    C   C96   0.033787  0.136950  0.536651  -0.099536
    C   C97   0.000002  0.270104  0.499996  -0.177534
    C   C98   0.500002  0.770104  0.499996  -0.177543
    C   C99   0.000002  0.310677  0.499996  0.320846
    C   C100  0.500002  0.810677  0.499996  0.320838
    H   H53   0.439430  0.622261  0.434270  0.134099
    H   H54   0.560574  0.622261  0.565721  0.134111
    H   H55   0.939430  0.122261  0.434270  0.134111
    H   H56   0.060574  0.122261  0.565721  0.134121
    O   O17   0.532521  0.447934  0.537011  -0.590012
    O   O18   0.467483  0.447934  0.462982  -0.590095
    O   O19   0.032521  0.947934  0.537011  -0.589983
    O   O20   0.967483  0.947934  0.462982  -0.590083
    C   C101  0.500002  0.430173  0.499996  0.694076
    C   C102  0.000002  0.930173  0.499996  0.694042
    O   O21   0.530737  0.502192  0.621124  -0.597198
    O   O22   0.469266  0.502191  0.378868  -0.597255
    O   O23   0.030737  0.002192  0.621124  -0.597194
    O   O24   0.969266  0.002191  0.378868  -0.597230
    O   O25   0.465499  0.500959  0.553692  -0.651648
    O   O26   0.534504  0.500959  0.446300  -0.651633
    O   O27   0.965499  0.000959  0.553692  -0.651635
    O   O28   0.034504  0.000959  0.446300  -0.651621
    C   C103  0.497377  0.503513  0.615171  0.789428
    C   C104  0.502627  0.503512  0.384821  0.789409
    C   C105  0.997377  0.003513  0.615171  0.789425
    C   C106  0.002627  0.003512  0.384821  0.789412
    Cu  Cu5   0.537728  0.502949  0.538924  0.993385
    Cu  Cu6   0.462276  0.502949  0.461068  0.993529
    Cu  Cu7   0.037728  0.002949  0.538924  0.993318
    Cu  Cu8   0.962276  0.002949  0.461068  0.993485
    O   O29   0.532560  0.557987  0.535185  -0.606418
    O   O30   0.467443  0.557987  0.464806  -0.606525
    O   O31   0.032560  0.057987  0.535185  -0.606406
    O   O32   0.967443  0.057987  0.464806  -0.606521
    C   C107  0.500002  0.575734  0.499995  0.618811
    C   C108  0.000002  0.075734  0.499995  0.618800
    O   O33   0.002174  0.448146  0.449345  -0.631916
    O   O34   0.997828  0.448146  0.550646  -0.631919
    O   O35   0.502174  0.948146  0.449345  -0.631915
    O   O36   0.497828  0.948146  0.550646  -0.631880
    C   C109  0.000001  0.430390  0.499996  0.721041
    C   C110  0.500001  0.930390  0.499996  0.721013
    O   O37   0.055689  0.504621  0.502218  -0.572276
    O   O38   0.944314  0.504621  0.497773  -0.572072
    O   O39   0.555689  0.004621  0.502218  -0.572292
    O   O40   0.444314  0.004621  0.497773  -0.572090
    O   O41   0.054492  0.504544  0.606818  -0.581140
    O   O42   0.945511  0.504544  0.393174  -0.581043
    O   O43   0.554492  0.004544  0.606818  -0.581212
    O   O44   0.445511  0.004544  0.393174  -0.581056
    C   C111  0.072849  0.502943  0.572241  0.612561
    C   C112  0.927153  0.502943  0.427751  0.612148
    C   C113  0.572849  0.002943  0.572241  0.612649
    C   C114  0.427153  0.002943  0.427751  0.612189
    Cu  Cu9   0.000670  0.503165  0.439442  0.987969
    Cu  Cu10  0.999333  0.503165  0.560550  0.987747
    Cu  Cu11  0.500670  0.003165  0.439442  0.987904
    Cu  Cu12  0.499333  0.003165  0.560550  0.987843
    O   O45   0.002109  0.558197  0.449035  -0.610881
    O   O46   0.997894  0.558198  0.550956  -0.610863
    O   O47   0.502109  0.058197  0.449035  -0.610902
    O   O48   0.497894  0.058198  0.550956  -0.610860
    C   C115  0.000002  0.575777  0.499996  0.754743
    C   C116  0.500002  0.075777  0.499996  0.754646
    C   C117  0.966458  0.675661  0.459607  -0.271110
    C   C118  0.033545  0.675661  0.540385  -0.271344
    C   C119  0.466458  0.175661  0.459607  -0.271061
    C   C120  0.533545  0.175661  0.540385  -0.271267
    H   H57   0.941172  0.692397  0.429164  0.152873
    H   H58   0.058831  0.692397  0.570828  0.152924
    H   H59   0.441172  0.192397  0.429164  0.152864
    H   H60   0.558831  0.192397  0.570828  0.152916
    C   C121  0.966113  0.636382  0.459226  0.082383
    C   C122  0.033890  0.636382  0.540766  0.082538
    C   C123  0.466113  0.136382  0.459226  0.082191
    C   C124  0.533890  0.136382  0.540766  0.082294
    C   C125  0.000002  0.617104  0.499996  -0.258829
    C   C126  0.500002  0.117104  0.499996  -0.258493
    C   C127  0.000002  0.694915  0.499996  0.245588
    C   C128  0.500002  0.194915  0.499996  0.245619
    C   C129  0.000002  0.735542  0.499996  -0.108471
    C   C130  0.500002  0.235542  0.499996  -0.108533
    C   C131  0.500002  0.269658  0.499996  -0.222792
    C   C132  0.000002  0.769658  0.499996  -0.222838
    C   C133  0.466405  0.329817  0.461674  -0.228216
    C   C134  0.533598  0.329817  0.538320  -0.228047
    C   C135  0.966405  0.829817  0.461674  -0.228216
    C   C136  0.033598  0.829817  0.538320  -0.228050
    H   H61   0.440037  0.314495  0.431595  0.140355
    H   H62   0.559966  0.314495  0.568398  0.140322
    H   H63   0.940037  0.814495  0.431595  0.140355
    H   H64   0.059966  0.814495  0.568398  0.140324
    C   C137  0.466330  0.368859  0.461588  -0.065965
    C   C138  0.533674  0.368859  0.538405  -0.066126
    C   C139  0.966330  0.868859  0.461588  -0.065995
    C   C140  0.033674  0.868859  0.538405  -0.066156
    H   H65   0.439622  0.383543  0.431119  0.118495
    H   H66   0.560382  0.383543  0.568873  0.118508
    H   H67   0.939622  0.883543  0.431119  0.118508
    H   H68   0.060382  0.883543  0.568873  0.118519
    C   C141  0.500002  0.388632  0.499996  -0.078808
    C   C142  0.000002  0.888632  0.499996  -0.078755
    C   C143  0.500002  0.310289  0.499997  0.337956
    C   C144  0.000002  0.810289  0.499997  0.337982
    C   C145  0.997737  0.330161  0.552464  -0.224195
    C   C146  0.002266  0.330161  0.447528  -0.224111
    C   C147  0.497737  0.830161  0.552464  -0.224180
    C   C148  0.502266  0.830161  0.447528  -0.224100
    H   H69   0.995960  0.314826  0.593619  0.144088
    H   H70   0.004043  0.314826  0.406373  0.144080
    H   H71   0.495960  0.814826  0.593619  0.144086
    H   H72   0.504043  0.814826  0.406373  0.144077
    C   C149  0.997731  0.369176  0.552583  -0.074449
    C   C150  0.002272  0.369176  0.447409  -0.074611
    C   C151  0.497731  0.869176  0.552583  -0.074469
    C   C152  0.502272  0.869176  0.447409  -0.074626
    H   H73   0.995930  0.383866  0.594276  0.123676
    H   H74   0.004072  0.383866  0.405716  0.123731
    H   H75   0.495930  0.883866  0.594276  0.123679
    H   H76   0.504072  0.883866  0.405716  0.123736
    C   C153  0.930364  0.613524  0.416639  0.173715
    C   C154  0.894645  0.637039  0.374640  -0.315260
    H   H77   0.889913  0.654736  0.411455  0.068678
    H   H78   0.896519  0.654805  0.334540  0.073153
    H   H79   0.870162  0.617608  0.345774  0.065855
    H   H80   0.933117  0.595408  0.377926  0.025369
    H   H81   0.926414  0.595093  0.453581  0.028988
    C   C155  0.069639  0.613524  0.583353  0.174026
    C   C156  0.105358  0.637039  0.625355  -0.315452
    H   H82   0.110091  0.654736  0.588541  0.068691
    H   H83   0.103483  0.654805  0.665455  0.073205
    H   H84   0.129841  0.617608  0.654222  0.065923
    H   H85   0.066886  0.595407  0.622066  0.025231
    H   H86   0.073590  0.595094  0.546412  0.028895
    C   C157  0.430364  0.113524  0.416639  0.173772
    C   C158  0.394645  0.137039  0.374640  -0.315282
    H   H87   0.389913  0.154736  0.411455  0.068688
    H   H88   0.396519  0.154805  0.334540  0.073162
    H   H89   0.370162  0.117608  0.345774  0.065852
    H   H90   0.433117  0.095408  0.377926  0.025364
    H   H91   0.426414  0.095093  0.453581  0.028987
    C   C159  0.569639  0.113524  0.583353  0.173944
    C   C160  0.605358  0.137039  0.625355  -0.315531
    H   H92   0.610091  0.154736  0.588541  0.068733
    H   H93   0.603483  0.154805  0.665455  0.073242
    H   H94   0.629841  0.117608  0.654222  0.065935
    H   H95   0.566886  0.095407  0.622066  0.025286
    H   H96   0.573590  0.095094  0.546412  0.028952
