# Generated by REPEAT Assigner based on pymatgen
data_DB0-m3_o25_o50_f0_fsc.sym.55
_audit_creation_date              2022-05-24
_audit_creation_method            REPEAT_Assigner
_cell_length_a                    8.495444
_cell_length_b                    11.194759
_cell_length_c                    14.287251
_cell_angle_alpha                 90.757419
_cell_angle_beta                  90.542177
_cell_angle_gamma                 106.784232
_cell_volume                      1300.656859
_symmetry_space_group_name_H-M    P1
_symmetry_Int_Tables_number       1
loop_
    _symmetry_equiv_pos_site_id
    _symmetry_equiv_pos_as_xyz
    1  x,y,z
loop_
    _atom_site_type_symbol
    _atom_site_label
    _atom_site_fract_x
    _atom_site_fract_y
    _atom_site_fract_z
    _atom_type_partial_charge
    C   C1   0.578824  0.692784  0.971485  0.075997
    C   C2   0.429589  0.316139  0.028970  0.078069
    C   C3   0.743660  0.753019  0.982936  -0.176645
    C   C4   0.264753  0.255901  0.017525  -0.176225
    C   C5   0.797175  0.877512  0.008671  0.126462
    C   C6   0.211237  0.131404  0.991803  0.129544
    C   C7   0.680947  0.935374  0.036402  -0.078897
    C   C8   0.327466  0.073539  0.964077  -0.083016
    H   H1   0.718919  0.029503  0.064561  0.075917
    H   H2   0.289494  0.979407  0.935925  0.077063
    C   C9   0.515055  0.869340  0.035674  -0.104253
    C   C10  0.493358  0.139574  0.964800  -0.102618
    C   C11  0.463161  0.749490  0.998581  -0.202391
    C   C12  0.545251  0.259430  0.001881  -0.204437
    C   C13  0.975550  0.943311  0.008439  -0.215882
    C   C14  0.032863  0.065604  0.992039  -0.219333
    H   H3   0.062065  0.889908  0.018029  0.158403
    H   H4   0.946346  0.119006  0.982448  0.159196
    H   H5   0.540029  0.595239  0.951261  0.068449
    H   H6   0.468384  0.413688  0.049185  0.068048
    H   H7   0.426379  0.911837  0.063948  0.101459
    H   H8   0.582033  0.097073  0.936532  0.101432
    O   O1   0.884660  0.623256  0.910243  -0.669453
    O   O2   0.123752  0.385662  0.090218  -0.669741
    O   O3   0.893343  0.646661  0.071298  -0.680453
    O   O4   0.115069  0.362258  0.929164  -0.682943
    C   C15  0.853470  0.675628  0.987534  0.799827
    C   C16  0.154941  0.333290  0.012927  0.801073
    O   O5   0.784395  0.388304  0.080474  -0.769891
    O   O6   0.224017  0.620614  0.919988  -0.772744
    O   O7   0.788259  0.364458  0.919871  -0.745472
    O   O8   0.220153  0.644461  0.080590  -0.743371
    C   C17  0.717468  0.335953  0.001143  0.927763
    C   C18  0.290944  0.672966  0.999318  0.927737
    Zn  Zn1  0.003776  0.515806  0.104336  1.072717
    Zn  Zn2  0.004636  0.493113  0.896125  1.081580
    C   C19  0.154231  0.552046  0.535119  -0.270950
    C   C20  0.854189  0.456866  0.465341  -0.267338
    C   C21  0.100386  0.440510  0.468732  0.088394
    C   C22  0.908033  0.568402  0.531729  0.072055
    H   H9   0.279650  0.595033  0.564171  0.124025
    H   H10  0.728770  0.413879  0.436291  0.125414
    H   H11  0.893134  0.287880  0.545338  0.099362
    H   H12  0.115286  0.721032  0.455124  0.100108
    N   N1   0.000547  0.526847  0.227048  0.028654
    N   N2   0.007865  0.482072  0.773413  0.032646
    C   C23  0.061792  0.622429  0.475272  -0.191119
    C   C24  0.946627  0.386483  0.525188  -0.195832
    C   C25  0.008592  0.510413  0.409722  0.658740
    C   C26  0.999827  0.498500  0.590739  0.679347
    C   C27  0.003570  0.521222  0.307832  -0.267409
    C   C28  0.004846  0.487694  0.692629  -0.280001
    C   C29  0.213882  0.365448  0.440091  -0.120536
    C   C30  0.285504  0.307276  0.507050  0.222634
    C   C31  0.253109  0.316233  0.609134  -0.376055
    C   C32  0.389795  0.239008  0.479457  -0.228485
    C   C33  0.423678  0.227935  0.386356  -0.064635
    C   C34  0.353717  0.285192  0.320065  -0.060067
    C   C35  0.249743  0.353478  0.346615  -0.176250
    H   H13  0.292997  0.414517  0.633774  0.119291
    H   H14  0.323603  0.264836  0.649775  0.099016
    H   H15  0.121391  0.273590  0.623620  0.111746
    H   H16  0.446017  0.193392  0.530660  0.131219
    H   H17  0.505292  0.174405  0.365403  0.087501
    H   H18  0.380453  0.276740  0.246867  0.081753
    H   H19  0.198333  0.396948  0.292545  0.135636
    C   C36  0.794536  0.643464  0.560367  -0.112140
    C   C37  0.722915  0.701633  0.493407  0.218271
    C   C38  0.755313  0.692676  0.391324  -0.370021
    C   C39  0.618622  0.769902  0.520997  -0.227910
    C   C40  0.584735  0.780974  0.614098  -0.064373
    C   C41  0.654695  0.723717  0.680390  -0.059565
    C   C42  0.758672  0.655434  0.653842  -0.177910
    H   H20  0.715428  0.594395  0.366680  0.118412
    H   H21  0.887028  0.735322  0.376834  0.110640
    H   H22  0.684825  0.744068  0.350672  0.097219
    H   H23  0.562397  0.815520  0.469796  0.131194
    H   H24  0.503120  0.834503  0.635049  0.087090
    H   H25  0.627954  0.732170  0.753588  0.082525
    H   H26  0.810079  0.611967  0.707916  0.134734
