data_DB0-m3_o11_o29_f0_pcu.sym.42_repeat
_audit_creation_date              2024-02-23
_audit_creation_method            'Materials Studio'
_symmetry_space_group_name_H-M    'P1'
_symmetry_Int_Tables_number       1
_symmetry_cell_setting            triclinic
loop_
_symmetry_equiv_pos_as_xyz
  x,y,z
_cell_length_a                    27.5891
_cell_length_b                    11.1010
_cell_length_c                    9.9015
_cell_angle_alpha                 89.9974
_cell_angle_beta                  89.9930
_cell_angle_gamma                 89.9936
loop_
_atom_site_label
_atom_site_type_symbol
_atom_site_fract_x
_atom_site_fract_y
_atom_site_fract_z
_atom_site_U_iso_or_equiv
_atom_site_adp_type
_atom_site_occupancy
O1     O     0.49731   0.32238   0.62262   0.00000  Uiso   1.00
O2     O     0.50011   0.31879   0.39054   0.00000  Uiso   1.00
C1     C     0.49673   0.26410   0.50750   0.00000  Uiso   1.00
O3     O     0.43104   0.51590   0.61093   0.00000  Uiso   1.00
O4     O     0.43294   0.50991   0.37844   0.00000  Uiso   1.00
C2     C     0.40935   0.51676   0.49317   0.00000  Uiso   1.00
Zn1    Zn    0.50249   0.50203   0.65538   0.00000  Uiso   1.00
Zn2    Zn    0.50540   0.49690   0.34832   0.00000  Uiso   1.00
O5     O     0.50903   0.67989   0.61400   0.00000  Uiso   1.00
O6     O     0.51002   0.67696   0.38029   0.00000  Uiso   1.00
O7     O     0.57493   0.48734   0.62562   0.00000  Uiso   1.00
O8     O     0.57695   0.48570   0.39238   0.00000  Uiso   1.00
C3     C     0.51113   0.73427   0.49661   0.00000  Uiso   1.00
C4     C     0.59855   0.48262   0.51047   0.00000  Uiso   1.00
C5     C     0.18144   0.41205   0.48099   0.00000  Uiso   1.00
O9     O     0.20765   0.31054   0.46955   0.00000  Uiso   1.00
N1     N     0.20430   0.51880   0.49047   0.00000  Uiso   1.00
C6     C     0.17886   0.62153   0.50397   0.00000  Uiso   1.00
C7     C     0.28086   0.55284   0.60513   0.00000  Uiso   1.00
C8     C     0.33081   0.55158   0.60620   0.00000  Uiso   1.00
C9     C     0.33117   0.49463   0.37351   0.00000  Uiso   1.00
C10    C     0.28117   0.49360   0.37353   0.00000  Uiso   1.00
C11    C     0.25592   0.52260   0.48933   0.00000  Uiso   1.00
C12    C     0.10457   0.51047   0.49894   0.00000  Uiso   1.00
C13    C     0.13137   0.40645   0.48652   0.00000  Uiso   1.00
C14    C     0.10801   0.29733   0.47894   0.00000  Uiso   1.00
C15    C     0.12872   0.61877   0.50678   0.00000  Uiso   1.00
C16    C     0.35626   0.52230   0.49039   0.00000  Uiso   1.00
H1     H     0.35023   0.47063   0.28203   0.00000  Uiso   1.00
H2     H     0.26179   0.47006   0.28237   0.00000  Uiso   1.00
H3     H     0.12799   0.21437   0.46637   0.00000  Uiso   1.00
C17    C     0.65167   0.47852   0.51313   0.00000  Uiso   1.00
C18    C     0.98023   0.39156   0.51801   0.00000  Uiso   1.00
C19    C     0.97712   0.60809   0.50341   0.00000  Uiso   1.00
C20    C     0.95370   0.49770   0.51275   0.00000  Uiso   1.00
C21    C     0.95545   0.28372   0.53854   0.00000  Uiso   1.00
C22    C     0.90576   0.28109   0.54622   0.00000  Uiso   1.00
C23    C     0.87943   0.38549   0.53285   0.00000  Uiso   1.00
C24    C     0.90333   0.49339   0.51641   0.00000  Uiso   1.00
C25    C     0.87628   0.59689   0.50307   0.00000  Uiso   1.00
C26    C     0.82620   0.59101   0.50387   0.00000  Uiso   1.00
N2     N     0.80359   0.48466   0.52065   0.00000  Uiso   1.00
C27    C     0.82928   0.38257   0.53625   0.00000  Uiso   1.00
C28    C     0.72625   0.45519   0.63421   0.00000  Uiso   1.00
C29    C     0.67621   0.45556   0.63222   0.00000  Uiso   1.00
C30    C     0.67768   0.50095   0.39637   0.00000  Uiso   1.00
C31    C     0.72759   0.50287   0.39931   0.00000  Uiso   1.00
C32    C     0.75200   0.48013   0.51805   0.00000  Uiso   1.00
O10    O     0.80585   0.27733   0.55154   0.00000  Uiso   1.00
C33    C     0.03069   0.39565   0.50373   0.00000  Uiso   1.00
C34    C     0.05421   0.50621   0.50374   0.00000  Uiso   1.00
C35    C     0.02779   0.61254   0.50859   0.00000  Uiso   1.00
C36    C     0.05840   0.29166   0.48783   0.00000  Uiso   1.00
H4     H     0.65669   0.43747   0.72465   0.00000  Uiso   1.00
H5     H     0.74521   0.43783   0.72774   0.00000  Uiso   1.00
H6     H     0.88810   0.19540   0.56220   0.00000  Uiso   1.00
H7     H     0.97327   0.19871   0.55394   0.00000  Uiso   1.00
H8     H     0.04299   0.20327   0.47683   0.00000  Uiso   1.00
O11    O     0.20252   0.72707   0.51248   0.00000  Uiso   1.00
C37    C     0.10268   0.72370   0.51914   0.00000  Uiso   1.00
H9     H     0.34956   0.57392   0.69868   0.00000  Uiso   1.00
H10    H     0.26126   0.57495   0.69638   0.00000  Uiso   1.00
H11    H     0.12060   0.80984   0.52839   0.00000  Uiso   1.00
C38    C     0.94907   0.71150   0.48749   0.00000  Uiso   1.00
C39    C     0.89937   0.70560   0.48690   0.00000  Uiso   1.00
O12    O     0.79972   0.69183   0.48967   0.00000  Uiso   1.00
C40    C     0.05292   0.72098   0.51962   0.00000  Uiso   1.00
H12    H     0.96414   0.79938   0.46984   0.00000  Uiso   1.00
H13    H     0.65946   0.51996   0.30216   0.00000  Uiso   1.00
H14    H     0.87912   0.78805   0.47348   0.00000  Uiso   1.00
H15    H     0.74760   0.52209   0.30794   0.00000  Uiso   1.00
H16    H     0.03545   0.80659   0.53388   0.00000  Uiso   1.00
C41    C     0.50138   0.93405   0.39455   0.00000  Uiso   1.00
C42    C     0.51490   0.86579   0.49899   0.00000  Uiso   1.00
H17    H     0.49169   0.89192   0.29960   0.00000  Uiso   1.00
H18    H     0.52712   0.90723   0.59193   0.00000  Uiso   1.00
C43    C     0.50295   0.06699   0.40111   0.00000  Uiso   1.00
C44    C     0.48968   0.13253   0.50943   0.00000  Uiso   1.00
H19    H     0.51686   0.11271   0.31257   0.00000  Uiso   1.00
C45    C     0.53253   0.56402   0.92655   0.00000  Uiso   1.00
N3     N     0.50037   0.50754   0.85721   0.00000  Uiso   1.00
H20    H     0.56180   0.60987   0.87475   0.00000  Uiso   1.00
H21    H     0.47000   0.47881   0.90779   0.00000  Uiso   1.00
C46    C     0.52921   0.57383   0.07529   0.00000  Uiso   1.00
N4     N     0.50825   0.49231   0.14652   0.00000  Uiso   1.00
H22    H     0.54667   0.64909   0.12515   0.00000  Uiso   1.00
H23    H     0.49752   0.41555   0.09695   0.00000  Uiso   1.00
C47    C     0.46308   0.07916   0.62452   0.00000  Uiso   1.00
O13    O     0.46788   0.12065   0.73777   0.00000  Uiso   1.00
O14    O     0.43090   0.98961   0.60336   0.00000  Uiso   1.00
C48    C     0.40470   0.94168   0.70811   0.00000  Uiso   1.00
H24    H     0.38076   0.86944   0.66894   0.00000  Uiso   1.00
H25    H     0.38203   0.01274   0.75522   0.00000  Uiso   1.00
H26    H     0.42966   0.90274   0.78435   0.00000  Uiso   1.00
