# Generated by REPEAT Assigner based on pymatgen
data_DB0-m29_o84_o46_f0_pts.sym.12
_audit_creation_date              2022-05-24
_audit_creation_method            REPEAT_Assigner
_cell_length_a                    13.244370
_cell_length_b                    9.876279
_cell_length_c                    13.267542
_cell_angle_alpha                 82.784916
_cell_angle_beta                  100.524200
_cell_angle_gamma                 118.178451
_cell_volume                      1502.492316
_symmetry_space_group_name_H-M    P1
_symmetry_Int_Tables_number       1
loop_
    _symmetry_equiv_pos_site_id
    _symmetry_equiv_pos_as_xyz
    1  x,y,z
loop_
    _atom_site_type_symbol
    _atom_site_label
    _atom_site_fract_x
    _atom_site_fract_y
    _atom_site_fract_z
    _atom_type_partial_charge
    C   C1   0.196231  0.945116  0.886532  0.071558
    C   C2   0.087772  0.915241  0.834933  -0.188620
    C   C3   0.008491  0.928451  0.882873  0.180958
    C   C4   0.900247  0.894102  0.831094  -0.136944
    C   C5   0.821351  0.908893  0.877315  -0.089047
    C   C6   0.222993  0.987578  0.987935  -0.129997
    C   C7   0.143523  0.003232  0.034837  0.074571
    C   C8   0.036513  0.975301  0.982167  0.016784
    C   C9   0.958166  0.995205  0.028312  -0.093480
    C   C10  0.850458  0.963669  0.975451  0.149648
    C   C11  0.771944  0.984506  0.020446  -0.140888
    C   C12  0.169959  0.045879  0.135249  -0.043516
    C   C13  0.093368  0.066567  0.180432  -0.194441
    C   C14  0.988182  0.048137  0.126489  0.244231
    C   C15  0.913770  0.081020  0.169913  -0.181866
    C   C16  0.801867  0.042631  0.118708  0.047746
    H   H1   0.063927  0.880406  0.756529  0.155242
    H   H2   0.875916  0.854028  0.753971  0.124762
    H   H3   0.737402  0.875768  0.833538  0.121995
    H   H4   0.250544  0.065516  0.181758  0.104224
    H   H5   0.118984  0.094671  0.259676  0.165497
    O   O1   0.613658  0.032224  0.117452  -0.582360
    C   C17  0.713404  0.052531  0.169726  0.607948
    O   O2   0.591953  0.767101  0.287129  -0.451349
    O   O3   0.726829  0.061815  0.269419  -0.452695
    O   O4   0.457460  0.834220  0.317675  -0.492968
    C   C18  0.509418  0.746819  0.337873  0.476638
    Fe  Fe1  0.493662  0.991304  0.203084  1.411850
    O   O5   0.341494  0.907592  0.110936  -0.636314
    O   O6   0.420540  0.156507  0.050706  -0.547181
    C   C19  0.334378  0.016567  0.047558  0.808955
    O   O7   0.555748  0.195725  0.265056  -0.573733
    O   O8   0.388748  0.047095  0.330587  -0.538768
    C   C20  0.479502  0.181231  0.322606  0.599289
    O   O9   0.438827  0.766600  0.744530  -0.579290
    O   O10  0.610291  0.911850  0.686773  -0.542748
    C   C21  0.518143  0.778461  0.691740  0.641585
    O   O11  0.649299  0.060018  0.897450  -0.625422
    O   O12  0.577413  0.809006  0.953077  -0.531734
    C   C22  0.659914  0.951338  0.959198  0.763009
    O   O13  0.266051  0.939758  0.731202  -0.510135
    O   O14  0.538096  0.126538  0.685449  -0.542213
    C   C23  0.504819  0.234078  0.675646  0.496884
    O   O15  0.376051  0.936183  0.883447  -0.586563
    C   C24  0.281644  0.937435  0.831852  0.584446
    O   O16  0.446384  0.240038  0.743376  -0.430812
    Fe  Fe2  0.499102  0.973643  0.802332  1.451905
    C   C25  0.491860  0.654106  0.434259  0.148553
    C   C26  0.486802  0.726431  0.513965  -0.291177
    H   H6   0.490234  0.838611  0.500973  0.190923
    C   C27  0.491947  0.670428  0.612957  0.128767
    C   C28  0.503606  0.537873  0.634009  -0.198575
    H   H7   0.522328  0.507525  0.713464  0.133506
    C   C29  0.500978  0.455182  0.554377  0.074546
    C   C30  0.491975  0.511258  0.451958  -0.025841
    C   C31  0.478421  0.420101  0.371482  -0.056541
    C   C32  0.503527  0.296689  0.395438  0.058430
    H   H8   0.531810  0.148493  0.508949  0.199125
    C   C33  0.522751  0.252523  0.495835  -0.232951
    C   C34  0.511541  0.319857  0.575255  0.076427
    C   C35  0.959726  0.174687  0.264318  0.265634
    C   C36  0.942944  0.071915  0.361805  -0.233838
    H   H9   0.870820  0.955596  0.345515  0.092402
    H   H10  0.022751  0.061780  0.392670  0.028155
    H   H11  0.923193  0.123128  0.420543  0.084703
    H   H12  0.052028  0.258441  0.265527  -0.059517
    H   H13  0.918759  0.250144  0.262769  -0.008691
    C   C37  0.415531  0.431079  0.265629  0.047045
    C   C38  0.298133  0.417578  0.273163  -0.177571
    H   H14  0.258573  0.328877  0.333556  0.080967
    H   H15  0.303110  0.526846  0.291185  0.045485
    H   H16  0.242843  0.383502  0.198047  0.053669
    H   H17  0.465164  0.532864  0.218229  0.054847
    H   H18  0.397060  0.335497  0.218611  0.044876
