# Generated by REPEAT Assigner based on pymatgen
data_DB0-m3_o450_o4_f0_fsc.sym.11
_audit_creation_date              2022-05-24
_audit_creation_method            REPEAT_Assigner
_cell_length_a                    12.764871
_cell_length_b                    9.254695
_cell_length_c                    8.563485
_cell_angle_alpha                 90.000000
_cell_angle_beta                  95.022364
_cell_angle_gamma                 90.000000
_cell_volume                      1007.763044
_symmetry_space_group_name_H-M    P1
_symmetry_Int_Tables_number       1
loop_
    _symmetry_equiv_pos_site_id
    _symmetry_equiv_pos_as_xyz
    1  x,y,z
loop_
    _atom_site_type_symbol
    _atom_site_label
    _atom_site_fract_x
    _atom_site_fract_y
    _atom_site_fract_z
    _atom_type_partial_charge
    C   C1   0.710329  0.998878  0.168272  0.238216
    C   C2   0.818177  0.014696  0.180456  -0.508472
    H   H1   0.861015  0.024160  0.294569  0.199886
    C   C3   0.871859  0.011200  0.046375  0.363773
    C   C4   0.815994  0.007713  0.899564  -0.206569
    H   H2   0.854281  0.015127  0.792145  0.090896
    C   C5   0.708126  0.994349  0.889645  0.004316
    C   C6   0.657784  0.979789  0.023526  -0.281139
    N   N1   0.982953  0.013039  0.062402  -0.015818
    N   N2   0.022246  0.978004  0.939882  -0.345131
    C   C7   0.187207  0.982248  0.821866  -0.472686
    H   H3   0.144367  0.970300  0.708013  0.185585
    C   C8   0.294472  0.005819  0.833092  0.117863
    C   C9   0.346250  0.031024  0.977431  -0.281829
    C   C10  0.297458  0.009388  0.111821  -0.105745
    C   C11  0.190779  0.984834  0.103220  0.167319
    C   C12  0.133659  0.981479  0.956405  0.456033
    H   H4   0.575085  0.958483  0.014907  0.144656
    H   H5   0.427832  0.059477  0.985386  0.151643
    O   O1   0.612536  0.124582  0.684225  -0.625113
    O   O2   0.606290  0.875767  0.683224  -0.695249
    C   C13  0.643616  0.998258  0.740564  0.797887
    O   O3   0.389335  0.876812  0.648758  -0.670240
    O   O4   0.396047  0.126055  0.652874  -0.695097
    C   C14  0.357671  0.002909  0.698164  0.793896
    O   O5   0.392173  0.879276  0.318337  -0.696041
    O   O6   0.399229  0.129163  0.318372  -0.654428
    C   C15  0.362421  0.006012  0.260695  0.868118
    O   O7   0.616063  0.127349  0.352654  -0.735634
    O   O8   0.608568  0.879037  0.347395  -0.645843
    C   C16  0.647575  0.001705  0.303122  0.739867
    Zn  Zn1  0.500248  0.842854  0.499407  1.030410
    Zn  Zn2  0.505744  0.161720  0.502242  1.003804
    C   C17  0.417081  0.428544  0.486907  0.028480
    C   C18  0.414278  0.570353  0.485262  0.185032
    N   N3   0.506145  0.351654  0.504157  -0.027543
    N   N4   0.500415  0.652886  0.497540  -0.108487
    C   C19  0.596263  0.429262  0.519568  0.171591
    C   C20  0.593469  0.580884  0.513087  0.198360
    C   C21  0.298118  0.580316  0.465248  -0.145762
    C   C22  0.301379  0.410399  0.466882  -0.144396
    H   H6   0.264926  0.626998  0.569530  0.096315
    H   H7   0.269702  0.362769  0.571872  0.101256
    H   H8   0.269043  0.625698  0.349644  0.091491
    H   H9   0.274172  0.362096  0.351982  0.120838
    O   O9   0.144734  0.960856  0.239324  -0.307298
    C   C23  0.133476  0.097892  0.303506  -0.046348
    H   H10  0.140212  0.181013  0.211639  0.013960
    H   H11  0.195539  0.115107  0.400615  0.064299
    H   H12  0.055134  0.106782  0.349328  0.034921
    O   O10  0.690882  0.359288  0.539543  -0.145735
    C   C24  0.726740  0.382480  0.696291  0.006128
    H   H13  0.658810  0.402095  0.765846  0.023122
    H   H14  0.780456  0.476750  0.705944  0.028297
    H   H15  0.770679  0.286155  0.742931  0.077990
    O   O11  0.685893  0.656691  0.525575  -0.169497
    C   C25  0.730714  0.631589  0.384964  -0.009446
    H   H16  0.668269  0.603278  0.291723  0.034601
    H   H17  0.788892  0.542726  0.400166  0.023546
    H   H18  0.772333  0.730126  0.350299  0.085149
