# Generated by REPEAT Assigner based on pymatgen
data_DB0-m2_o9_o15_f0_nbo.sym.100
_audit_creation_date              2022-05-24
_audit_creation_method            REPEAT_Assigner
_cell_length_a                    18.628929
_cell_length_b                    18.859882
_cell_length_c                    18.726350
_cell_angle_alpha                 109.868865
_cell_angle_beta                  109.366982
_cell_angle_gamma                 109.216446
_cell_volume                      5062.199750
_symmetry_space_group_name_H-M    P1
_symmetry_Int_Tables_number       1
loop_
    _symmetry_equiv_pos_site_id
    _symmetry_equiv_pos_as_xyz
    1  x,y,z
loop_
    _atom_site_type_symbol
    _atom_site_label
    _atom_site_fract_x
    _atom_site_fract_y
    _atom_site_fract_z
    _atom_type_partial_charge
    C   C1    0.892574  0.014444  0.407833  0.662182
    C   C2    0.845559  0.812791  0.587136  0.130808
    C   C3    0.173658  0.490149  0.476831  0.000517
    C   C4    0.438876  0.750152  0.751200  -0.178345
    C   C5    0.519645  0.820317  0.819324  -0.029435
    C   C6    0.594372  0.826946  0.814317  0.227667
    C   C7    0.587479  0.758989  0.748417  -0.139038
    C   C8    0.507093  0.687671  0.681801  -0.027471
    C   C9    0.431471  0.685459  0.681284  -0.007422
    C   C10   0.711719  0.966560  0.853138  0.509781
    C   C11   0.792702  0.040774  0.912321  -0.336179
    C   C12   0.844768  0.050978  0.991362  -0.069022
    C   C13   0.704521  0.682477  0.506650  -0.396873
    C   C14   0.815498  0.987656  0.012013  -0.167089
    C   C15   0.733897  0.914599  0.953929  -0.059225
    C   C16   0.681482  0.904185  0.875033  -0.155531
    C   C17   0.671826  0.764952  0.049510  0.167380
    C   C18   0.667971  0.682049  0.993924  0.132857
    C   C19   0.672726  0.681955  0.914655  -0.138391
    C   C20   0.102411  0.445812  0.682820  0.287988
    C   C21   0.075887  0.504449  0.732519  0.070832
    C   C22   0.111290  0.520939  0.825466  -0.272712
    C   C23   0.336625  0.168367  0.007258  0.437363
    C   C24   0.696770  0.678302  0.428564  0.249508
    C   C25   0.256831  0.145411  0.927454  0.077193
    C   C26   0.185770  0.052941  0.887655  -0.374220
    C   C27   0.686823  0.924072  0.717810  0.421233
    C   C28   0.710489  0.983102  0.681243  0.042509
    C   C29   0.747483  0.951501  0.624246  -0.204350
    C   C30   0.759534  0.744842  0.430005  0.187128
    C   C31   0.835506  0.811809  0.509310  -0.312558
    C   C32   0.626303  0.607609  0.348229  -0.302271
    C   C33   0.614860  0.605799  0.271213  -0.067173
    C   C34   0.672445  0.674825  0.273057  -0.016079
    C   C35   0.743946  0.743910  0.351489  -0.286620
    C   C36   0.444294  0.760903  0.115967  -0.178504
    C   C37   0.902927  0.882967  0.511483  0.738628
    C   C38   0.521046  0.839175  0.161320  -0.057019
    C   C39   0.595761  0.842714  0.159424  -0.195864
    C   C40   0.594295  0.765399  0.116746  0.520089
    C   C41   0.517530  0.686985  0.073001  -0.296266
    C   C42   0.442326  0.684793  0.071167  -0.100472
    C   C43   0.746837  0.934992  0.280360  -0.226330
    C   C44   0.820327  0.014404  0.344642  -0.000205
    C   C45   0.823486  0.088780  0.344329  0.000722
    C   C46   0.759010  0.080499  0.273441  -0.109496
    C   C47   0.687286  0.000505  0.205992  -0.102570
    C   C48   0.142523  0.000996  0.617350  0.787493
    C   C49   0.677947  0.927033  0.213612  0.181211
    C   C50   0.865928  0.234609  0.451867  -0.129171
    C   C51   0.927134  0.320290  0.513842  -0.275486
    C   C52   0.014914  0.349102  0.542007  0.512400
    C   C53   0.041008  0.291796  0.507193  -0.313697
    C   C54   0.979503  0.206260  0.443679  -0.113196
    C   C55   0.891587  0.177090  0.416307  0.073283
    C   C56   0.323039  0.105008  0.675263  -0.160052
    C   C57   0.407511  0.171336  0.715738  -0.089546
    C   C58   0.469055  0.189281  0.794164  -0.069617
    C   C59   0.131299  0.131930  0.515308  0.641499
    C   C60   0.448219  0.136491  0.828295  -0.230541
    C   C61   0.365135  0.063605  0.783253  0.257759
    C   C62   0.300203  0.054469  0.711583  0.088884
    C   C63   0.344916  0.000405  0.807830  -0.459667
    C   C64   0.259509  0.928463  0.756939  0.265184
    C   C65   0.192864  0.929624  0.696437  0.174533
    C   C66   0.212929  0.995502  0.676822  -0.235060
    C   C67   0.239221  0.853888  0.763833  -0.276032
    C   C68   0.154000  0.787278  0.719351  -0.081421
    C   C69   0.087590  0.792502  0.665553  -0.054583
    C   C70   0.922345  0.875132  0.666923  -0.102558
    C   C71   0.106905  0.862330  0.652636  -0.248038
    C   C72   0.514162  0.381526  0.389125  0.562811
    C   C73   0.633778  0.615793  0.505140  0.829175
    C   C74   0.507112  0.618746  0.614578  0.663051
    C   C75   0.388776  0.385900  0.498280  0.653323
    C   C76   0.517276  0.122076  0.120845  0.631407
    C   C77   0.625973  0.999018  0.130052  0.599906
    C   C78   0.521845  0.886519  0.891754  0.538429
    C   C79   0.411415  0.006568  0.884330  0.922401
    C   C80   0.625386  0.350404  0.074054  -0.215983
    C   C81   0.929239  0.880177  0.744072  -0.206272
    C   C82   0.614767  0.322379  0.130766  -0.069862
    C   C83   0.533747  0.287967  0.124875  -0.196917
    C   C84   0.463839  0.284313  0.063610  0.553542
    C   C85   0.475032  0.313487  0.007698  -0.376269
    C   C86   0.555579  0.346232  0.012726  0.010612
    C   C87   0.521228  0.325445  0.255373  -0.303092
    C   C88   0.516295  0.313776  0.322795  0.096498
    C   C89   0.515805  0.240684  0.325556  -0.090419
    C   C90   0.516234  0.180068  0.258833  -0.079376
    C   C91   0.520178  0.191462  0.190822  -0.160797
    C   C92   0.860074  0.823661  0.743393  0.108854
    C   C93   0.525351  0.266835  0.191001  0.289061
    C   C94   0.574224  0.206771  0.440660  -0.176898
    C   C95   0.569376  0.186519  0.503692  -0.103623
    C   C96   0.501637  0.180744  0.520490  -0.108436
    C   C97   0.438527  0.194882  0.473932  -0.110933
    C   C98   0.443449  0.215175  0.410962  -0.099249
    C   C99   0.511861  0.222375  0.394789  0.173443
    C   C100  0.168772  0.250477  0.215701  -0.079005
    C   C101  0.195085  0.273241  0.302011  -0.138707
    C   C102  0.222951  0.225985  0.334960  0.102244
    C   C103  0.785359  0.759215  0.665174  -0.422925
    C   C104  0.217768  0.151924  0.278977  -0.078767
    C   C105  0.191703  0.129283  0.192734  -0.123077
    C   C106  0.167887  0.178964  0.161234  -0.113693
    C   C107  0.189079  0.185890  0.434576  -0.240298
    C   C108  0.196549  0.202127  0.515184  0.072349
    C   C109  0.262884  0.283183  0.589133  -0.051370
    C   C110  0.325371  0.338468  0.580212  -0.094572
    C   C111  0.317791  0.322038  0.499485  -0.065100
    C   C112  0.244914  0.246422  0.424925  0.128878
    C   C113  0.286799  0.400662  0.720919  -0.089617
    C   C114  0.778379  0.750924  0.586040  0.301903
    C   C115  0.300492  0.436279  0.805131  -0.154164
    C   C116  0.297686  0.388206  0.846326  -0.108280
    C   C117  0.281806  0.304680  0.803281  -0.019578
    C   C118  0.269654  0.269771  0.719750  -0.171073
    C   C119  0.270952  0.316682  0.676972  0.089096
    C   C120  0.201640  0.575947  0.499917  -0.207105
    C   C121  0.285924  0.639281  0.566370  -0.101856
    C   C122  0.342710  0.617032  0.609734  0.149750
    C   C123  0.313668  0.531402  0.588068  -0.180918
    C   C124  0.229722  0.468005  0.520935  -0.025433
    Cu  Cu1   0.013681  0.949540  0.445087  0.955784
    Cu  Cu2   0.020130  0.065058  0.580819  0.921505
    Cu  Cu3   0.453348  0.500610  0.439002  0.888074
    Cu  Cu4   0.569589  0.501345  0.564625  0.929089
    Cu  Cu5   0.454689  0.945019  0.002704  0.868926
    Cu  Cu6   0.584661  0.062099  0.011692  0.861788
    H   H1    0.662245  0.674454  0.212667  0.057819
    H   H2    0.385995  0.759175  0.116748  0.114279
    H   H3    0.522582  0.898290  0.198688  0.107920
    H   H4    0.516509  0.626701  0.041017  0.149284
    H   H5    0.741408  0.878470  0.285641  0.128951
    H   H6    0.765270  0.138862  0.271841  0.113519
    H   H7    0.797222  0.212964  0.430261  0.121235
    H   H8    0.905971  0.365086  0.539379  0.132847
    H   H9    0.109592  0.314295  0.528406  0.151838
    H   H10   0.000293  0.163152  0.413787  0.106804
    H   H11   0.020621  0.740063  0.630417  0.080676
    H   H12   0.979341  0.921099  0.672053  0.126074
    H   H13   0.275823  0.093501  0.614265  0.088538
    H   H14   0.424425  0.211278  0.687579  0.100697
    H   H15   0.534533  0.244089  0.828495  0.098430
    H   H16   0.498911  0.155766  0.891090  0.167976
    H   H17   0.288737  0.843387  0.800771  0.172850
    H   H18   0.139506  0.730332  0.726202  0.110232
    H   H19   0.053090  0.860728  0.605459  0.145199
    H   H20   0.564233  0.369602  0.969233  0.085898
    H   H21   0.688825  0.377028  0.078676  0.124135
    H   H22   0.670274  0.328160  0.180595  0.096711
    H   H23   0.988775  0.929580  0.805498  0.101122
    H   H24   0.420953  0.312077  0.960830  0.146699
    H   H25   0.524936  0.383128  0.253544  0.159453
    H   H26   0.513359  0.122516  0.260450  0.109938
    H   H27   0.627668  0.211258  0.428020  0.114938
    H   H28   0.618711  0.175045  0.539887  0.106279
    H   H29   0.497819  0.164815  0.569867  0.097885
    H   H30   0.385075  0.189867  0.486671  0.088659
    H   H31   0.394075  0.226183  0.374592  0.086525
    H   H32   0.147189  0.161043  0.093539  0.113326
    H   H33   0.148231  0.288395  0.190591  0.102074
    H   H34   0.864714  0.828946  0.804262  0.052242
    H   H35   0.193783  0.328260  0.343877  0.061716
    H   H36   0.235177  0.111938  0.302889  0.068980
    H   H37   0.189408  0.072196  0.149647  0.098248
    H   H38   0.134445  0.126363  0.376186  0.118290
    H   H39   0.380329  0.397981  0.638260  0.105856
    H   H40   0.287831  0.439189  0.689440  0.078660
    H   H41   0.312980  0.501983  0.838719  0.113915
    H   H42   0.307846  0.415890  0.912094  0.095170
    H   H43   0.279146  0.266384  0.835061  0.049967
    H   H44   0.257777  0.204947  0.687841  0.133739
    H   H45   0.733242  0.716983  0.669012  0.212017
    H   H46   0.107736  0.440293  0.424445  0.068017
    H   H47   0.157650  0.593571  0.465705  0.128572
    H   H48   0.307684  0.706423  0.583707  0.096602
    H   H49   0.357106  0.514097  0.623342  0.108397
    H   H50   0.207821  0.400824  0.502686  0.069365
    H   H51   0.379438  0.745467  0.751031  0.126755
    H   H52   0.646739  0.764397  0.747596  0.076051
    H   H53   0.815608  0.090876  0.896624  0.166247
    H   H54   0.908411  0.108746  0.037233  0.099061
    H   H55   0.856117  0.995657  0.074074  0.103386
    H   H56   0.578926  0.551470  0.342615  0.184303
    H   H57   0.710112  0.865757  0.970359  0.063194
    H   H58   0.734229  0.821697  0.071774  0.045313
    H   H59   0.615825  0.769705  0.010521  -0.028850
    H   H60   0.723971  0.677761  0.033628  -0.014253
    H   H61   0.605740  0.624930  0.971443  -0.036231
    H   H62   0.617734  0.687744  0.875449  0.015015
    H   H63   0.667754  0.620163  0.873670  0.032736
    H   H64   0.736099  0.737127  0.936189  0.020727
    H   H65   0.174702  0.476465  0.718276  0.015619
    H   H66   0.073009  0.381847  0.678426  -0.028792
    H   H67   0.559614  0.550634  0.209356  0.093486
    H   H68   0.103115  0.567216  0.734127  0.015772
    H   H69   0.003373  0.473067  0.699513  0.001012
    H   H70   0.084762  0.458336  0.824293  0.059931
    H   H71   0.090949  0.563215  0.861109  0.070156
    H   H72   0.183967  0.553703  0.859563  0.047650
    H   H73   0.315613  0.137744  0.043198  -0.039041
    H   H74   0.376573  0.143720  0.985913  -0.113114
    H   H75   0.231677  0.190180  0.946898  0.000564
    H   H76   0.275481  0.151682  0.878588  0.011430
    H   H77   0.213882  0.009260  0.880359  0.079667
    H   H78   0.785551  0.796510  0.348214  0.189215
    H   H79   0.133411  0.032198  0.822467  0.105952
    H   H80   0.157536  0.049539  0.930848  0.095283
    H   H81   0.632787  0.858380  0.663178  -0.042193
    H   H82   0.744463  0.918796  0.751901  -0.082300
    H   H83   0.650852  0.982685  0.641529  0.012551
    H   H84   0.760255  0.050324  0.735871  -0.013178
    H   H85   0.810017  0.957065  0.665129  0.063532
    H   H86   0.760086  0.992149  0.593968  0.047412
    H   H87   0.700029  0.882749  0.571929  0.029368
    H   H88   0.382484  0.623209  0.036582  0.130728
    O   O1    0.920849  0.963619  0.375224  -0.581733
    O   O2    0.545565  0.395368  0.469938  -0.518721
    O   O3    0.553740  0.604264  0.467791  -0.579423
    O   O4    0.653010  0.570155  0.540886  -0.613627
    O   O5    0.441611  0.573015  0.532791  -0.562979
    O   O6    0.575350  0.607015  0.639663  -0.591795
    O   O7    0.371125  0.397104  0.429892  -0.488294
    O   O8    0.467938  0.432378  0.568554  -0.588453
    O   O9    0.479898  0.042232  0.107694  -0.565581
    O   O10   0.555026  0.142222  0.076683  -0.477643
    O   O11   0.545819  0.931455  0.076142  -0.459949
    O   O12   0.924054  0.061403  0.492468  -0.558136
    O   O13   0.654069  0.067454  0.119832  -0.561532
    O   O14   0.450333  0.866803  0.899058  -0.561857
    O   O15   0.593561  0.963453  0.945020  -0.431460
    O   O16   0.384352  0.977405  0.930872  -0.612549
    O   O17   0.494030  0.037417  0.901962  -0.639728
    O   O18   0.669616  0.765156  0.123268  -0.408425
    O   O19   0.074957  0.435484  0.599182  -0.504535
    O   O20   0.385634  0.258461  0.062766  -0.520318
    O   O21   0.659242  0.957664  0.775645  -0.543686
    O   O22   0.932839  0.863602  0.457271  -0.601254
    O   O23   0.929932  0.963627  0.567163  -0.573565
    O   O24   0.112373  0.956166  0.533106  -0.597440
    O   O25   0.110511  0.047889  0.650322  -0.612837
    O   O26   0.100922  0.051289  0.456256  -0.578641
    O   O27   0.103961  0.151254  0.571498  -0.525635
    O   O28   0.483078  0.428209  0.364949  -0.552403
