# Generated by REPEAT Assigner based on pymatgen
data_DB0-m29_o85_o1470_f0_pts.sym.71
_audit_creation_date              2022-05-24
_audit_creation_method            REPEAT_Assigner
_cell_length_a                    13.415825
_cell_length_b                    12.140075
_cell_length_c                    13.302695
_cell_angle_alpha                 91.476315
_cell_angle_beta                  84.939940
_cell_angle_gamma                 106.656121
_cell_volume                      2067.603112
_symmetry_space_group_name_H-M    P1
_symmetry_Int_Tables_number       1
loop_
    _symmetry_equiv_pos_site_id
    _symmetry_equiv_pos_as_xyz
    1  x,y,z
loop_
    _atom_site_type_symbol
    _atom_site_label
    _atom_site_fract_x
    _atom_site_fract_y
    _atom_site_fract_z
    _atom_type_partial_charge
    C   C1   0.183054  0.061318  0.127030  -0.306056
    H   H1   0.204953  0.081930  0.203017  0.205914
    C   C2   0.090346  0.074992  0.100861  0.485527
    C   C3   0.058481  0.041945  0.005162  -0.168858
    C   C4   0.129098  0.013839  0.933409  -0.083166
    H   H2   0.106644  0.988662  0.858401  0.119237
    C   C5   0.227563  0.012981  0.956693  -0.048736
    C   C6   0.252122  0.031006  0.056434  0.010527
    C   C7   0.934054  0.060077  0.883717  -0.101074
    H   H3   0.998243  0.093608  0.827575  0.130607
    C   C8   0.834130  0.043797  0.857416  -0.136760
    H   H4   0.822741  0.060044  0.780373  0.147348
    C   C9   0.749215  0.004504  0.926838  -0.013306
    C   C10  0.765251  0.987423  0.026813  -0.029043
    C   C11  0.865679  0.994501  0.050012  -0.215682
    H   H5   0.877397  0.971148  0.124828  0.142544
    C   C12  0.950992  0.032120  0.979400  0.229578
    O   O1   0.586092  0.968570  0.093319  -0.568730
    C   C13  0.682346  0.974339  0.111003  0.674924
    O   O2   0.560319  0.763041  0.229797  -0.472282
    O   O3   0.707663  0.982025  0.204533  -0.472953
    O   O4   0.454786  0.853445  0.320384  -0.582910
    C   C14  0.499984  0.770459  0.311240  0.564844
    Fe  Fe1  0.488919  0.972159  0.213499  1.443012
    O   O5   0.347684  0.951834  0.164106  -0.612469
    O   O6   0.438746  0.099779  0.060790  -0.493192
    C   C15  0.350507  0.023866  0.091155  0.749283
    O   O7   0.563068  0.121000  0.277835  -0.605582
    O   O8   0.396305  0.130506  0.302935  -0.497616
    C   C16  0.495456  0.173580  0.317020  0.621063
    O   O9   0.444323  0.813006  0.721463  -0.594135
    O   O10  0.613393  0.878080  0.661545  -0.553683
    C   C17  0.524931  0.795838  0.666526  0.678575
    O   O11  0.629115  0.043458  0.819268  -0.507162
    O   O12  0.575883  0.879800  0.911874  -0.460094
    C   C18  0.645789  0.978176  0.889151  0.663534
    O   O13  0.289405  0.015919  0.780743  -0.513621
    O   O14  0.490042  0.075921  0.656838  -0.570308
    C   C19  0.534854  0.186644  0.667642  0.665071
    O   O15  0.385340  0.964275  0.893009  -0.556343
    C   C20  0.302418  0.994602  0.874129  0.573643
    O   O16  0.569340  0.227097  0.754337  -0.494063
    Fe  Fe2  0.485919  0.975345  0.772859  1.417944
    C   C21  0.545359  0.206063  0.486630  -0.108819
    C   C22  0.544576  0.260604  0.578702  -0.100188
    C   C23  0.539315  0.374113  0.582704  0.062262
    C   C24  0.538365  0.433694  0.682362  -0.266525
    C   C25  0.537376  0.559680  0.683187  0.709103
    C   C26  0.523002  0.252409  0.401772  0.024580
    C   C27  0.505943  0.359667  0.407678  -0.159278
    C   C28  0.523027  0.424259  0.495348  0.162551
    C   C29  0.514443  0.541974  0.495610  -0.070334
    C   C30  0.517903  0.604576  0.584782  -0.136727
    C   C31  0.507181  0.715033  0.582070  0.035808
    C   C32  0.457384  0.402621  0.326499  0.413158
    C   C33  0.515294  0.527249  0.308369  -0.371519
    C   C34  0.508713  0.592982  0.403967  0.221712
    C   C35  0.499254  0.704203  0.402824  -0.004659
    C   C36  0.495232  0.761363  0.492797  -0.196374
    H   H6   0.467901  0.383467  0.728555  0.114124
    H   H7   0.479878  0.558097  0.246960  0.143524
    H   H8   0.551035  0.119056  0.482093  0.140775
    H   H9   0.492121  0.849326  0.493991  0.167729
    H   H10  0.608081  0.430868  0.719830  0.160046
    H   H11  0.461379  0.354849  0.255014  0.028776
    H   H12  0.598340  0.534804  0.284589  0.136755
    O   O17  0.630998  0.628284  0.713559  -0.423796
    C   C37  0.725127  0.644746  0.660787  0.774556
    O   O18  0.733899  0.595795  0.580729  -0.556290
    C   C38  0.819686  0.723286  0.701745  -0.474924
    H   H13  0.797057  0.759564  0.774669  0.116775
    H   H14  0.856240  0.794144  0.647447  0.153295
    H   H15  0.876162  0.674657  0.713626  0.151037
    O   O19  0.033668  0.120972  0.169641  -0.449271
    C   C39  0.004184  0.215112  0.149525  0.831481
    O   O20  0.043364  0.273710  0.075312  -0.553761
    C   C40  0.923872  0.248021  0.218683  -0.510305
    H   H16  0.899623  0.187068  0.282950  0.137638
    H   H17  0.855090  0.245001  0.177016  0.160648
    H   H18  0.956676  0.336468  0.247308  0.158937
    O   O21  0.458168  0.569335  0.753152  -0.509479
    C   C41  0.459042  0.557402  0.853955  0.833223
    O   O22  0.532191  0.536052  0.889520  -0.506886
    C   C42  0.369066  0.570175  0.922437  -0.479948
    H   H19  0.310401  0.589198  0.877195  0.127494
    H   H20  0.396748  0.641660  0.976054  0.169240
    H   H21  0.333037  0.489179  0.965058  0.161515
    O   O23  0.355222  0.392402  0.359866  -0.476594
    C   C43  0.282791  0.401693  0.299016  0.776487
    O   O24  0.302200  0.408100  0.207688  -0.517840
    C   C44  0.177299  0.401251  0.344383  -0.488708
    H   H22  0.176411  0.401081  0.427819  0.120531
    H   H23  0.119020  0.322870  0.320023  0.150427
    H   H24  0.158187  0.478862  0.319766  0.152688
