# Generated by REPEAT Assigner based on pymatgen
data_DB0-m3_o22_o25_f0_nbo.sym.137_sqe
_audit_creation_date              2022-05-24
_audit_creation_method            REPEAT_Assigner
_cell_length_a                    21.550852
_cell_length_b                    21.550757
_cell_length_c                    22.088055
_cell_angle_alpha                 60.842096
_cell_angle_beta                  119.178841
_cell_angle_gamma                 89.960293
_cell_volume                      7430.140166
_symmetry_space_group_name_H-M    P1
_symmetry_Int_Tables_number       1
loop_
    _symmetry_equiv_pos_site_id
    _symmetry_equiv_pos_as_xyz
    1  x,y,z
loop_
    _atom_site_type_symbol
    _atom_site_label
    _atom_site_fract_x
    _atom_site_fract_y
    _atom_site_fract_z
    _atom_type_partial_charge
    O   O1   0.593660  0.443764  0.502711  -0.647907
    O   O2   0.589785  0.554193  0.495904  -0.700520
    C   C1   0.620413  0.499323  0.498752  0.344930
    O   O3   0.439135  0.508182  0.376814  -0.698496
    O   O4   0.434644  0.616841  0.373885  -0.686271
    C   C2   0.417515  0.581314  0.336631  0.799686
    Zn  Zn1  0.500284  0.429197  0.501442  1.305606
    Zn  Zn2  0.498845  0.571215  0.498445  1.324770
    O   O5   0.409265  0.446318  0.503835  -0.681428
    O   O6   0.405364  0.556757  0.496955  -0.655382
    O   O7   0.564542  0.383616  0.626019  -0.658645
    O   O8   0.560005  0.492154  0.623093  -0.732824
    C   C3   0.378191  0.501585  0.500120  0.409541
    C   C4   0.581771  0.418988  0.663461  0.807726
    C   C5   0.289062  0.733197  0.973844  -0.182025
    C   C6   0.316226  0.763137  0.028994  -0.195876
    H   H1   0.370555  0.773935  0.054933  0.079906
    H   H2   0.318412  0.721750  0.949063  0.073065
    H   H3   0.227188  0.880209  0.949880  0.082233
    C   C7   0.373293  0.624933  0.247118  -0.029727
    C   C8   0.129330  0.873520  0.754369  0.001818
    C   C9   0.265204  0.677255  0.027213  -0.186264
    C   C10  0.291529  0.708052  0.080663  0.825123
    C   C11  0.188159  0.733991  0.972509  -0.180791
    C   C12  0.212840  0.789081  0.920826  0.829260
    C   C13  0.215307  0.763944  0.027610  -0.199730
    C   C14  0.239178  0.819855  0.974298  -0.196715
    C   C15  0.336326  0.662201  0.171908  -0.511884
    C   C16  0.167413  0.835409  0.829579  -0.534839
    H   H4   0.185956  0.775394  0.052389  0.080466
    H   H5   0.133826  0.723199  0.946571  0.070804
    H   H6   0.277189  0.616900  0.051634  0.070256
    C   C17  0.719372  0.429449  0.507877  -0.256891
    H   H7   0.677551  0.427604  0.454003  0.026840
    H   H8   0.730914  0.378327  0.565675  0.081666
    C   C18  0.790348  0.429802  0.509411  -0.045990
    H   H9   0.837415  0.381216  0.570255  0.007059
    H   H10  0.783171  0.425387  0.458550  0.022342
    H   H11  0.628253  0.561600  0.363148  0.003180
    H   H12  0.731509  0.565137  0.362056  0.050091
    C   C19  0.670243  0.566581  0.414336  -0.065503
    C   C20  0.746635  0.510049  0.565435  -0.034643
    C   C21  0.689096  0.500334  0.497638  0.717760
    H   H13  0.725000  0.566852  0.548013  -0.032293
    C   C22  0.806693  0.501797  0.497264  0.407268
    C   C23  0.740767  0.567969  0.414521  -0.218922
    C   C24  0.818489  0.505420  0.569029  -0.322389
    H   H14  0.863656  0.455302  0.629780  0.085076
    H   H15  0.834553  0.555798  0.563643  0.066524
    H   H16  0.646754  0.619596  0.403333  0.004485
    H   H17  0.752166  0.620938  0.405500  0.069148
    C   C25  0.710787  0.208256  0.027552  -0.287170
    C   C26  0.684112  0.293575  0.972941  -0.118286
    H   H18  0.630303  0.330469  0.948003  0.076603
    H   H19  0.680889  0.171844  0.051009  0.095397
    H   H20  0.773978  0.329956  0.053388  0.097809
    C   C27  0.626250  0.375183  0.753251  0.019956
    C   C28  0.871154  0.126275  0.248237  -0.023061
    C   C29  0.734669  0.207238  0.973915  -0.021435
    C   C30  0.708353  0.291167  0.920229  0.753055
    C   C31  0.812094  0.207358  0.028982  -0.297469
    C   C32  0.787568  0.210035  0.081298  0.860879
    C   C33  0.785236  0.292648  0.974409  -0.113962
    C   C34  0.761650  0.294435  0.028421  -0.243793
    C   C35  0.663370  0.337606  0.828633  -0.528072
    C   C36  0.833061  0.164135  0.172852  -0.513305
    H   H21  0.815189  0.328739  0.950694  0.069762
    H   H22  0.865597  0.170151  0.053668  0.096645
    C   C37  0.252174  0.488546  0.436543  -0.186779
    H   H23  0.276672  0.438051  0.444037  0.035096
    H   H24  0.231537  0.537897  0.373172  0.021506
    C   C38  0.187455  0.478344  0.446536  -0.054309
    H   H25  0.135078  0.515992  0.383938  0.055999
    H   H26  0.185948  0.420358  0.468232  0.006941
    H   H27  0.342444  0.383363  0.591872  -0.005859
    C   C39  0.330675  0.436375  0.586773  -0.204861
    C   C40  0.275547  0.574398  0.483229  -0.304729
    C   C41  0.309684  0.500571  0.501593  0.652751
    H   H28  0.313647  0.581028  0.534512  0.066998
    H   H29  0.265661  0.621729  0.423823  0.057351
    C   C42  0.194051  0.497817  0.506947  0.143466
    C   C43  0.265435  0.442678  0.595715  0.099448
    C   C44  0.201010  0.576149  0.474157  0.090773
    H   H30  0.155498  0.614019  0.406983  0.007052
    H   H31  0.195742  0.599006  0.507423  -0.021708
    H   H32  0.383491  0.433985  0.636192  0.072349
    O   O9   0.050655  0.909165  0.498187  -0.677905
    O   O10  0.947545  0.905175  0.505915  -0.660695
    C   C45  0.999356  0.877972  0.502469  0.424975
    O   O11  0.115723  0.940173  0.624288  -0.700502
    O   O12  0.010404  0.935636  0.628007  -0.681791
    C   C46  0.083119  0.918637  0.664865  0.771497
    Zn  Zn3  0.069595  0.000697  0.499559  1.307383
    Zn  Zn4  0.931090  0.999092  0.503549  1.311322
    O   O13  0.053253  0.094500  0.497439  -0.653731
    O   O14  0.950082  0.090548  0.505063  -0.670930
    O   O15  0.990215  0.064195  0.375084  -0.695119
    O   O16  0.885022  0.059588  0.378800  -0.695735
    C   C47  0.001886  0.121262  0.501743  0.428395
    C   C48  0.917468  0.081258  0.338032  0.807595
    O   O17  0.031448  0.371268  0.571248  -0.631833
    O   O18  0.966761  0.446908  0.428093  -0.582898
    C   C49  0.998696  0.380527  0.498034  0.377909
    O   O19  0.940260  0.461713  0.571630  -0.655356
    O   O20  0.872152  0.540687  0.427865  -0.706977
    C   C50  0.876628  0.501854  0.498606  0.522624
    Zn  Zn5  0.044395  0.451450  0.595497  1.293019
    Zn  Zn6  0.954571  0.550081  0.406982  1.299945
    O   O21  0.032224  0.554672  0.574660  -0.713706
    O   O22  0.967460  0.630353  0.430860  -0.684964
    O   O23  0.126507  0.461094  0.574360  -0.574336
    O   O24  0.058969  0.539528  0.431197  -0.634989
    C   C51  0.000082  0.620927  0.503898  0.563948
    C   C52  0.122930  0.499307  0.504404  0.392094
    C   C53  0.053926  0.793877  0.483011  -0.147966
    H   H33  0.111579  0.786403  0.530267  0.024837
    H   H34  0.036779  0.841736  0.420194  0.029407
    C   C54  0.053696  0.723467  0.483331  -0.098084
    H   H35  0.036250  0.737554  0.420730  0.023038
    H   H36  0.110929  0.682840  0.530129  0.040996
    H   H37  0.080476  0.736969  0.637282  0.022632
    H   H38  0.085062  0.633296  0.637441  0.039835
    C   C55  0.024117  0.742277  0.589771  -0.134513
    C   C56  0.921676  0.816141  0.440331  -0.280346
    C   C57  0.999946  0.808038  0.503809  0.597886
    H   H39  0.882954  0.823363  0.457457  0.073339
    H   H40  0.902079  0.865735  0.377483  0.052334
    C   C58  0.000177  0.689603  0.505115  0.239620
    C   C59  0.026515  0.671110  0.591481  -0.091582
    C   C60  0.922126  0.746895  0.438519  0.036323
    H   H41  0.907740  0.763882  0.375951  0.045540
    H   H42  0.984037  0.750978  0.604744  0.017969
    H   H43  0.991209  0.643066  0.612320  0.008146
    C   C61  0.078136  0.183807  0.565491  -0.157738
    H   H44  0.121157  0.167139  0.557836  0.024453
    H   H45  0.092292  0.140907  0.628878  0.019991
    C   C62  0.078010  0.258499  0.555635  -0.073182
    H   H46  0.102932  0.248179  0.618282  0.057241
    H   H47  0.114155  0.282035  0.533841  0.014532
    H   H48  0.027851  0.249227  0.410077  0.006028
    C   C63  0.979958  0.255528  0.415312  -0.267330
    C   C64  0.945683  0.206418  0.519072  -0.300739
    C   C65  0.001155  0.191136  0.500489  0.618243
    H   H49  0.887809  0.219439  0.467846  0.071087
    H   H50  0.957940  0.156742  0.578480  0.058385
    C   C66  0.998013  0.311997  0.495399  0.154096
    C   C67  0.964387  0.329561  0.406543  0.140264
    C   C68  0.952694  0.271815  0.528293  0.095263
    H   H51  0.982026  0.250044  0.595504  0.011728
    H   H52  0.896484  0.310085  0.495177  -0.020811
    H   H53  0.933041  0.252051  0.365882  0.091010
    C   C69  0.759974  0.455418  0.649091  0.476788
    H   H54  0.743795  0.476076  0.676961  -0.034494
    O   O25  0.790048  0.388631  0.687152  -0.477373
    C   C70  0.720087  0.156348  0.944389  0.414333
    H   H55  0.742327  0.096317  0.989674  -0.025134
    O   O26  0.683441  0.181686  0.869905  -0.421161
    C   C71  0.259274  0.365569  0.636439  0.404926
    H   H56  0.248072  0.335066  0.607105  -0.005074
    O   O27  0.269300  0.335360  0.705052  -0.480308
    C   C72  0.280122  0.469420  0.651943  0.482290
    H   H57  0.239759  0.475293  0.666020  -0.025696
    O   O28  0.337026  0.484924  0.682720  -0.489633
    C   C73  0.863359  0.716365  0.449376  0.375850
    H   H58  0.877768  0.660377  0.501309  0.022027
    O   O29  0.797712  0.754223  0.397662  -0.457052
    C   C74  0.000524  0.376841  0.365715  0.403216
    H   H59  0.060355  0.359016  0.394937  -0.006871
    O   O30  0.961925  0.435411  0.297139  -0.483202
    C   C75  0.881356  0.370743  0.350482  0.466014
    H   H60  0.861170  0.425059  0.336522  -0.019560
    O   O31  0.835281  0.344459  0.319709  -0.486767
