data_DB0-m3_o12_o29_f0_pcu.sym.20_repeat
_audit_creation_date              2024-02-23
_audit_creation_method            'Materials Studio'
_symmetry_space_group_name_H-M    'P1'
_symmetry_Int_Tables_number       1
_symmetry_cell_setting            triclinic
loop_
_symmetry_equiv_pos_as_xyz
  x,y,z
_cell_length_a                    10.0154
_cell_length_b                    11.2454
_cell_length_c                    27.6699
_cell_angle_alpha                 89.9808
_cell_angle_beta                  80.7778
_cell_angle_gamma                 92.4497
loop_
_atom_site_label
_atom_site_type_symbol
_atom_site_fract_x
_atom_site_fract_y
_atom_site_fract_z
_atom_site_U_iso_or_equiv
_atom_site_adp_type
_atom_site_occupancy
O1     O     0.42453   0.69071   0.50464   0.00000  Uiso   1.00
O2     O     0.57273   0.30955   0.49533   0.00000  Uiso   1.00
O3     O     0.65377   0.65976   0.49138   0.00000  Uiso   1.00
O4     O     0.34351   0.34049   0.50869   0.00000  Uiso   1.00
C1     C     0.55134   0.73013   0.49738   0.00000  Uiso   1.00
C2     C     0.44593   0.27012   0.50263   0.00000  Uiso   1.00
O5     O     0.38558   0.51432   0.57859   0.00000  Uiso   1.00
O6     O     0.61179   0.48607   0.42142   0.00000  Uiso   1.00
O7     O     0.61451   0.48358   0.56530   0.00000  Uiso   1.00
O8     O     0.38267   0.51653   0.43472   0.00000  Uiso   1.00
C3     C     0.49988   0.49854   0.59470   0.00000  Uiso   1.00
C4     C     0.49741   0.50188   0.40536   0.00000  Uiso   1.00
Zn1    Zn    0.34762   0.52079   0.50888   0.00000  Uiso   1.00
Zn2    Zn    0.64965   0.47947   0.49114   0.00000  Uiso   1.00
C5     C     0.56706   0.58889   0.81985   0.00000  Uiso   1.00
C6     C     0.44819   0.40365   0.17945   0.00000  Uiso   1.00
O9     O     0.62457   0.67957   0.79114   0.00000  Uiso   1.00
O10    O     0.40685   0.30714   0.20738   0.00000  Uiso   1.00
N1     N     0.50623   0.49708   0.79942   0.00000  Uiso   1.00
N2     N     0.49191   0.50238   0.20073   0.00000  Uiso   1.00
C7     C     0.44479   0.40615   0.82723   0.00000  Uiso   1.00
C8     C     0.53657   0.59993   0.17381   0.00000  Uiso   1.00
C9     C     0.62377   0.49435   0.71527   0.00000  Uiso   1.00
C10    C     0.37382   0.49209   0.28478   0.00000  Uiso   1.00
C11    C     0.62164   0.49420   0.66555   0.00000  Uiso   1.00
C12    C     0.37560   0.49284   0.33452   0.00000  Uiso   1.00
C13    C     0.38033   0.50102   0.68092   0.00000  Uiso   1.00
C14    C     0.61726   0.51348   0.31931   0.00000  Uiso   1.00
C15    C     0.38315   0.50032   0.73057   0.00000  Uiso   1.00
C16    C     0.61469   0.51406   0.26965   0.00000  Uiso   1.00
C17    C     0.50451   0.49724   0.74795   0.00000  Uiso   1.00
C18    C     0.49335   0.50286   0.25219   0.00000  Uiso   1.00
C19    C     0.50408   0.49870   0.89919   0.00000  Uiso   1.00
C20    C     0.49458   0.50028   0.10096   0.00000  Uiso   1.00
C21    C     0.56679   0.59119   0.87011   0.00000  Uiso   1.00
C22    C     0.44875   0.40108   0.12918   0.00000  Uiso   1.00
C23    C     0.62889   0.68439   0.89167   0.00000  Uiso   1.00
C24    C     0.40649   0.30002   0.10661   0.00000  Uiso   1.00
C25    C     0.44325   0.40573   0.87727   0.00000  Uiso   1.00
C26    C     0.53851   0.60006   0.12374   0.00000  Uiso   1.00
C27    C     0.50010   0.49790   0.64788   0.00000  Uiso   1.00
C28    C     0.49723   0.50276   0.35223   0.00000  Uiso   1.00
H1     H     0.28925   0.50340   0.75591   0.00000  Uiso   1.00
H2     H     0.70883   0.52221   0.24433   0.00000  Uiso   1.00
C29    C     0.54828   0.59921   0.02259   0.00000  Uiso   1.00
C30    C     0.44286   0.40271   0.97794   0.00000  Uiso   1.00
C31    C     0.44789   0.40030   0.02825   0.00000  Uiso   1.00
C32    C     0.55816   0.59572   0.97153   0.00000  Uiso   1.00
C33    C     0.49687   0.49993   0.05047   0.00000  Uiso   1.00
C34    C     0.50176   0.49903   0.94968   0.00000  Uiso   1.00
C35    C     0.58741   0.70040   0.04673   0.00000  Uiso   1.00
C36    C     0.37887   0.31135   0.95507   0.00000  Uiso   1.00
C37    C     0.58280   0.70039   0.09652   0.00000  Uiso   1.00
C38    C     0.37948   0.31304   0.90548   0.00000  Uiso   1.00
O11    O     0.57754   0.69805   0.19602   0.00000  Uiso   1.00
O12    O     0.38688   0.31446   0.80592   0.00000  Uiso   1.00
C39    C     0.62474   0.68635   0.94147   0.00000  Uiso   1.00
C40    C     0.40637   0.29975   0.05703   0.00000  Uiso   1.00
H3     H     0.28054   0.48404   0.35925   0.00000  Uiso   1.00
H4     H     0.71666   0.49182   0.64084   0.00000  Uiso   1.00
H5     H     0.27813   0.48406   0.27144   0.00000  Uiso   1.00
H6     H     0.71942   0.49103   0.72851   0.00000  Uiso   1.00
H7     H     0.61467   0.78091   0.11354   0.00000  Uiso   1.00
H8     H     0.32832   0.24020   0.88946   0.00000  Uiso   1.00
H9     H     0.61890   0.78390   0.02868   0.00000  Uiso   1.00
H10    H     0.32247   0.23765   0.97437   0.00000  Uiso   1.00
H11    H     0.67983   0.76012   0.95477   0.00000  Uiso   1.00
H12    H     0.37648   0.21600   0.04245   0.00000  Uiso   1.00
H13    H     0.62051   0.09537   0.49315   0.00000  Uiso   1.00
H14    H     0.37676   0.90488   0.50683   0.00000  Uiso   1.00
C41    C     0.58100   0.85897   0.49570   0.00000  Uiso   1.00
C42    C     0.41628   0.14127   0.50431   0.00000  Uiso   1.00
C43    C     0.48206   0.93592   0.50102   0.00000  Uiso   1.00
C44    C     0.51522   0.06433   0.49897   0.00000  Uiso   1.00
H15    H     0.31153   0.10852   0.51017   0.00000  Uiso   1.00
H16    H     0.68574   0.89172   0.48985   0.00000  Uiso   1.00
H17    H     0.11459   0.42696   0.46920   0.00000  Uiso   1.00
H18    H     0.88266   0.57322   0.53086   0.00000  Uiso   1.00
N3     N     0.84802   0.45115   0.47898   0.00000  Uiso   1.00
N4     N     0.14925   0.54908   0.52106   0.00000  Uiso   1.00
C45    C     0.92556   0.50963   0.50394   0.00000  Uiso   1.00
C46    C     0.07170   0.49057   0.49611   0.00000  Uiso   1.00
H19    H     0.10250   0.60819   0.54593   0.00000  Uiso   1.00
H20    H     0.89478   0.39206   0.45410   0.00000  Uiso   1.00
F1     F     0.25855   0.50374   0.66561   0.00000  Uiso   1.00
F2     F     0.73867   0.52587   0.33488   0.00000  Uiso   1.00
F3     F     0.69587   0.77581   0.86488   0.00000  Uiso   1.00
F4     F     0.36481   0.19859   0.13210   0.00000  Uiso   1.00
