# Generated by REPEAT Assigner based on pymatgen
data_DB0-m3_o1_o1500_f0_fsc.sym.18
_audit_creation_date              2022-05-24
_audit_creation_method            REPEAT_Assigner
_cell_length_a                    9.217581
_cell_length_b                    8.452138
_cell_length_c                    15.064311
_cell_angle_alpha                 90.000000
_cell_angle_beta                  98.846874
_cell_angle_gamma                 90.000000
_cell_volume                      1159.671603
_symmetry_space_group_name_H-M    P1
_symmetry_Int_Tables_number       1
loop_
    _symmetry_equiv_pos_site_id
    _symmetry_equiv_pos_as_xyz
    1  x,y,z
loop_
    _atom_site_type_symbol
    _atom_site_label
    _atom_site_fract_x
    _atom_site_fract_y
    _atom_site_fract_z
    _atom_type_partial_charge
    H   H1    0.926613  0.000000  0.432689  0.216418
    H   H2    0.073388  0.000000  0.567312  0.216294
    C   C1    0.953555  0.141359  0.319885  0.094467
    C   C2    0.046446  0.858641  0.680115  0.094594
    C   C3    0.046446  0.141359  0.680115  0.094595
    C   C4    0.953555  0.858641  0.319885  0.094466
    C   C5    0.972348  0.141868  0.230835  -0.287103
    C   C6    0.027653  0.858132  0.769165  -0.287100
    C   C7    0.027653  0.141868  0.769165  -0.287100
    C   C8    0.972348  0.858132  0.230835  -0.287102
    C   C9    0.976307  0.000000  0.185503  0.354562
    C   C10   0.023693  0.000000  0.814498  0.354292
    C   C11   0.938558  0.000000  0.362622  -0.173185
    C   C12   0.061442  0.000000  0.637378  -0.173215
    C   C13   0.863714  0.000000  0.026899  0.016469
    C   C14   0.136286  0.000000  0.973102  0.016211
    C   C15   0.874759  0.000000  0.936651  -0.278723
    C   C16   0.125242  0.000000  0.063350  -0.278516
    H   H3    0.776630  0.000000  0.887048  0.180654
    H   H4    0.223370  0.000000  0.112952  0.180651
    C   C17   0.011102  0.000000  0.909774  0.158972
    C   C18   0.988898  0.000000  0.090227  0.158682
    N   N1    0.648232  0.500000  0.501234  0.084738
    N   N2    0.351768  0.500000  0.498766  0.084881
    Zn  Zn1   0.161723  0.500000  0.499443  1.006201
    Zn  Zn2   0.838277  0.500000  0.500557  1.006479
    C   C19   0.425021  0.637770  0.499304  0.051778
    C   C20   0.574979  0.362230  0.500696  0.051941
    C   C21   0.574979  0.637770  0.500696  0.051941
    C   C22   0.425021  0.362230  0.499304  0.051777
    O   O1    0.850369  0.339021  0.403543  -0.668168
    O   O2    0.149632  0.660979  0.596458  -0.668016
    O   O3    0.149632  0.339021  0.596458  -0.668016
    O   O4    0.850369  0.660979  0.403543  -0.668167
    O   O5    0.101241  0.333078  0.405838  -0.624142
    O   O6    0.898759  0.666922  0.594162  -0.624245
    O   O7    0.898759  0.333078  0.594162  -0.624245
    O   O8    0.101241  0.666922  0.405838  -0.624142
    C   C23   0.967899  0.284679  0.374507  0.719840
    C   C24   0.032102  0.715321  0.625494  0.719817
    C   C25   0.032102  0.284679  0.625494  0.719818
    C   C26   0.967899  0.715321  0.374507  0.719840
    Br  Br1   0.993229  0.336963  0.170615  -0.000839
    Br  Br2   0.006771  0.663037  0.829385  -0.000831
    Br  Br3   0.006771  0.336963  0.829385  -0.000831
    Br  Br4   0.993229  0.663037  0.170615  -0.000838
    Br  Br5   0.675278  0.000000  0.064197  -0.077792
    Br  Br6   0.324723  0.000000  0.935803  -0.077696
    Br  Br7   0.322328  0.833451  0.499758  -0.030067
    Br  Br8   0.677672  0.166549  0.500242  -0.030115
    Br  Br9   0.677672  0.833451  0.500242  -0.030115
    Br  Br10  0.322328  0.166549  0.499758  -0.030067
