# Generated by REPEAT Assigner based on pymatgen
data_DB0-m29_o90_o500_f0_pts.sym.92
_audit_creation_date              2022-05-24
_audit_creation_method            REPEAT_Assigner
_cell_length_a                    13.121471
_cell_length_b                    16.892450
_cell_length_c                    13.025825
_cell_angle_alpha                 105.813587
_cell_angle_beta                  111.546246
_cell_angle_gamma                 111.039807
_cell_volume                      2217.929114
_symmetry_space_group_name_H-M    P1
_symmetry_Int_Tables_number       1
loop_
    _symmetry_equiv_pos_site_id
    _symmetry_equiv_pos_as_xyz
    1  x,y,z
loop_
    _atom_site_type_symbol
    _atom_site_label
    _atom_site_fract_x
    _atom_site_fract_y
    _atom_site_fract_z
    _atom_type_partial_charge
    C   C1   0.229055  0.931855  0.883432  -0.147872
    C   C2   0.175287  0.944078  0.955331  -0.040270
    C   C3   0.073387  0.958725  0.914916  0.119854
    C   C4   0.023043  0.955952  0.798847  -0.098055
    H   H1   0.939601  0.962110  0.761202  0.114839
    C   C5   0.080806  0.947639  0.729780  -0.170126
    C   C6   0.186447  0.938078  0.773578  0.088457
    C   C7   0.018803  0.974225  0.994283  -0.183975
    C   C8   0.960228  0.024868  0.990492  -0.065342
    H   H2   0.026435  0.942777  0.056881  0.133300
    H   H3   0.952169  0.056437  0.928064  0.120003
    C   C9   0.799410  0.049906  0.025788  -0.074520
    C   C10  0.745198  0.061817  0.097115  -0.076403
    C   C11  0.790771  0.059494  0.209392  -0.017370
    C   C12  0.899891  0.054412  0.256182  -0.195295
    C   C13  0.957780  0.046030  0.187143  0.022649
    H   H4   0.043426  0.042686  0.226162  0.086996
    C   C14  0.904764  0.039523  0.069038  0.038705
    H   H5   0.313983  0.927480  0.921271  0.141404
    H   H6   0.044435  0.951247  0.643136  0.153341
    H   H7   0.658278  0.063443  0.057621  0.128248
    H   H8   0.938224  0.053464  0.344519  0.149659
    O   O1   0.596890  0.033977  0.201212  -0.612691
    C   C15  0.712115  0.049691  0.266593  0.671473
    O   O2   0.540603  0.850952  0.214042  -0.477002
    O   O3   0.747708  0.042777  0.370418  -0.511189
    O   O4   0.474122  0.908584  0.338587  -0.546255
    C   C16  0.515568  0.852562  0.303028  0.561643
    Fe  Fe1  0.476598  0.993322  0.259214  1.452012
    O   O5   0.300816  0.912644  0.106607  -0.650925
    O   O6   0.295352  0.048611  0.172896  -0.469030
    C   C17  0.247736  0.963504  0.084370  0.673707
    O   O7   0.528834  0.120168  0.388406  -0.628100
    O   O8   0.358642  0.031648  0.398579  -0.484970
    C   C18  0.457009  0.114840  0.437782  0.760942
    O   O9   0.450554  0.861507  0.591829  -0.649554
    O   O10  0.608119  0.962361  0.577235  -0.481907
    C   C19  0.520476  0.874976  0.540608  0.722613
    O   O11  0.665129  0.073328  0.870384  -0.664731
    O   O12  0.683339  0.942379  0.809100  -0.507020
    C   C20  0.724921  0.026940  0.895508  0.684269
    O   O13  0.239487  0.969193  0.623795  -0.485059
    O   O14  0.491789  0.068621  0.629858  -0.522823
    C   C21  0.481994  0.140754  0.685160  0.593679
    O   O15  0.368149  0.943352  0.767241  -0.566986
    C   C22  0.263680  0.946103  0.714763  0.523454
    O   O16  0.477336  0.151961  0.786767  -0.491790
    Fe  Fe2  0.492244  0.987209  0.714145  1.478990
    C   C23  0.480730  0.203501  0.528539  -0.254455
    C   C24  0.494174  0.278398  0.498399  0.523712
    C   C25  0.508375  0.361327  0.576839  -0.604466
    C   C26  0.509067  0.368698  0.685113  0.119000
    H   H9   0.520046  0.432435  0.747638  0.071542
    C   C27  0.498846  0.296049  0.716977  -0.198580
    H   H10  0.502912  0.306027  0.804193  0.139718
    C   C28  0.485547  0.213124  0.640691  0.077444
    N   N1   0.479070  0.498103  0.588107  -0.242026
    N   N2   0.482626  0.566016  0.554838  -0.263477
    C   C29  0.525172  0.577484  0.477231  0.794301
    N   N3   0.567772  0.521625  0.437044  -0.314259
    N   N4   0.565055  0.454465  0.471062  -0.165728
    C   C30  0.518118  0.440101  0.544655  0.770932
    C   C31  0.537539  0.645079  0.333594  0.096637
    H   H11  0.546417  0.588109  0.282810  0.051916
    C   C32  0.535759  0.712010  0.292887  -0.152471
    H   H12  0.542392  0.704795  0.210930  0.131403
    C   C33  0.524087  0.786022  0.354577  0.057966
    C   C34  0.515948  0.792625  0.460027  -0.052594
    C   C35  0.511944  0.722663  0.496763  0.047459
    H   H13  0.506490  0.728868  0.579106  0.101243
    C   C36  0.524189  0.649405  0.434954  -0.408106
    C   C37  0.474910  0.264457  0.375151  -0.150622
    C   C38  0.574309  0.284214  0.351721  0.337590
    C   C39  0.706971  0.317250  0.448508  -0.389504
    C   C40  0.552009  0.276117  0.236126  -0.229414
    C   C41  0.433627  0.251296  0.145482  -0.073309
    C   C42  0.336968  0.235737  0.170471  -0.072131
    C   C43  0.358034  0.243141  0.285287  -0.026690
    H   H14  0.716035  0.320964  0.537791  0.089717
    H   H15  0.772726  0.389586  0.466570  0.092742
    H   H16  0.736437  0.267312  0.412770  0.117598
    H   H17  0.628453  0.290681  0.216983  0.131820
    H   H18  0.417308  0.245653  0.055516  0.126739
    H   H19  0.244706  0.217923  0.100189  0.083421
    H   H20  0.282217  0.231720  0.304943  0.033954
