# Generated by REPEAT Assigner based on pymatgen
data_DB0-m29_o93_o47_f0_pts.sym.105
_audit_creation_date              2022-05-24
_audit_creation_method            REPEAT_Assigner
_cell_length_a                    15.280064
_cell_length_b                    9.223440
_cell_length_c                    15.468551
_cell_angle_alpha                 84.954588
_cell_angle_beta                  104.062738
_cell_angle_gamma                 111.844745
_cell_volume                      1962.866913
_symmetry_space_group_name_H-M    P1
_symmetry_Int_Tables_number       1
loop_
    _symmetry_equiv_pos_site_id
    _symmetry_equiv_pos_as_xyz
    1  x,y,z
loop_
    _atom_site_type_symbol
    _atom_site_label
    _atom_site_fract_x
    _atom_site_fract_y
    _atom_site_fract_z
    _atom_type_partial_charge
    C   C1   0.811804  0.914762  0.160117  -0.124967
    H   H1   0.798294  0.871840  0.224744  0.142097
    C   C2   0.896633  0.924985  0.139753  -0.177959
    H   H2   0.949273  0.890612  0.188472  0.133491
    C   C3   0.913218  0.973178  0.056561  0.298165
    C   C4   0.844930  0.016084  0.994267  -0.151894
    H   H3   0.856304  0.054884  0.928611  0.076970
    C   C5   0.759287  0.006510  0.014317  0.014507
    C   C6   0.742992  0.955548  0.098461  -0.010774
    N   N1   0.998506  0.972373  0.036320  -0.189576
    N   N2   0.000026  0.999136  0.956362  0.018905
    C   C7   0.100962  0.044146  0.852106  0.123273
    C   C8   0.187917  0.061706  0.833394  -0.218114
    H   H4   0.201547  0.104050  0.768733  0.153043
    C   C9   0.257730  0.024487  0.895714  0.032206
    C   C10  0.241398  0.972746  0.979704  -0.085930
    C   C11  0.154943  0.960065  0.999175  -0.097923
    H   H5   0.144121  0.922961  0.065179  0.092156
    C   C12  0.085238  0.998258  0.935978  0.163415
    O   O1   0.560290  0.255913  0.794970  -0.674758
    C   C13  0.510161  0.268368  0.714416  0.695225
    O   O2   0.393927  0.196251  0.841360  -0.518341
    O   O3   0.439796  0.144463  0.675116  -0.526666
    O   O4   0.385715  0.947652  0.873235  -0.602851
    C   C14  0.350645  0.057929  0.872740  0.668977
    Fe  Fe1  0.512300  0.039530  0.839750  1.474141
    O   O5   0.602829  0.030979  0.956512  -0.487006
    O   O6   0.696073  0.050132  0.859920  -0.505868
    C   C15  0.684438  0.033905  0.941996  0.576919
    O   O7   0.504030  0.916950  0.735248  -0.581848
    O   O8   0.538193  0.764492  0.851636  -0.544943
    C   C16  0.521355  0.790531  0.765509  0.604687
    O   O9   0.498702  0.069098  0.259542  -0.577013
    O   O10  0.463164  0.220461  0.143068  -0.540100
    C   C17  0.480677  0.194944  0.229235  0.604170
    O   O11  0.399485  0.954674  0.038281  -0.508161
    O   O12  0.304370  0.928708  0.134174  -0.522635
    C   C18  0.316872  0.947795  0.052360  0.641652
    O   O13  0.562253  0.840508  0.319513  -0.534196
    O   O14  0.616524  0.036024  0.121623  -0.610965
    C   C19  0.650495  0.924471  0.121780  0.675870
    O   O15  0.440988  0.729455  0.200119  -0.672529
    C   C20  0.491458  0.716811  0.280471  0.712428
    O   O16  0.606225  0.786370  0.152824  -0.524906
    Fe  Fe2  0.489904  0.945658  0.155122  1.480572
    C   C21  0.483728  0.561359  0.316684  0.004592
    C   C22  0.475870  0.449205  0.258858  -0.137640
    C   C23  0.482321  0.308215  0.290608  0.068384
    C   C24  0.493170  0.276817  0.380492  -0.237631
    C   C25  0.496948  0.385542  0.438483  0.265000
    C   C26  0.492753  0.528437  0.407175  0.024784
    C   C27  0.505885  0.350454  0.528104  -0.245024
    C   C28  0.508944  0.456705  0.587607  0.032967
    C   C29  0.504842  0.599660  0.556295  0.242687
    C   C30  0.495894  0.634733  0.466679  -0.244305
    C   C31  0.517854  0.423767  0.678103  0.014854
    C   C32  0.525790  0.536023  0.735899  -0.149026
    C   C33  0.519570  0.677141  0.704145  0.069237
    C   C34  0.508755  0.708509  0.614270  -0.221861
    H   H6   0.470390  0.476353  0.188815  0.202357
    H   H7   0.497942  0.166279  0.405636  0.187257
    H   H8   0.531237  0.508925  0.805944  0.202010
    H   H9   0.504095  0.819107  0.589114  0.182351
    H   H10  0.489106  0.744863  0.444213  0.156648
    H   H11  0.512754  0.240381  0.550568  0.155832
    C   C35  0.029398  0.088735  0.785380  -0.137893
    C   C36  0.932281  0.992534  0.763361  0.287499
    C   C37  0.895752  0.829307  0.797306  -0.340158
    C   C38  0.867142  0.044465  0.703501  -0.200763
    C   C39  0.897974  0.189125  0.664346  -0.073699
    C   C40  0.994535  0.282547  0.684310  -0.137013
    C   C41  0.059981  0.232283  0.744472  -0.097775
    H   H12  0.955032  0.788153  0.830436  0.082049
    H   H13  0.851600  0.750366  0.739932  0.074229
    H   H14  0.848881  0.821271  0.843522  0.117381
    H   H15  0.791562  0.970101  0.686007  0.126723
    H   H16  0.846526  0.228498  0.617228  0.103560
    H   H17  0.018895  0.395797  0.653331  0.117481
    H   H18  0.135338  0.307814  0.761287  0.111960
