# Generated by REPEAT Assigner based on pymatgen
data_DB0-m3_o440_o158_f0_fsc.sym.22_sqe
_audit_creation_date              2022-05-24
_audit_creation_method            REPEAT_Assigner
_cell_length_a                    13.396709
_cell_length_b                    8.582719
_cell_length_c                    13.482950
_cell_angle_alpha                 90.000000
_cell_angle_beta                  90.981373
_cell_angle_gamma                 90.000000
_cell_volume                      1550.044811
_symmetry_space_group_name_H-M    P1
_symmetry_Int_Tables_number       1
loop_
    _symmetry_equiv_pos_site_id
    _symmetry_equiv_pos_as_xyz
    1  x,y,z
loop_
    _atom_site_type_symbol
    _atom_site_label
    _atom_site_fract_x
    _atom_site_fract_y
    _atom_site_fract_z
    _atom_type_partial_charge
    C   C1   0.017095  0.136537  0.694904  -0.083407
    C   C2   0.985698  0.858216  0.305254  -0.075378
    C   C3   0.982930  0.136539  0.305085  -0.083310
    C   C4   0.014328  0.858213  0.694737  -0.075192
    C   C5   0.007030  0.137395  0.796551  -0.207647
    C   C6   0.997847  0.858406  0.203774  -0.133116
    C   C7   0.992997  0.137395  0.203439  -0.207643
    C   C8   0.002178  0.858406  0.796217  -0.133057
    C   C9   0.003359  0.997797  0.848089  0.286339
    C   C10  0.996668  0.997797  0.151901  0.286513
    C   C11  0.027394  0.997126  0.646201  -0.094023
    C   C12  0.972631  0.997129  0.353788  -0.093973
    C   C13  0.000702  0.997313  0.955127  -0.161231
    C   C14  0.999326  0.997313  0.044863  -0.161523
    H   H1   0.040909  0.996894  0.568047  0.107473
    H   H2   0.959116  0.996899  0.431943  0.107630
    O   O1   0.092577  0.665673  0.594425  -0.751815
    O   O2   0.907352  0.328571  0.405769  -0.778132
    O   O3   0.907449  0.665674  0.405566  -0.752034
    O   O4   0.092673  0.328570  0.594220  -0.778009
    O   O5   0.921473  0.659969  0.611313  -0.686816
    O   O6   0.078300  0.333904  0.388835  -0.693569
    O   O7   0.078553  0.659972  0.388679  -0.686799
    O   O8   0.921726  0.333901  0.611153  -0.693756
    C   C15  0.010006  0.715422  0.635152  0.910908
    C   C16  0.989357  0.278782  0.364959  0.947426
    C   C17  0.990019  0.715425  0.364839  0.911272
    C   C18  0.010669  0.278779  0.635029  0.947832
    Zn  Zn1  0.889091  0.497139  0.507861  1.021131
    Zn  Zn2  0.110935  0.497140  0.492129  1.020458
    C   C19  0.294541  0.516181  0.401855  -0.403158
    C   C20  0.705485  0.516177  0.598136  -0.402739
    N   N1   0.241704  0.497119  0.485710  0.270037
    N   N2   0.758321  0.497119  0.514280  0.269529
    C   C21  0.289279  0.480562  0.574219  -0.310343
    C   C22  0.710747  0.480568  0.425771  -0.310196
    C   C23  0.391932  0.480275  0.580753  0.226740
    C   C24  0.608094  0.480281  0.419237  0.226800
    C   C25  0.446024  0.499279  0.496639  -0.077441
    C   C26  0.554002  0.499279  0.503351  -0.077565
    C   C27  0.398123  0.518040  0.406498  0.202509
    C   C28  0.601903  0.518037  0.593493  0.202596
    C   C29  0.445079  0.449682  0.676691  -0.177649
    C   C30  0.554947  0.449692  0.323298  -0.178045
    C   C31  0.540438  0.544988  0.683410  -0.001326
    C   C32  0.459587  0.544996  0.316581  -0.000929
    H   H3   0.246799  0.467362  0.641016  0.226198
    H   H4   0.753227  0.467371  0.358974  0.226241
    H   H5   0.464643  0.324270  0.680823  0.075743
    H   H6   0.603595  0.479714  0.260385  0.089227
    H   H7   0.535384  0.324280  0.319163  0.075858
    H   H8   0.396431  0.479700  0.739605  0.089162
    H   H9   0.581552  0.510209  0.751863  0.087150
    H   H10  0.479238  0.670306  0.312297  0.046658
    H   H11  0.418473  0.510219  0.248128  0.087056
    H   H12  0.520787  0.670297  0.687697  0.046734
    N   N3   0.005233  0.281505  0.848059  0.802328
    O   O9   0.943935  0.302111  0.920561  -0.346298
    O   O10  0.063860  0.393788  0.820934  -0.414499
    N   N4   0.008238  0.715342  0.152421  0.685279
    O   O11  0.947589  0.682348  0.079182  -0.355447
    O   O12  0.069005  0.609887  0.187079  -0.278247
    N   N5   0.994798  0.281504  0.151929  0.802279
    O   O13  0.056102  0.302110  0.079433  -0.346216
    O   O14  0.936168  0.393787  0.179050  -0.414404
    N   N6   0.991787  0.715342  0.847571  0.685269
    O   O15  0.052442  0.682344  0.920804  -0.355371
    O   O16  0.931020  0.609886  0.812913  -0.278171
    N   N7   0.244286  0.539351  0.309219  0.760304
    O   O17  0.212108  0.418379  0.260271  -0.321999
    O   O18  0.258273  0.669271  0.261832  -0.394137
    N   N8   0.755741  0.539341  0.690772  0.759886
    O   O19  0.787920  0.418366  0.739717  -0.321894
    O   O20  0.741753  0.669257  0.738163  -0.394064
