# Generated by REPEAT Assigner based on pymatgen
data_DB0-m3_o150_o22_f0_fsc.sym.55
_audit_creation_date              2022-05-24
_audit_creation_method            REPEAT_Assigner
_cell_length_a                    9.097080
_cell_length_b                    8.548825
_cell_length_c                    15.053446
_cell_angle_alpha                 90.000000
_cell_angle_beta                  91.004868
_cell_angle_gamma                 90.000000
_cell_volume                      1170.516599
_symmetry_space_group_name_H-M    P1
_symmetry_Int_Tables_number       1
loop_
    _symmetry_equiv_pos_site_id
    _symmetry_equiv_pos_as_xyz
    1  x,y,z
loop_
    _atom_site_type_symbol
    _atom_site_label
    _atom_site_fract_x
    _atom_site_fract_y
    _atom_site_fract_z
    _atom_type_partial_charge
    H   H1   0.054088  0.000714  0.562858  0.130355
    H   H2   0.945913  0.000714  0.437142  0.130362
    C   C1   0.010166  0.140313  0.675321  0.101903
    C   C2   0.989834  0.140313  0.324679  0.101907
    C   C3   0.988875  0.141027  0.765788  -0.334702
    C   C4   0.011126  0.141027  0.234212  -0.334702
    H   H3   0.980806  0.250622  0.801183  0.126464
    H   H4   0.019194  0.250622  0.198817  0.126465
    C   C5   0.985894  0.000529  0.811547  0.242060
    C   C6   0.014107  0.000529  0.188453  0.242053
    C   C7   0.988894  0.860098  0.765721  -0.323993
    C   C8   0.011106  0.860098  0.234279  -0.323991
    H   H5   0.980860  0.750449  0.801069  0.122668
    H   H6   0.019140  0.750449  0.198932  0.122669
    C   C9   0.010194  0.860937  0.675254  0.088459
    C   C10  0.989806  0.860938  0.324747  0.088449
    C   C11  0.029780  0.000658  0.632284  -0.248435
    C   C12  0.970220  0.000658  0.367717  -0.248439
    C   C13  0.864597  0.000461  0.956777  -0.250593
    C   C14  0.135403  0.000464  0.043223  -0.250593
    H   H7   0.760088  0.000472  0.921573  0.138639
    H   H8   0.239913  0.000478  0.078427  0.138638
    C   C15  0.872710  0.000459  0.048694  -0.089854
    C   C16  0.127290  0.000463  0.951306  -0.089860
    C   C17  0.008109  0.000467  0.091509  0.150234
    C   C18  0.991892  0.000467  0.908491  0.150232
    O   O1   0.131291  0.669821  0.588279  -0.727614
    O   O2   0.868709  0.669821  0.411721  -0.727610
    O   O3   0.878560  0.663650  0.596061  -0.733507
    O   O4   0.121441  0.663650  0.403939  -0.733519
    C   C19  0.007225  0.718733  0.621456  0.834314
    C   C20  0.992775  0.718733  0.378545  0.834330
    O   O5   0.868380  0.331579  0.411427  -0.723156
    O   O6   0.131620  0.331579  0.588573  -0.723157
    O   O7   0.122111  0.337033  0.403993  -0.723898
    O   O8   0.877889  0.337033  0.596007  -0.723903
    C   C21  0.992932  0.282552  0.378437  0.819149
    C   C22  0.007069  0.282552  0.621563  0.819161
    Zn  Zn1  0.835613  0.500483  0.502369  1.008396
    Zn  Zn2  0.164388  0.500483  0.497631  1.008399
    C   C23  0.584507  0.590032  0.428498  -0.053955
    C   C24  0.415493  0.590032  0.571502  -0.053942
    H   H9   0.637960  0.554104  0.366070  0.059920
    H   H10  0.362041  0.554104  0.633930  0.059917
    H   H11  0.604005  0.716247  0.441013  0.038784
    H   H12  0.395995  0.716247  0.558987  0.038784
    C   C25  0.420488  0.564163  0.416601  -0.032544
    C   C26  0.579513  0.564162  0.583399  -0.032557
    H   H13  0.373754  0.680611  0.401649  0.039585
    H   H14  0.626247  0.680610  0.598351  0.039582
    H   H15  0.399064  0.484003  0.359916  0.019459
    H   H16  0.600936  0.484002  0.640085  0.019463
    H   H17  0.598361  0.301687  0.422124  0.020779
    H   H18  0.401639  0.301687  0.577876  0.020779
    H   H19  0.363630  0.258382  0.462553  0.028665
    H   H20  0.636371  0.258382  0.537447  0.028662
    C   C27  0.581897  0.341725  0.491248  -0.009037
    C   C28  0.418103  0.341725  0.508752  -0.009042
    N   N1   0.641716  0.498739  0.502880  0.268107
    N   N2   0.358284  0.498739  0.497120  0.268111
    C   C29  0.737438  0.000468  0.103343  0.684925
    F   F1   0.613274  0.000447  0.049655  -0.214002
    F   F2   0.736293  0.132368  0.156375  -0.227102
    F   F3   0.736307  0.868593  0.156396  -0.230474
    C   C30  0.262563  0.000474  0.896657  0.684929
    F   F4   0.386726  0.000454  0.950345  -0.213996
    F   F5   0.263705  0.132375  0.843625  -0.227104
    F   F6   0.263695  0.868600  0.843603  -0.230478
