# Generated by REPEAT Assigner based on pymatgen
data_DB0-m3_o530_o156_f0_fsc.sym.89_sqe
_audit_creation_date              2022-05-24
_audit_creation_method            REPEAT_Assigner
_cell_length_a                    19.035716
_cell_length_b                    8.543621
_cell_length_c                    17.507484
_cell_angle_alpha                 90.000000
_cell_angle_beta                  102.108073
_cell_angle_gamma                 90.000000
_cell_volume                      2783.969021
_symmetry_space_group_name_H-M    P1
_symmetry_Int_Tables_number       1
loop_
    _symmetry_equiv_pos_site_id
    _symmetry_equiv_pos_as_xyz
    1  x,y,z
loop_
    _atom_site_type_symbol
    _atom_site_label
    _atom_site_fract_x
    _atom_site_fract_y
    _atom_site_fract_z
    _atom_type_partial_charge
    C   C1   0.868611  0.913498  0.059891  0.455991
    C   C2   0.131569  0.089419  0.940764  0.410329
    C   C3   0.156443  0.915912  0.046716  0.401646
    C   C4   0.843803  0.087163  0.953987  0.423462
    N   N1   0.821489  0.000303  0.008712  -0.124458
    N   N2   0.178732  0.002821  0.991987  -0.082083
    C   C5   0.915598  0.088875  0.949907  -0.103728
    C   C6   0.084631  0.914069  0.050776  -0.086363
    C   C7   0.059524  0.090276  0.943447  -0.131002
    C   C8   0.940671  0.912593  0.057213  -0.152173
    C   C9   0.964209  0.001084  0.001935  0.112652
    C   C10  0.036003  0.001818  0.998743  0.097999
    C   C11  0.939059  0.177216  0.894021  -0.069388
    C   C12  0.061157  0.825655  0.106634  -0.076771
    C   C13  0.010812  0.177873  0.890789  -0.044688
    C   C14  0.989388  0.824930  0.109842  -0.041024
    O   O1   0.845612  0.831289  0.115295  -0.479844
    O   O2   0.154520  0.171453  0.885286  -0.454194
    O   O3   0.204530  0.834280  0.098767  -0.487498
    O   O4   0.795741  0.168853  0.901934  -0.491948
    H   H1   0.901908  0.246754  0.852410  0.128519
    H   H2   0.098312  0.756112  0.148241  0.128451
    H   H3   0.028015  0.247845  0.846662  0.104048
    H   H4   0.972177  0.754897  0.153943  0.108322
    C   C15  0.289073  0.862158  0.986139  -0.276750
    C   C16  0.711128  0.141133  0.014326  -0.271156
    C   C17  0.712018  0.860520  0.017213  -0.262617
    C   C18  0.288102  0.142760  0.983182  -0.324047
    H   H5   0.262808  0.751703  0.991266  0.138660
    H   H6   0.737472  0.251568  0.009376  0.137808
    H   H7   0.738219  0.750595  0.010580  0.122420
    H   H8   0.261920  0.252654  0.989937  0.135461
    C   C19  0.358833  0.862956  0.975375  0.131220
    C   C20  0.641235  0.140390  0.024672  0.150082
    C   C21  0.642040  0.861012  0.027071  0.065129
    C   C22  0.357961  0.142367  0.972917  0.211827
    C   C23  0.391590  0.002626  0.965487  -0.352177
    C   C24  0.608363  0.000758  0.034304  -0.290089
    C   C25  0.252563  0.002371  0.986915  0.253210
    C   C26  0.747635  0.000862  0.013676  0.254254
    H   H9   0.446408  0.002849  0.958203  0.155103
    H   H10  0.553463  0.000587  0.041308  0.148342
    O   O5   0.429260  0.669943  0.053862  -0.724134
    O   O6   0.570750  0.333281  0.946137  -0.739618
    O   O7   0.571609  0.670044  0.947669  -0.786414
    O   O8   0.428457  0.333264  0.052317  -0.803023
    O   O9   0.422627  0.667520  0.920711  -0.659582
    O   O10  0.577521  0.335977  0.079289  -0.670321
    O   O11  0.578290  0.664062  0.080823  -0.716824
    O   O12  0.421613  0.339550  0.919088  -0.704382
    C   C27  0.402521  0.721083  0.983036  0.803745
    C   C28  0.597566  0.282286  0.016966  0.798327
    C   C29  0.598552  0.718960  0.018832  0.909634
    C   C30  0.401461  0.284448  0.981130  0.851669
    Zn  Zn1  0.496887  0.502864  0.913959  1.031777
    Zn  Zn2  0.503173  0.500457  0.086031  1.049767
    C   C31  0.555935  0.497160  0.790264  -0.243409
    C   C32  0.444179  0.507040  0.209758  -0.239262
    N   N3   0.492546  0.504616  0.812817  0.173121
    N   N4   0.507551  0.498697  0.187192  0.164898
    C   C33  0.430168  0.511218  0.758850  -0.341092
    C   C34  0.569848  0.488834  0.241190  -0.363598
    C   C35  0.623642  0.487102  0.689748  -0.371249
    C   C36  0.376396  0.515329  0.310273  -0.370909
    C   C37  0.558450  0.495608  0.712165  0.253558
    C   C38  0.441597  0.506831  0.287855  0.253109
    C   C39  0.495712  0.502414  0.656582  -0.107266
    C   C40  0.504276  0.498244  0.343443  -0.107279
    C   C41  0.430995  0.510613  0.679733  0.319967
    C   C42  0.568968  0.488819  0.320302  0.330442
    C   C43  0.367792  0.518105  0.623475  -0.434389
    C   C44  0.632136  0.480551  0.376588  -0.433958
    C   C45  0.690917  0.476427  0.588884  -0.246361
    C   C46  0.309056  0.524176  0.411148  -0.242761
    C   C47  0.625843  0.485261  0.611489  0.241355
    C   C48  0.374142  0.515725  0.388534  0.237858
    C   C49  0.562890  0.492441  0.555743  -0.007560
    C   C50  0.437067  0.507763  0.444283  -0.003316
    C   C51  0.692973  0.474589  0.510672  -0.211487
    C   C52  0.306965  0.524912  0.489364  -0.214029
    C   C53  0.629966  0.481984  0.454867  0.283275
    C   C54  0.369960  0.517190  0.545178  0.287272
    C   C55  0.497822  0.501155  0.578301  0.036812
    C   C56  0.502135  0.498919  0.421724  0.031692
    C   C57  0.434947  0.508612  0.522573  -0.059436
    C   C58  0.564992  0.491028  0.477457  -0.056705
    H   H11  0.605352  0.492329  0.833829  0.197732
    H   H12  0.394793  0.513261  0.166209  0.198096
    H   H13  0.672981  0.481646  0.733469  0.172836
    H   H14  0.327088  0.521846  0.266553  0.172029
    H   H15  0.315985  0.524907  0.639195  0.154558
    H   H16  0.683980  0.473975  0.360968  0.146510
    H   H17  0.740487  0.470918  0.632251  0.153910
    H   H18  0.259500  0.530227  0.367782  0.153526
    H   H19  0.744204  0.467565  0.493469  0.142382
    H   H20  0.255726  0.531622  0.506566  0.141821
    C   C59  0.361315  0.520663  0.782972  0.521177
    C   C60  0.318485  0.393552  0.788262  -0.128269
    C   C61  0.256068  0.453785  0.801255  -0.315830
    C   C62  0.264662  0.613416  0.801491  -0.080151
    O   O13  0.328273  0.655164  0.788899  -0.186310
    H   H21  0.331001  0.271610  0.781367  0.095159
    H   H22  0.208763  0.389883  0.807918  0.190091
    H   H23  0.223908  0.696578  0.809175  0.126824
    C   C63  0.638562  0.473912  0.217107  0.547551
    C   C64  0.674943  0.334918  0.218007  -0.115917
    C   C65  0.738997  0.372967  0.200635  -0.315699
    C   C66  0.737746  0.532795  0.191818  -0.099845
    O   O14  0.677032  0.595489  0.202964  -0.166528
    H   H24  0.656840  0.219924  0.230997  0.088049
    H   H25  0.782435  0.294358  0.196104  0.162678
    H   H26  0.781552  0.601000  0.178763  0.170768
