# Generated by REPEAT Assigner based on pymatgen
data_DB0-m3_o82_o21_f0_fsc.sym.19_sqe
_audit_creation_date              2022-05-24
_audit_creation_method            REPEAT_Assigner
_cell_length_a                    12.246865
_cell_length_b                    13.356528
_cell_length_c                    6.579747
_cell_angle_alpha                 90.000000
_cell_angle_beta                  95.105869
_cell_angle_gamma                 90.000000
_cell_volume                      1072.015385
_symmetry_space_group_name_H-M    P1
_symmetry_Int_Tables_number       1
loop_
    _symmetry_equiv_pos_site_id
    _symmetry_equiv_pos_as_xyz
    1  x,y,z
loop_
    _atom_site_type_symbol
    _atom_site_label
    _atom_site_fract_x
    _atom_site_fract_y
    _atom_site_fract_z
    _atom_type_partial_charge
    C   C1   0.987064  0.728666  0.762123  -0.099316
    C   C2   0.973609  0.268961  0.765940  -0.041057
    C   C3   0.984372  0.817263  0.654538  -0.162530
    C   C4   0.929037  0.182209  0.680921  -0.146719
    C   C5   0.004790  0.906979  0.752975  -0.066119
    C   C6   0.938926  0.093656  0.788986  -0.096818
    C   C7   0.017564  0.729608  0.969644  -0.142895
    C   C8   0.013479  0.268689  0.968071  -0.210949
    C   C9   0.036887  0.820123  0.067878  0.165457
    C   C10  0.034105  0.178809  0.067533  0.183615
    C   C11  0.022423  0.909328  0.962588  0.047330
    C   C12  0.005148  0.089860  0.970785  0.068598
    C   C13  0.033772  0.999604  0.066209  -0.139887
    C   C14  0.074167  0.820900  0.271347  -0.199433
    C   C15  0.079142  0.178427  0.267104  -0.198310
    C   C16  0.098867  0.910446  0.368461  -0.229651
    C   C17  0.099004  0.088975  0.367893  -0.220086
    C   C18  0.077072  0.999706  0.267356  0.229545
    H   H1   0.971639  0.815711  0.490104  0.123840
    H   H2   0.886398  0.183522  0.529852  0.121667
    H   H3   0.018554  0.972691  0.662988  0.160629
    H   H4   0.889061  0.030386  0.735775  0.076468
    H   H5   0.089571  0.750991  0.351680  0.194938
    H   H6   0.098613  0.248355  0.344757  0.172666
    H   H7   0.134843  0.910409  0.524468  0.110627
    H   H8   0.133545  0.088772  0.524913  0.112373
    O   O1   0.084599  0.603744  0.604467  -0.688252
    O   O2   0.081049  0.388576  0.601737  -0.695872
    O   O3   0.895826  0.603936  0.549401  -0.695651
    O   O4   0.892357  0.394415  0.545629  -0.701916
    C   C19  0.988078  0.636769  0.643579  0.860388
    C   C20  0.982471  0.357781  0.638436  0.839682
    O   O5   0.915053  0.608218  0.132077  -0.674322
    O   O6   0.912214  0.392433  0.128385  -0.685766
    O   O7   0.103621  0.602564  0.187352  -0.636412
    O   O8   0.100962  0.392325  0.184163  -0.632773
    C   C21  0.012722  0.639081  0.094141  0.748385
    C   C22  0.009485  0.359250  0.090369  0.805154
    Zn  Zn1  0.876218  0.500094  0.326230  1.101575
    Zn  Zn2  0.120049  0.496365  0.405802  1.017724
    N   N1   0.263531  0.494598  0.450520  -0.081586
    C   C23  0.475538  0.494762  0.454181  -0.124076
    C   C24  0.520737  0.501740  0.278047  -0.084241
    C   C25  0.638089  0.501966  0.277168  0.121280
    C   C26  0.358177  0.494547  0.454999  0.152983
    N   N2   0.732734  0.501917  0.281585  -0.092701
    H   H9   0.527062  0.489285  0.596489  0.243903
    C   C27  0.449964  0.509278  0.082580  0.851497
    F   F1   0.515098  0.515717  0.922011  -0.274088
    F   F2   0.385017  0.593775  0.085873  -0.239028
    F   F3   0.384095  0.425345  0.058431  -0.249871
