# Generated by REPEAT Assigner based on pymatgen
data_DB0-m2_o23_o28_f0_pcu.sym.114_sqe
_audit_creation_date              2022-05-24
_audit_creation_method            REPEAT_Assigner
_cell_length_a                    23.353290
_cell_length_b                    14.432069
_cell_length_c                    15.858152
_cell_angle_alpha                 90.000000
_cell_angle_beta                  90.013451
_cell_angle_gamma                 90.000000
_cell_volume                      5344.772429
_symmetry_space_group_name_H-M    P1
_symmetry_Int_Tables_number       1
loop_
    _symmetry_equiv_pos_site_id
    _symmetry_equiv_pos_as_xyz
    1  x,y,z
loop_
    _atom_site_type_symbol
    _atom_site_label
    _atom_site_fract_x
    _atom_site_fract_y
    _atom_site_fract_z
    _atom_type_partial_charge
    O   O1   0.500347  0.398823  0.603440  -0.631647
    O   O2   0.504669  0.558029  0.603622  -0.638514
    C   C1   0.502752  0.478347  0.642837  0.823508
    O   O3   0.585500  0.398955  0.478196  -0.563595
    O   O4   0.585840  0.558116  0.478426  -0.567003
    C   C2   0.612551  0.478392  0.480835  0.618349
    Cu  Cu1  0.502282  0.385910  0.480890  0.901357
    Cu  Cu2  0.502640  0.571311  0.481104  0.982044
    O   O5   0.500256  0.399057  0.358359  -0.604680
    O   O6   0.504622  0.558602  0.358529  -0.623730
    O   O7   0.419083  0.399077  0.478277  -0.547205
    O   O8   0.419413  0.558301  0.478427  -0.581597
    C   C3   0.502641  0.478858  0.319187  0.873285
    C   C4   0.392367  0.478805  0.480808  0.610976
    C   C5   0.121022  0.441360  0.417651  0.472291
    N   N1   0.149797  0.478373  0.482955  -0.194662
    C   C6   0.121682  0.514459  0.549498  0.498940
    C   C7   0.061987  0.513411  0.552152  -0.264353
    C   C8   0.032054  0.477067  0.484583  -0.002011
    C   C9   0.061908  0.440360  0.417514  -0.024925
    C   C10  0.031634  0.548960  0.620314  0.315220
    C   C11  0.972626  0.555687  0.616704  0.329793
    C   C12  0.942595  0.516217  0.549924  -0.311132
    C   C13  0.972680  0.477105  0.483777  0.075028
    C   C14  0.943184  0.438833  0.416341  -0.201989
    C   C15  0.973820  0.399063  0.350246  0.457506
    C   C16  0.032708  0.402320  0.350425  -0.246178
    C   C17  0.883039  0.513494  0.548751  0.530934
    N   N2   0.855093  0.477844  0.482009  -0.133023
    C   C18  0.883668  0.441996  0.415967  0.421699
    O   O9   0.150160  0.407191  0.351527  -0.494974
    O   O10  0.152331  0.551172  0.612921  -0.477260
    O   O11  0.852317  0.543148  0.615085  -0.497659
    O   O12  0.853629  0.411738  0.349168  -0.443966
    H   H1   0.055382  0.373119  0.297371  0.153439
    C   C19  0.764202  0.395332  0.479919  -0.144672
    H   H2   0.787080  0.330213  0.479721  0.119131
    C   C20  0.705162  0.395321  0.479710  -0.083890
    H   H3   0.682876  0.329720  0.478885  0.131022
    C   C21  0.675350  0.478134  0.480745  -0.033986
    C   C22  0.705297  0.560799  0.482190  -0.063192
    H   H4   0.683114  0.626451  0.483140  0.088344
    C   C23  0.764319  0.560586  0.482563  -0.134929
    H   H5   0.787287  0.625617  0.483198  0.114014
    C   C24  0.793999  0.477914  0.481387  0.135863
    C   C25  0.240694  0.396173  0.482099  -0.170227
    H   H6   0.217824  0.331068  0.483540  0.132644
    C   C26  0.299711  0.396148  0.481537  -0.080252
    H   H7   0.321951  0.330507  0.482156  0.108829
    C   C27  0.329558  0.478925  0.480684  -0.007586
    C   C28  0.299629  0.561639  0.480272  -0.094217
    H   H8   0.321847  0.627301  0.479542  0.116746
    C   C29  0.240577  0.561428  0.480860  -0.162660
    H   H9   0.217601  0.626448  0.480027  0.136952
    C   C30  0.210894  0.478724  0.481931  0.205970
    C   C31  0.467178  0.398038  0.933452  -0.136524
    C   C32  0.477829  0.568624  0.933206  -0.153900
    C   C33  0.473971  0.565768  0.028462  -0.115044
    C   C34  0.470677  0.394404  0.028727  -0.140950
    H   H10  0.426826  0.393600  0.055521  0.042122
    H   H11  0.428354  0.565802  0.047866  0.024854
    H   H12  0.421973  0.407688  0.913916  0.027478
    H   H13  0.434450  0.578752  0.906288  0.039825
    H   H14  0.505636  0.627094  0.913684  0.027524
    H   H15  0.483452  0.332101  0.906727  0.030266
    H   H16  0.495419  0.627685  0.055238  0.027836
    H   H17  0.493472  0.330528  0.048324  0.026789
    C   C35  0.502739  0.478902  0.228718  -0.226029
    C   C36  0.502941  0.478297  0.901469  0.667942
    C   C37  0.502884  0.478613  0.060531  0.613500
    C   C38  0.564041  0.475463  0.028696  -0.142328
    C   C39  0.563795  0.468391  0.933433  -0.128215
    C   C40  0.502822  0.478805  0.152748  -0.330750
    C   C41  0.502935  0.478181  0.809261  -0.395395
    C   C42  0.502871  0.478207  0.733296  -0.152054
    H   H18  0.581213  0.400140  0.914081  0.029234
    H   H19  0.590943  0.524055  0.906519  0.033660
    H   H20  0.586411  0.414512  0.055674  0.039348
    H   H21  0.586842  0.539417  0.048070  0.033612
    C   C43  0.509004  0.926558  0.390851  -0.084276
    C   C44  0.517191  0.030560  0.392923  -0.102462
    C   C45  0.552971  0.927877  0.533901  0.305100
    C   C46  0.544814  0.031839  0.544786  0.154532
    H   H22  0.562305  0.047975  0.378005  0.046132
    H   H23  0.545852  0.893345  0.358756  0.054559
    H   H24  0.552106  0.896432  0.597641  -0.022575
    H   H25  0.526365  0.046257  0.607803  -0.013880
    N   N3   0.500942  0.247438  0.479249  -0.111404
    N   N4   0.501639  0.709801  0.479855  -0.168337
    C   C47  0.503244  0.891328  0.480561  0.258703
    C   C48  0.501704  0.065996  0.480061  0.520251
    C   C49  0.443034  0.029843  0.503747  -0.161553
    C   C50  0.447097  0.926153  0.516888  -0.132867
    C   C51  0.501052  0.167290  0.479406  -0.168862
    C   C52  0.502213  0.789960  0.480010  -0.047918
    H   H26  0.410653  0.891715  0.484829  0.087838
    H   H27  0.412237  0.045092  0.452337  0.056931
    H   H28  0.445300  0.910164  0.585244  0.022564
    H   H29  0.427996  0.063404  0.562623  0.055856
    H   H30  0.469465  0.909789  0.355231  0.037392
    H   H31  0.488993  0.063117  0.345090  0.043481
    O   O13  0.059046  0.582017  0.690552  -0.307544
    C   C53  0.060934  0.507862  0.747430  0.144341
    H   H32  0.105212  0.480446  0.750765  0.019121
    H   H33  0.031983  0.451431  0.726648  -0.039300
    C   C54  0.042961  0.541164  0.834150  0.315606
    H   H34  0.071382  0.598653  0.854175  -0.030745
    H   H35  0.998128  0.566226  0.831932  -0.085766
    C   C55  0.047351  0.462459  0.897079  -0.330402
    H   H36  0.019100  0.404645  0.877291  0.073983
    H   H37  0.033781  0.487441  0.960111  0.071475
    H   H38  0.092248  0.437737  0.900639  0.056441
    O   O14  0.944830  0.599226  0.681654  -0.298689
    C   C56  0.942253  0.692943  0.659162  0.167982
    H   H39  0.897901  0.710689  0.640175  0.008844
    H   H40  0.971378  0.707372  0.605555  -0.040709
    C   C57  0.959393  0.752066  0.734045  0.280083
    H   H41  0.930901  0.736246  0.788090  -0.021603
    H   H42  0.004304  0.736679  0.751795  -0.078382
    C   C58  0.954164  0.853810  0.711708  -0.323726
    H   H43  0.982470  0.870022  0.657543  0.071280
    H   H44  0.967146  0.896351  0.766718  0.078111
    H   H45  0.909172  0.870162  0.694985  0.049637
    O   O15  0.605393  0.912387  0.492568  -0.462265
    C   C59  0.633590  0.836607  0.529670  0.339600
    H   H46  0.658816  0.801609  0.479769  0.000363
    H   H47  0.603857  0.784066  0.555506  -0.020084
    C   C60  0.674613  0.869413  0.597636  0.000091
    H   H48  0.700751  0.927519  0.572946  0.026681
    H   H49  0.650256  0.892735  0.653683  0.023420
    C   C61  0.713880  0.790702  0.623344  -0.328630
    H   H50  0.687991  0.730653  0.644560  0.080635
    H   H51  0.741845  0.813991  0.675741  0.091997
    H   H52  0.740970  0.769907  0.569133  0.102613
    O   O16  0.597059  0.078048  0.532647  -0.402572
    C   C62  0.620501  0.098890  0.611934  0.121454
    H   H53  0.667782  0.099153  0.605679  0.038299
    H   H54  0.609891  0.045803  0.659976  -0.014068
    C   C63  0.601645  0.194745  0.640406  0.223051
    H   H55  0.612291  0.245892  0.590671  0.016008
    H   H56  0.554850  0.195959  0.652001  -0.003653
    C   C64  0.632383  0.220986  0.721113  -0.411672
    H   H57  0.622754  0.169317  0.770887  0.084140
    H   H58  0.617526  0.290261  0.742050  0.105678
    H   H59  0.679230  0.223361  0.709887  0.074029
    O   O17  0.946987  0.358551  0.282850  -0.431020
    C   C65  0.944407  0.263876  0.301514  0.286378
    H   H60  0.898959  0.242527  0.307062  0.013235
    H   H61  0.966298  0.249199  0.362111  -0.064610
    C   C66  0.972669  0.209215  0.231277  0.157310
    H   H62  0.950591  0.224165  0.170873  -0.001295
    H   H63  0.018304  0.229533  0.226015  -0.025393
    C   C67  0.968873  0.106406  0.249884  -0.286607
    H   H64  0.990995  0.090946  0.310149  0.059367
    H   H65  0.989722  0.067150  0.198210  0.075639
    H   H66  0.923325  0.085276  0.254475  0.051662
