# Generated by REPEAT Assigner based on pymatgen
data_DB0-m9_o1_o17_f0_sra.sym.45_sqe
_audit_creation_date              2022-05-24
_audit_creation_method            REPEAT_Assigner
_cell_length_a                    6.325885
_cell_length_b                    16.457538
_cell_length_c                    18.792774
_cell_angle_alpha                 109.311204
_cell_angle_beta                  89.314547
_cell_angle_gamma                 90.800521
_cell_volume                      1846.172044
_symmetry_space_group_name_H-M    P1
_symmetry_Int_Tables_number       1
loop_
    _symmetry_equiv_pos_site_id
    _symmetry_equiv_pos_as_xyz
    1  x,y,z
loop_
    _atom_site_type_symbol
    _atom_site_label
    _atom_site_fract_x
    _atom_site_fract_y
    _atom_site_fract_z
    _atom_type_partial_charge
    O  O1   0.507922  0.441302  0.376091  -0.541654
    O  O2   0.876685  0.472594  0.577201  -0.555980
    O  O3   0.090924  0.597549  0.540194  -0.361243
    C  C1   0.703622  0.427656  0.571772  0.620947
    O  O4   0.788472  0.386075  0.423327  -0.412154
    O  O5   0.010262  0.511996  0.386778  -0.537104
    C  C2   0.670868  0.389502  0.366173  0.555604
    O  O6   0.584932  0.410164  0.511829  -0.390878
    O  O7   0.695712  0.560851  0.490934  -0.573572
    V  V1   0.967485  0.485281  0.480549  1.262688
    O  O8   0.295225  0.588789  0.454374  -0.455721
    C  C3   0.176162  0.563389  0.392854  0.622047
    O  O9   0.378906  0.557253  0.590232  -0.583008
    C  C4   0.206396  0.601481  0.598449  0.591117
    V  V2   0.468229  0.505943  0.483886  1.340107
    O  O10  0.191453  0.429921  0.470832  -0.560203
    C  C5   0.328385  0.687849  0.724410  -0.036334
    H  H1   0.457375  0.643532  0.718002  0.091911
    C  C6   0.310398  0.758040  0.789171  -0.156988
    H  H2   0.424327  0.768543  0.833818  0.105196
    C  C7   0.146858  0.814818  0.796862  -0.044181
    C  C8   0.000680  0.801191  0.740125  0.070782
    H  H3   0.871755  0.845532  0.746517  0.063394
    C  C9   0.018371  0.730889  0.675441  -0.182764
    H  H4   0.903863  0.720174  0.630939  0.094110
    C  C10  0.182599  0.674378  0.667570  -0.038373
    C  C11  0.031220  0.600465  0.287245  -0.150951
    C  C12  0.178599  0.616050  0.343824  -0.024586
    C  C13  0.322095  0.682941  0.355338  -0.285047
    C  C14  0.317143  0.734469  0.310491  0.237828
    C  C15  0.168909  0.719075  0.254170  -0.018524
    C  C16  0.026292  0.651927  0.242444  0.134630
    C  C17  0.459544  0.801748  0.322245  -0.181903
    C  C18  0.453808  0.853516  0.277685  -0.197936
    C  C19  0.305459  0.838121  0.221441  0.160078
    C  C20  0.162893  0.770953  0.209698  -0.056463
    C  C21  0.014598  0.755582  0.153398  0.272127
    C  C22  0.872114  0.688334  0.141675  -0.223700
    C  C23  0.877859  0.636564  0.186231  -0.176078
    C  C24  0.300465  0.889610  0.176659  -0.170057
    C  C25  0.153036  0.874043  0.120096  -0.015547
    C  C26  0.009580  0.807136  0.108575  -0.291789
    H  H5   0.918009  0.548332  0.278500  0.107501
    H  H6   0.436907  0.695548  0.399936  0.126003
    H  H7   0.575623  0.813924  0.366397  0.120624
    H  H8   0.565646  0.906177  0.286840  0.117400
    H  H9   0.413598  0.941773  0.185428  0.111668
    H  H10  0.894683  0.794567  0.064007  0.133972
    H  H11  0.755932  0.676191  0.097560  0.134042
    H  H12  0.765933  0.583937  0.177112  0.115056
    C  C27  0.805669  0.176125  0.853400  -0.232384
    C  C28  0.646228  0.115439  0.843483  -0.118156
    C  C29  0.496437  0.106260  0.788522  -0.075828
    C  C30  0.504109  0.158109  0.744025  -0.005767
    C  C31  0.662267  0.219187  0.754250  -0.027920
    C  C32  0.813660  0.227945  0.808668  0.282462
    C  C33  0.351677  0.149740  0.690105  0.169817
    C  C34  0.357494  0.202409  0.646274  -0.325995
    C  C35  0.516576  0.263147  0.656009  0.263691
    C  C36  0.668597  0.271627  0.710170  -0.069916
    C  C37  0.827300  0.332446  0.720149  0.153408
    C  C38  0.979029  0.341171  0.774368  -0.154237
    C  C39  0.971991  0.289067  0.818718  -0.283195
    C  C40  0.524665  0.314850  0.611197  -0.272136
    C  C41  0.684899  0.375112  0.620749  -0.029312
    C  C42  0.835209  0.384117  0.675506  -0.172289
    H  H13  0.922688  0.183786  0.896644  0.112287
    H  H14  0.370665  0.059112  0.781111  0.129740
    H  H15  0.238272  0.195633  0.603909  0.143657
    H  H16  0.407168  0.307392  0.568142  0.133925
    H  H17  0.961270  0.431116  0.682752  0.113801
    H  H18  0.103537  0.388905  0.782121  0.115355
    H  H19  0.090642  0.296118  0.861325  0.145305
    C  C43  0.812216  0.249900  0.287074  -0.176671
    H  H20  0.926797  0.253371  0.330223  0.111418
    C  C44  0.807004  0.179560  0.222014  -0.002319
    H  H21  0.918564  0.128064  0.213961  0.079217
    C  C45  0.660135  0.174843  0.167046  -0.008004
    C  C46  0.518456  0.240565  0.176987  -0.183938
    H  H22  0.403877  0.237085  0.133834  0.116813
    C  C47  0.523666  0.310909  0.242053  0.004490
    H  H23  0.412110  0.362407  0.250114  0.073813
    C  C48  0.670543  0.315623  0.297018  -0.013827
    O  O11  0.746170  0.080149  0.952322  -0.372154
    O  O12  0.542315  0.104266  0.040716  -0.431869
    O  O13  0.320700  0.978367  0.077284  -0.547707
    C  C49  0.659873  0.100930  0.097915  0.569924
    O  O14  0.454641  0.017628  0.886826  -0.581869
    O  O15  0.240398  0.892621  0.923881  -0.356193
    C  C50  0.627532  0.062738  0.892368  0.650109
    O  O16  0.822856  0.049171  0.088076  -0.560282
    O  O17  0.635474  0.929497  0.973222  -0.563934
    V  V3   0.363583  0.004974  0.983469  1.298351
    O  O18  0.952400  0.932827  0.873683  -0.596238
    C  C51  0.124236  0.888239  0.865653  0.571555
    O  O19  0.035771  0.901443  0.009686  -0.450009
    C  C52  0.155200  0.926772  0.071121  0.630132
    V  V4   0.862846  0.984180  0.979995  1.343958
    O  O20  0.139531  0.060257  0.993081  -0.569272
    C  C53  0.181045  0.083919  0.679291  -0.164485
    C  C54  0.272896  0.996614  0.647187  0.191426
    C  C55  0.146244  0.924674  0.635984  -0.252456
    C  C56  0.230494  0.843656  0.604683  -0.005737
    C  C57  0.441304  0.834585  0.584483  -0.195286
    C  C58  0.568025  0.906519  0.595747  0.021865
    C  C59  0.483953  0.987541  0.627272  -0.288866
    H  H24  0.061972  0.092881  0.639766  0.076647
    H  H25  0.104265  0.090976  0.734342  0.061343
    H  H26  0.980933  0.931832  0.651710  0.145871
    H  H27  0.131193  0.787250  0.595718  0.104727
    H  H28  0.507159  0.771076  0.559720  0.142750
    H  H29  0.733002  0.899363  0.579545  0.047253
    H  H30  0.583076  0.043945  0.635766  0.117047
