# Generated by REPEAT Assigner based on pymatgen
data_DB0-m3_o18_o27_f0_pcu.sym.27
_audit_creation_date              2022-05-24
_audit_creation_method            REPEAT_Assigner
_cell_length_a                    14.814749
_cell_length_b                    15.959173
_cell_length_c                    19.333131
_cell_angle_alpha                 89.985240
_cell_angle_beta                  103.497008
_cell_angle_gamma                 86.033281
_cell_volume                      4433.432494
_symmetry_space_group_name_H-M    P1
_symmetry_Int_Tables_number       1
loop_
    _symmetry_equiv_pos_site_id
    _symmetry_equiv_pos_as_xyz
    1  x,y,z
loop_
    _atom_site_type_symbol
    _atom_site_label
    _atom_site_fract_x
    _atom_site_fract_y
    _atom_site_fract_z
    _atom_type_partial_charge
    O   O1   0.379395  0.601972  0.485448  -0.580791
    O   O2   0.618298  0.396303  0.524800  -0.613502
    O   O3   0.530579  0.638848  0.509452  -0.607223
    O   O4   0.466984  0.359474  0.499336  -0.645241
    C   C1   0.440514  0.659007  0.494193  0.667406
    C   C2   0.556988  0.339177  0.513912  0.742382
    O   O5   0.425405  0.480021  0.595665  -0.655020
    O   O6   0.572594  0.517603  0.413772  -0.652314
    O   O7   0.576553  0.517792  0.620569  -0.657667
    O   O8   0.420723  0.481216  0.388732  -0.588988
    C   C3   0.501836  0.498789  0.640733  0.670695
    C   C4   0.495820  0.499537  0.368669  0.663916
    Zn  Zn1  0.398847  0.475015  0.488152  1.041679
    Zn  Zn2  0.598795  0.523317  0.521237  1.028764
    C   C5   0.426916  0.478112  0.740355  -0.030971
    C   C6   0.570393  0.522018  0.269173  0.020899
    H   H1   0.363262  0.464394  0.703103  0.083068
    H   H2   0.633986  0.535691  0.306519  0.050591
    C   C7   0.429722  0.476148  0.812026  0.030952
    C   C8   0.567612  0.524673  0.197519  -0.059675
    H   H3   0.367591  0.462387  0.828786  0.055225
    H   H4   0.629768  0.538630  0.180882  0.099766
    C   C9   0.509296  0.494202  0.861611  -0.473722
    C   C10  0.488048  0.506938  0.147807  -0.487975
    C   C11  0.588006  0.512766  0.838393  0.103612
    C   C12  0.409202  0.488606  0.170936  0.132409
    C   C13  0.584413  0.514776  0.766243  -0.053766
    C   C14  0.413247  0.484363  0.242995  -0.145982
    H   H5   0.646435  0.526848  0.748709  0.096469
    H   H6   0.351478  0.470407  0.260165  0.133766
    C   C15  0.504160  0.497817  0.717014  -0.070358
    C   C16  0.493381  0.501278  0.292383  -0.024669
    N   N1   0.552524  0.552280  0.981139  -0.286122
    N   N2   0.445083  0.448615  0.028423  -0.422741
    N   N3   0.546377  0.555640  0.048206  -0.423074
    N   N4   0.451239  0.445248  0.961346  -0.294615
    C   C17  0.491976  0.504345  0.072561  1.065654
    C   C18  0.505675  0.496522  0.936979  0.850907
    C   C19  0.407857  0.749184  0.486536  -0.159449
    C   C20  0.589086  0.248685  0.519355  -0.202988
    C   C21  0.289715  0.861486  0.457790  -0.302852
    C   C22  0.707540  0.136192  0.538978  -0.288035
    C   C23  0.315204  0.776912  0.458419  -0.003074
    C   C24  0.682109  0.220438  0.527885  0.009401
    C   C25  0.472622  0.808272  0.509074  -0.060905
    C   C26  0.523617  0.189839  0.517220  -0.019572
    C   C27  0.447966  0.894525  0.502502  -0.012870
    C   C28  0.548379  0.103527  0.521336  -0.049132
    C   C29  0.354830  0.919423  0.478946  0.276383
    C   C30  0.641884  0.078480  0.535273  0.300885
    C   C31  0.513283  0.956310  0.517147  0.058079
    C   C32  0.482921  0.041782  0.510526  0.079620
    C   C33  0.387763  0.063353  0.489394  -0.166432
    C   C34  0.608603  0.934697  0.534622  -0.149579
    C   C35  0.325361  0.002896  0.473594  -0.265964
    C   C36  0.671290  0.995058  0.542932  -0.291929
    H   H7   0.252212  0.022003  0.455188  0.129551
    H   H8   0.744730  0.975893  0.554084  0.136348
    H   H9   0.453190  0.213816  0.512925  0.067109
    H   H10  0.542357  0.784346  0.532645  0.065800
    H   H11  0.218040  0.883325  0.435857  0.155754
    H   H12  0.779842  0.114479  0.545728  0.138228
    H   H13  0.357729  0.126736  0.481028  0.146930
    H   H14  0.638830  0.871284  0.539412  0.147539
    N   N5   0.730883  0.554414  0.543496  -0.127810
    N   N6   0.266743  0.444068  0.466070  -0.138194
    C   C37  0.850390  0.628757  0.612531  -0.279488
    C   C38  0.147650  0.368064  0.398671  -0.275721
    C   C39  0.758905  0.610222  0.594551  0.030549
    C   C40  0.239305  0.385893  0.417014  0.073601
    C   C41  0.790790  0.516603  0.508557  -0.063245
    C   C42  0.206194  0.485050  0.498748  0.032806
    C   C43  0.885140  0.532116  0.525887  0.014416
    C   C44  0.112084  0.468718  0.482218  -0.050466
    C   C45  0.913479  0.589220  0.578843  0.295389
    C   C46  0.084147  0.409821  0.430706  0.261215
    C   C47  0.951727  0.491775  0.493131  0.003199
    C   C48  0.045423  0.509583  0.514616  0.057840
    C   C49  0.070250  0.567538  0.568341  -0.092380
    C   C50  0.927042  0.433454  0.439710  -0.100258
    C   C51  0.004952  0.606773  0.599360  -0.286097
    C   C52  0.992609  0.392710  0.409889  -0.224768
    H   H15  0.026661  0.651252  0.641062  0.149590
    H   H16  0.971080  0.347290  0.368945  0.142484
    H   H17  0.234256  0.531460  0.536319  0.094299
    H   H18  0.761839  0.473845  0.468085  0.209360
    H   H19  0.288966  0.354145  0.391150  0.108439
    H   H20  0.709742  0.639946  0.621943  0.134497
    H   H21  0.872692  0.673367  0.654012  0.142539
    H   H22  0.125642  0.321924  0.358451  0.158401
    H   H23  0.140189  0.584387  0.589059  0.127285
    H   H24  0.857177  0.416803  0.418748  0.140574
    C   C53  0.678038  0.522941  0.888319  0.470465
    O   O9   0.706680  0.473082  0.937677  -0.425079
    C   C54  0.737430  0.591369  0.877561  -0.470892
    H   H25  0.699578  0.634781  0.834009  0.082148
    H   H26  0.802029  0.563507  0.864586  0.153986
    H   H27  0.755844  0.627475  0.927269  0.159045
    C   C55  0.318896  0.477446  0.121899  0.532868
    O   O10  0.274430  0.418761  0.131389  -0.521266
    C   C56  0.274688  0.543073  0.066998  -0.351092
    H   H28  0.319867  0.596075  0.069562  0.038766
    H   H29  0.207113  0.567218  0.077267  0.125679
    H   H30  0.262201  0.515281  0.013329  0.130186
    C   C57  0.754298  0.274877  0.518664  0.635804
    O   O11  0.745221  0.312871  0.462496  -0.518934
    C   C58  0.842522  0.278063  0.574398  -0.466194
    H   H31  0.839060  0.240487  0.621844  0.091888
    H   H32  0.852818  0.344184  0.590093  0.139355
    H   H33  0.901783  0.252780  0.552814  0.127379
    C   C59  0.243358  0.721470  0.423670  0.674925
    O   O12  0.256627  0.676174  0.375675  -0.497417
    C   C60  0.150358  0.726277  0.441350  -0.618578
    H   H34  0.151024  0.766219  0.488361  0.109588
    H   H35  0.133267  0.662295  0.453592  0.185811
    H   H36  0.096809  0.752777  0.395111  0.170913
