# Generated by REPEAT Assigner based on pymatgen
data_DB0-m3_o490_o22_f0_fsc.sym.16
_audit_creation_date              2022-05-24
_audit_creation_method            REPEAT_Assigner
_cell_length_a                    10.694881
_cell_length_b                    8.574842
_cell_length_c                    9.142516
_cell_angle_alpha                 90.000000
_cell_angle_beta                  97.596976
_cell_angle_gamma                 90.000000
_cell_volume                      831.072622
_symmetry_space_group_name_H-M    P1
_symmetry_Int_Tables_number       1
loop_
    _symmetry_equiv_pos_site_id
    _symmetry_equiv_pos_as_xyz
    1  x,y,z
loop_
    _atom_site_type_symbol
    _atom_site_label
    _atom_site_fract_x
    _atom_site_fract_y
    _atom_site_fract_z
    _atom_type_partial_charge
    C   C1   0.307007  0.002661  0.940684  -0.179935
    C   C2   0.684436  0.006255  0.058964  -0.105301
    C   C3   0.245470  0.863299  0.952798  -0.072899
    C   C4   0.742710  0.866574  0.037819  -0.091275
    C   C5   0.118634  0.864404  0.968651  0.062290
    C   C6   0.866545  0.866135  0.008706  0.038735
    C   C7   0.050704  0.727675  0.960518  -0.205004
    C   C8   0.924934  0.728711  0.978419  -0.121972
    C   C9   0.248669  0.142378  0.961860  -0.143545
    C   C10  0.745978  0.145482  0.046629  -0.214875
    C   C11  0.124837  0.142709  0.990881  0.046554
    C   C12  0.872779  0.144389  0.030783  0.109320
    C   C13  0.058533  0.004075  0.988771  0.052360
    C   C14  0.932886  0.004726  0.010751  0.021124
    C   C15  0.066407  0.280130  0.021088  -0.178820
    C   C16  0.940647  0.281140  0.038896  -0.162320
    H   H1   0.094049  0.620120  0.933649  0.103399
    H   H2   0.873032  0.621113  0.967196  0.136110
    H   H3   0.118231  0.387777  0.032309  0.126296
    H   H4   0.897277  0.388698  0.065703  0.088477
    H   H5   0.404968  0.001992  0.924587  0.146088
    H   H6   0.586486  0.006995  0.075111  0.109590
    O   O1   0.363520  0.672388  0.102491  -0.540172
    O   O2   0.624326  0.673022  0.895172  -0.598755
    O   O3   0.363494  0.664099  0.850467  -0.671396
    O   O4   0.625247  0.671181  0.147536  -0.647244
    C   C17  0.322149  0.720747  0.968293  0.712791
    C   C18  0.664833  0.725630  0.027449  0.650229
    O   O5   0.628409  0.336804  0.897144  -0.662231
    O   O6   0.366139  0.336790  0.104739  -0.704159
    O   O7   0.627137  0.343434  0.148980  -0.692539
    O   O8   0.366624  0.337080  0.851733  -0.751194
    C   C19  0.669355  0.287936  0.031285  0.866065
    C   C20  0.326354  0.283575  0.972115  0.859656
    Zn  Zn1  0.498282  0.502492  0.836053  0.935055
    Zn  Zn2  0.493315  0.506233  0.163477  0.921893
    C   C21  0.628762  0.485004  0.595847  0.347292
    C   C22  0.426867  0.641948  0.409560  0.534865
    C   C23  0.621244  0.503668  0.429411  0.095375
    C   C24  0.441130  0.642542  0.578378  -0.282402
    H   H7   0.673451  0.608320  0.402806  -0.037206
    H   H8   0.488686  0.748378  0.627254  0.034527
    H   H9   0.674549  0.406032  0.390291  -0.049999
    H   H10  0.343726  0.649776  0.604395  0.022865
    H   H11  0.453462  0.259032  0.626359  0.055993
    H   H12  0.336233  0.345195  0.351852  0.081620
    H   H13  0.487931  0.260463  0.382809  0.057889
    H   H14  0.324826  0.390386  0.588628  0.051506
    C   C25  0.424938  0.372340  0.574051  -0.123260
    C   C26  0.432811  0.363947  0.408315  -0.138818
    N   N1   0.501936  0.500175  0.643050  0.513008
    N   N2   0.490499  0.505035  0.356387  0.255072
    N   N3   0.682543  0.331655  0.637200  -0.674857
    H   H15  0.645790  0.244214  0.564916  0.233475
    H   H16  0.779697  0.333666  0.633954  0.282450
    N   N4   0.291848  0.638478  0.353046  -0.812706
    H   H17  0.243003  0.554414  0.405116  0.279216
    H   H18  0.250543  0.745251  0.373423  0.318224
    N   N5   0.715080  0.603189  0.665639  -0.606726
    H   H19  0.804519  0.585447  0.634615  0.230239
    H   H20  0.687389  0.714302  0.628791  0.236482
    N   N6   0.481126  0.784716  0.356547  -0.633482
    H   H21  0.419679  0.877849  0.364692  0.264828
    H   H22  0.564454  0.814243  0.422951  0.222133
