# Generated by REPEAT Assigner based on pymatgen
data_DB0-m3_o8_o9_f0_pcu.sym.37
_audit_creation_date              2022-05-24
_audit_creation_method            REPEAT_Assigner
_cell_length_a                    10.960105
_cell_length_b                    15.909405
_cell_length_c                    17.108273
_cell_angle_alpha                 89.120240
_cell_angle_beta                  89.993007
_cell_angle_gamma                 92.785344
_cell_volume                      2979.271455
_symmetry_space_group_name_H-M    P1
_symmetry_Int_Tables_number       1
loop_
    _symmetry_equiv_pos_site_id
    _symmetry_equiv_pos_as_xyz
    1  x,y,z
loop_
    _atom_site_type_symbol
    _atom_site_label
    _atom_site_fract_x
    _atom_site_fract_y
    _atom_site_fract_z
    _atom_type_partial_charge
    O   O1   0.500342  0.417995  0.611624  -0.627060
    O   O2   0.492517  0.581452  0.388549  -0.543115
    O   O3   0.508686  0.562591  0.620782  -0.747650
    O   O4   0.484861  0.437396  0.379335  -0.725754
    C   C1   0.508535  0.487044  0.652757  0.894973
    C   C2   0.485779  0.512869  0.347005  0.749709
    O   O5   0.674161  0.429042  0.490137  -0.656829
    O   O6   0.319288  0.570619  0.510179  -0.662026
    O   O7   0.682660  0.573485  0.499168  -0.608792
    O   O8   0.310779  0.426284  0.500774  -0.606960
    C   C3   0.735842  0.501747  0.492561  0.765777
    C   C4   0.257619  0.497951  0.507656  0.675100
    Zn  Zn1  0.491099  0.404608  0.494154  1.029997
    Zn  Zn2  0.502319  0.595114  0.505941  0.995900
    H   H1   0.782759  0.836592  0.316790  0.092483
    H   H2   0.215556  0.162467  0.680615  0.093238
    C   C5   0.789946  0.702700  0.319519  -0.039733
    C   C6   0.208342  0.296357  0.678536  -0.111498
    H   H3   0.739292  0.694619  0.265734  0.085759
    H   H4   0.261659  0.304284  0.731295  0.093703
    C   C7   0.830563  0.633392  0.359264  -0.192772
    C   C8   0.165874  0.365768  0.639857  -0.127073
    H   H5   0.812448  0.571292  0.335880  0.109105
    H   H6   0.185144  0.427786  0.663139  0.098181
    C   C9   0.895856  0.643450  0.427896  0.128977
    C   C10  0.098005  0.355961  0.572181  0.156962
    C   C11  0.922329  0.723443  0.455459  -0.147158
    C   C12  0.070376  0.276032  0.544791  -0.172039
    H   H7   0.974609  0.732114  0.508556  0.091172
    H   H8   0.016318  0.267486  0.492405  0.093710
    C   C13  0.880988  0.792646  0.415882  -0.084395
    C   C14  0.113079  0.206708  0.583494  -0.074640
    H   H9   0.901059  0.855099  0.437958  0.082945
    H   H10  0.092097  0.144325  0.561517  0.085359
    C   C15  0.814655  0.782291  0.347984  -0.129362
    C   C16  0.182303  0.216856  0.650236  -0.129655
    C   C17  0.069346  0.568211  0.476815  -0.178691
    C   C18  0.924182  0.431400  0.523575  -0.053298
    H   H11  0.125850  0.620844  0.454717  0.087565
    H   H12  0.867688  0.378641  0.545379  0.083814
    C   C19  0.123291  0.498263  0.507568  -0.025933
    C   C20  0.870216  0.501397  0.492866  -0.171186
    C   C21  0.049332  0.429354  0.532112  -0.022807
    C   C22  0.944228  0.570285  0.468382  0.089122
    C   C23  0.513158  0.480255  0.738562  -0.303359
    C   C24  0.480573  0.519280  0.260766  -0.247019
    C   C25  0.455538  0.539928  0.781197  -0.000450
    C   C26  0.511545  0.449838  0.218430  -0.007368
    C   C27  0.450691  0.535164  0.861636  -0.165340
    C   C28  0.505962  0.450007  0.137895  -0.194761
    C   C29  0.503392  0.469311  0.900893  0.430192
    C   C30  0.465956  0.519818  0.097992  0.457056
    C   C31  0.560755  0.409627  0.858704  -0.337845
    C   C32  0.431846  0.588095  0.139665  -0.395305
    C   C33  0.569037  0.415195  0.778150  0.216074
    C   C34  0.440832  0.589749  0.220055  0.222237
    N   N1   0.504910  0.462990  0.983502  -0.221341
    N   N2   0.461519  0.524601  0.015387  -0.220723
    H   H13  0.542837  0.394313  0.247856  0.119722
    H   H14  0.411117  0.590573  0.751618  0.116764
    H   H15  0.532883  0.394200  0.108438  0.078598
    H   H16  0.403837  0.583619  0.891442  0.070351
    H   H17  0.605164  0.360237  0.890130  0.134476
    H   H18  0.400972  0.642646  0.108377  0.152819
    N   N3   0.509668  0.720592  0.512941  -0.049895
    N   N4   0.483588  0.279147  0.486943  -0.077940
    C   C35  0.425536  0.764734  0.475042  -0.102884
    C   C36  0.565020  0.234810  0.527101  -0.166475
    C   C37  0.430786  0.851514  0.476321  -0.142074
    C   C38  0.559642  0.148046  0.525773  -0.092058
    C   C39  0.523602  0.893491  0.517318  0.508170
    C   C40  0.469243  0.106234  0.482582  0.475205
    C   C41  0.607629  0.846915  0.556516  -0.403070
    C   C42  0.387642  0.152987  0.441386  -0.389344
    C   C43  0.599686  0.760275  0.553694  0.174988
    C   C44  0.395836  0.239642  0.444159  0.197261
    N   N5   0.535332  0.982376  0.520037  -0.227616
    N   N6   0.457464  0.017349  0.479755  -0.209504
    H   H19  0.634881  0.267293  0.561296  0.229710
    H   H20  0.353665  0.732072  0.442601  0.194527
    H   H21  0.626938  0.115615  0.559366  0.054063
    H   H22  0.361292  0.883850  0.444621  0.058139
    H   H23  0.680606  0.878403  0.588963  0.157764
    H   H24  0.316471  0.121640  0.407297  0.153140
    H   H25  0.666664  0.724215  0.583963  0.097120
    H   H26  0.330788  0.275859  0.412276  0.093683
    C   C45  0.645650  0.355179  0.738858  0.501776
    O   O9   0.708168  0.377362  0.682600  -0.470479
    O   O10  0.656557  0.274875  0.770679  -0.526754
    H   H27  0.715781  0.242756  0.738613  0.386478
    C   C46  0.403836  0.666753  0.257704  0.555777
    O   O11  0.478446  0.710889  0.293121  -0.457044
    O   O12  0.288392  0.696017  0.242897  -0.569067
    H   H28  0.279386  0.751916  0.269214  0.396502
