# Generated by REPEAT Assigner based on pymatgen
data_DB0-m29_o99_o470_f0_pts.sym.79
_audit_creation_date              2022-05-24
_audit_creation_method            REPEAT_Assigner
_cell_length_a                    15.887338
_cell_length_b                    12.314236
_cell_length_c                    13.648793
_cell_angle_alpha                 99.921549
_cell_angle_beta                  97.582789
_cell_angle_gamma                 99.260978
_cell_volume                      2560.777880
_symmetry_space_group_name_H-M    P1
_symmetry_Int_Tables_number       1
loop_
    _symmetry_equiv_pos_site_id
    _symmetry_equiv_pos_as_xyz
    1  x,y,z
loop_
    _atom_site_type_symbol
    _atom_site_label
    _atom_site_fract_x
    _atom_site_fract_y
    _atom_site_fract_z
    _atom_type_partial_charge
    C   C1   0.215131  0.978715  0.852834  -0.174271
    H   H1   0.226281  0.976603  0.776170  0.183297
    C   C2   0.132227  0.971819  0.872493  -0.102782
    H   H2   0.079065  0.962415  0.811556  0.128802
    C   C3   0.117052  0.979918  0.969818  0.121632
    C   C4   0.184838  0.991508  0.048216  0.286187
    C   C5   0.269337  0.994140  0.029021  -0.115857
    C   C6   0.284080  0.992361  0.929711  -0.055226
    C   C7   0.029710  0.974532  0.988396  -0.085709
    C   C8   0.956475  0.971433  0.003798  -0.114082
    C   C9   0.802903  0.972730  0.948506  0.240383
    C   C10  0.718403  0.965731  0.968400  -0.030160
    C   C11  0.703340  0.958704  0.065873  -0.112352
    C   C12  0.771526  0.959806  0.140269  -0.151181
    H   H3   0.760149  0.954787  0.215846  0.186770
    C   C13  0.853816  0.963450  0.119124  -0.146332
    H   H4   0.906176  0.961715  0.177724  0.138137
    C   C14  0.869694  0.969258  0.023633  0.155291
    O   O1   0.522093  0.151906  0.748137  -0.539055
    C   C15  0.452971  0.178267  0.700798  0.570317
    O   O2   0.425931  0.101078  0.940474  -0.492545
    O   O3   0.378993  0.108082  0.686454  -0.560113
    O   O4   0.383274  0.943430  0.819191  -0.507835
    C   C16  0.370009  0.008239  0.900609  0.697956
    Fe  Fe1  0.495910  0.001681  0.782369  1.418346
    O   O5   0.576961  0.004425  0.909016  -0.570949
    O   O6   0.656913  0.945172  0.792720  -0.492574
    C   C17  0.648163  0.971389  0.887635  0.581764
    O   O7   0.505864  0.902954  0.652713  -0.570662
    O   O8   0.423033  0.757186  0.699033  -0.509766
    C   C18  0.470971  0.795623  0.636686  0.563146
    O   O9   0.511008  0.104911  0.357532  -0.596162
    O   O10  0.420374  0.199612  0.277395  -0.496835
    C   C19  0.471427  0.190717  0.358241  0.534994
    O   O11  0.421093  0.013970  0.103998  -0.534361
    O   O12  0.319028  0.964189  0.196434  -0.450956
    C   C20  0.339025  0.992368  0.112807  0.646443
    O   O13  0.588773  0.832331  0.281637  -0.577988
    O   O14  0.613174  0.019326  0.181662  -0.634658
    C   C21  0.618278  0.954049  0.096850  0.842410
    O   O15  0.448981  0.854666  0.263797  -0.628312
    C   C22  0.508579  0.798987  0.292733  0.669920
    O   O16  0.551932  0.876551  0.049447  -0.567489
    Fe  Fe2  0.499173  0.996614  0.226318  1.441938
    C   C23  0.472296  0.261159  0.457000  0.121601
    C   C24  0.467404  0.202812  0.533760  -0.187452
    C   C25  0.465526  0.253971  0.630059  0.010952
    C   C26  0.469039  0.369040  0.652749  0.300501
    C   C27  0.477398  0.431765  0.576577  -0.120406
    C   C28  0.478939  0.378136  0.478225  -0.072068
    C   C29  0.488212  0.548873  0.599317  0.377073
    C   C30  0.481801  0.610196  0.522511  -0.227768
    C   C31  0.488377  0.557035  0.426126  0.198815
    C   C32  0.493088  0.444100  0.406326  0.181573
    C   C33  0.477547  0.725334  0.539689  0.125669
    C   C34  0.481719  0.781855  0.460823  -0.163214
    C   C35  0.492558  0.729897  0.367635  0.137875
    C   C36  0.495881  0.617900  0.349876  -0.231435
    H   H5   0.461226  0.112570  0.518226  0.203569
    H   H6   0.479034  0.870156  0.471873  0.151656
    H   H7   0.504107  0.579560  0.275288  0.138518
    O   O17  0.513965  0.400587  0.317457  -0.265716
    C   C37  0.597521  0.405918  0.305977  0.759419
    O   O18  0.655072  0.449192  0.376786  -0.506949
    C   C38  0.619443  0.358588  0.206636  -0.566610
    H   H8   0.559056  0.323066  0.152114  0.162029
    H   H9   0.657084  0.291444  0.215421  0.185027
    H   H10  0.658477  0.426000  0.178389  0.171266
    O   O19  0.516516  0.603390  0.695089  -0.266644
    C   C39  0.600639  0.615107  0.735134  0.809981
    O   O20  0.651165  0.579403  0.683684  -0.523584
    C   C40  0.632079  0.670907  0.842346  -0.612138
    H   H11  0.578501  0.702210  0.875826  0.165182
    H   H12  0.685844  0.741595  0.845880  0.180260
    H   H13  0.656224  0.610125  0.884944  0.181872
    O   O21  0.168032  0.999564  0.143089  -0.403767
    C   C41  0.147830  0.093864  0.193030  0.897944
    O   O22  0.149314  0.176598  0.154933  -0.551867
    C   C42  0.125774  0.097803  0.296116  -0.562631
    H   H14  0.181035  0.081939  0.346849  0.162932
    H   H15  0.068009  0.032625  0.293123  0.153267
    H   H16  0.111875  0.181758  0.325153  0.160473
    O   O23  0.820250  0.982858  0.856163  -0.361983
    C   C43  0.865692  0.078492  0.839481  0.823097
    O   O24  0.886130  0.161824  0.906551  -0.537112
    C   C44  0.888721  0.083223  0.737838  -0.520718
    H   H17  0.863988  0.000516  0.686913  0.133846
    H   H18  0.960020  0.104105  0.744040  0.157642
    H   H19  0.859304  0.148543  0.706877  0.171688
    O   O25  0.455346  0.418141  0.744247  -0.374049
    C   C45  0.502124  0.410920  0.832253  0.781463
    O   O26  0.571907  0.381520  0.833602  -0.495875
    C   C46  0.471455  0.447607  0.928922  -0.526272
    H   H20  0.408607  0.474654  0.913011  0.140883
    H   H21  0.519569  0.518702  0.976467  0.166907
    H   H22  0.463336  0.376744  0.969302  0.175760
