data_DB0-m3_o6_o12_f0_pcu.sym.9_repeat
_audit_creation_date              2024-02-23
_audit_creation_method            'Materials Studio'
_symmetry_space_group_name_H-M    'P1'
_symmetry_Int_Tables_number       1
_symmetry_cell_setting            triclinic
loop_
_symmetry_equiv_pos_as_xyz
  x,y,z
_cell_length_a                    11.2501
_cell_length_b                    16.1415
_cell_length_c                    14.9929
_cell_angle_alpha                 90.0085
_cell_angle_beta                  102.1918
_cell_angle_gamma                 89.9857
loop_
_atom_site_label
_atom_site_type_symbol
_atom_site_fract_x
_atom_site_fract_y
_atom_site_fract_z
_atom_site_U_iso_or_equiv
_atom_site_adp_type
_atom_site_occupancy
O1     O     0.49576   0.37861   0.57709   0.00000  Uiso   1.00
O2     O     0.49166   0.62474   0.42109   0.00000  Uiso   1.00
O3     O     0.49198   0.37787   0.42240   0.00000  Uiso   1.00
O4     O     0.49545   0.62548   0.57585   0.00000  Uiso   1.00
C1     C     0.49389   0.33977   0.49996   0.00000  Uiso   1.00
C2     C     0.49349   0.66357   0.49825   0.00000  Uiso   1.00
O5     O     0.31435   0.50197   0.54963   0.00000  Uiso   1.00
O6     O     0.67293   0.50138   0.44859   0.00000  Uiso   1.00
O7     O     0.31061   0.50124   0.39497   0.00000  Uiso   1.00
O8     O     0.67668   0.50211   0.60320   0.00000  Uiso   1.00
C3     C     0.25580   0.50159   0.46407   0.00000  Uiso   1.00
C4     C     0.73149   0.50178   0.53413   0.00000  Uiso   1.00
Zn1    Zn    0.49599   0.50215   0.60103   0.00000  Uiso   1.00
Zn2    Zn    0.49130   0.50119   0.39717   0.00000  Uiso   1.00
H1     H     0.88020   0.50133   0.41675   0.00000  Uiso   1.00
H2     H     0.10709   0.50205   0.58145   0.00000  Uiso   1.00
C5     C     0.12252   0.50150   0.44392   0.00000  Uiso   1.00
C6     C     0.86478   0.50188   0.55428   0.00000  Uiso   1.00
C7     C     0.06033   0.50176   0.51043   0.00000  Uiso   1.00
C8     C     0.92696   0.50163   0.48777   0.00000  Uiso   1.00
H3     H     0.91321   0.50219   0.62492   0.00000  Uiso   1.00
H4     H     0.07408   0.50120   0.37328   0.00000  Uiso   1.00
C9     C     0.50515   0.95745   0.57919   0.00000  Uiso   1.00
C10    C     0.49939   0.04590   0.42157   0.00000  Uiso   1.00
H5     H     0.50709   0.92215   0.64076   0.00000  Uiso   1.00
H6     H     0.49680   0.08120   0.35992   0.00000  Uiso   1.00
C11    C     0.50291   0.91607   0.49837   0.00000  Uiso   1.00
C12    C     0.50326   0.08727   0.50261   0.00000  Uiso   1.00
C13    C     0.50101   0.96040   0.41897   0.00000  Uiso   1.00
C14    C     0.50717   0.04295   0.58230   0.00000  Uiso   1.00
C15    C     0.49835   0.82711   0.49794   0.00000  Uiso   1.00
C16    C     0.49881   0.17624   0.50175   0.00000  Uiso   1.00
C17    C     0.49598   0.25088   0.50080   0.00000  Uiso   1.00
C18    C     0.49551   0.75246   0.49804   0.00000  Uiso   1.00
C19    C     0.42136   0.44832   0.93940   0.00000  Uiso   1.00
C20    C     0.57473   0.54868   0.06021   0.00000  Uiso   1.00
H7     H     0.36127   0.40923   0.89134   0.00000  Uiso   1.00
H8     H     0.63455   0.58797   0.10822   0.00000  Uiso   1.00
C21    C     0.50221   0.49935   0.90835   0.00000  Uiso   1.00
C22    C     0.49494   0.49688   0.09145   0.00000  Uiso   1.00
C23    C     0.58040   0.54944   0.96910   0.00000  Uiso   1.00
C24    C     0.41835   0.44564   0.03096   0.00000  Uiso   1.00
C25    C     0.50031   0.50146   0.81225   0.00000  Uiso   1.00
C26    C     0.49087   0.49906   0.18657   0.00000  Uiso   1.00
N1     N     0.48869   0.50058   0.26337   0.00000  Uiso   1.00
N2     N     0.49874   0.50265   0.73485   0.00000  Uiso   1.00
C27    C     0.51115   0.08484   0.66973   0.00000  Uiso   1.00
C28    C     0.60374   0.13974   0.70454   0.00000  Uiso   1.00
C29    C     0.60818   0.17720   0.78785   0.00000  Uiso   1.00
C30    C     0.52085   0.15954   0.83713   0.00000  Uiso   1.00
C31    C     0.42951   0.10392   0.80337   0.00000  Uiso   1.00
C32    C     0.42504   0.06628   0.72015   0.00000  Uiso   1.00
H9     H     0.67409   0.15279   0.66734   0.00000  Uiso   1.00
H10    H     0.68061   0.22015   0.81476   0.00000  Uiso   1.00
H11    H     0.52444   0.18889   0.90245   0.00000  Uiso   1.00
H12    H     0.36134   0.08972   0.84221   0.00000  Uiso   1.00
H13    H     0.35277   0.02295   0.69414   0.00000  Uiso   1.00
C33    C     0.49834   0.91854   0.33171   0.00000  Uiso   1.00
C34    C     0.58914   0.86354   0.32218   0.00000  Uiso   1.00
C35    C     0.58725   0.82615   0.23919   0.00000  Uiso   1.00
C36    C     0.49534   0.84399   0.16517   0.00000  Uiso   1.00
C37    C     0.40572   0.89972   0.17398   0.00000  Uiso   1.00
C38    C     0.40756   0.93728   0.25687   0.00000  Uiso   1.00
H14    H     0.66300   0.85036   0.37930   0.00000  Uiso   1.00
H15    H     0.65830   0.78312   0.23206   0.00000  Uiso   1.00
H16    H     0.49393   0.81471   0.10013   0.00000  Uiso   1.00
H17    H     0.33395   0.91406   0.11582   0.00000  Uiso   1.00
H18    H     0.33661   0.98070   0.26314   0.00000  Uiso   1.00
C39    C     0.33267   0.38949   0.06179   0.00000  Uiso   1.00
C40    C     0.37356   0.33045   0.12804   0.00000  Uiso   1.00
C41    C     0.29253   0.27665   0.15483   0.00000  Uiso   1.00
C42    C     0.17051   0.28106   0.11513   0.00000  Uiso   1.00
C43    C     0.12959   0.33894   0.04812   0.00000  Uiso   1.00
C44    C     0.21050   0.39270   0.02111   0.00000  Uiso   1.00
H19    H     0.46938   0.32529   0.15832   0.00000  Uiso   1.00
H20    H     0.32487   0.23066   0.20670   0.00000  Uiso   1.00
H21    H     0.10706   0.23883   0.13613   0.00000  Uiso   1.00
H22    H     0.03396   0.34216   0.01662   0.00000  Uiso   1.00
H23    H     0.17740   0.43806   0.96870   0.00000  Uiso   1.00
C45    C     0.66778   0.60434   0.93850   0.00000  Uiso   1.00
C46    C     0.75305   0.57282   0.89326   0.00000  Uiso   1.00
C47    C     0.83659   0.62474   0.86677   0.00000  Uiso   1.00
C48    C     0.83607   0.70822   0.88593   0.00000  Uiso   1.00
C49    C     0.75249   0.73971   0.93220   0.00000  Uiso   1.00
C50    C     0.66902   0.68786   0.95890   0.00000  Uiso   1.00
H24    H     0.75590   0.50720   0.87949   0.00000  Uiso   1.00
H25    H     0.90296   0.59986   0.83133   0.00000  Uiso   1.00
H26    H     0.90162   0.74888   0.86518   0.00000  Uiso   1.00
H27    H     0.75241   0.80512   0.94765   0.00000  Uiso   1.00
H28    H     0.60355   0.71323   0.99486   0.00000  Uiso   1.00
