# Generated by REPEAT Assigner based on pymatgen
data_DB0-m29_o83_o86_f0_pts.sym.2
_audit_creation_date              2022-05-24
_audit_creation_method            REPEAT_Assigner
_cell_length_a                    15.818755
_cell_length_b                    14.639179
_cell_length_c                    11.119955
_cell_angle_alpha                 93.940217
_cell_angle_beta                  89.263309
_cell_angle_gamma                 104.379545
_cell_volume                      2488.495500
_symmetry_space_group_name_H-M    P1
_symmetry_Int_Tables_number       1
loop_
    _symmetry_equiv_pos_site_id
    _symmetry_equiv_pos_as_xyz
    1  x,y,z
loop_
    _atom_site_type_symbol
    _atom_site_label
    _atom_site_fract_x
    _atom_site_fract_y
    _atom_site_fract_z
    _atom_type_partial_charge
    C   C1   0.284884  0.996358  0.057814  0.039080
    C   C2   0.268827  0.006362  0.937277  -0.066231
    C   C3   0.184931  0.007967  0.903245  -0.141358
    C   C4   0.216834  0.981733  0.137937  -0.309644
    C   C5   0.134326  0.983901  0.103706  0.255865
    C   C6   0.116727  0.999751  0.986903  0.024575
    C   C7   0.031721  0.005884  0.957861  0.063827
    C   C8   0.010806  0.025034  0.842763  -0.160272
    C   C9   0.927857  0.028687  0.814921  -0.225644
    C   C10  0.070099  0.970994  0.189182  -0.231096
    C   C11  0.987170  0.974715  0.161355  -0.158856
    C   C12  0.966272  0.993912  0.046272  0.067213
    C   C13  0.881263  0.000031  0.017230  0.020206
    C   C14  0.863634  0.015782  0.900404  0.255947
    C   C15  0.781093  0.017823  0.866158  -0.312405
    C   C16  0.813083  0.991875  0.100913  -0.142654
    C   C17  0.729149  0.993325  0.066871  -0.051558
    C   C18  0.713046  0.003157  0.946290  0.037897
    H   H1   0.175089  0.014072  0.809287  0.121874
    H   H2   0.229249  0.973130  0.231287  0.214130
    H   H3   0.056672  0.038144  0.770203  0.157275
    H   H4   0.913613  0.042322  0.724016  0.142689
    H   H5   0.084321  0.957286  0.280065  0.143699
    H   H6   0.941292  0.961559  0.233896  0.159447
    H   H7   0.768643  0.026329  0.772789  0.212812
    H   H8   0.822977  0.985914  0.194893  0.121100
    O   O1   0.585914  0.006599  0.135331  -0.551810
    C   C19  0.660821  0.988544  0.160718  0.598200
    O   O2   0.520630  0.812028  0.231076  -0.479340
    O   O3   0.676117  0.970330  0.271157  -0.483363
    O   O4   0.492293  0.902038  0.391789  -0.537773
    C   C20  0.499468  0.819400  0.345203  0.600477
    Fe  Fe1  0.500076  0.994709  0.268028  1.457869
    O   O5   0.381275  0.950427  0.192248  -0.652452
    O   O6   0.435406  0.079502  0.087093  -0.492096
    C   C21  0.371787  0.005723  0.108155  0.737237
    O   O7   0.536224  0.123780  0.353196  -0.646414
    O   O8   0.390023  0.092893  0.389319  -0.562536
    C   C22  0.468297  0.150034  0.399602  0.766800
    O   O9   0.461922  0.875070  0.650928  -0.652912
    O   O10  0.608052  0.906795  0.614064  -0.559589
    C   C23  0.529951  0.849248  0.604149  0.763383
    O   O11  0.616508  0.048950  0.811940  -0.643475
    O   O12  0.562644  0.919651  0.916783  -0.492084
    C   C24  0.626120  0.993614  0.895916  0.729644
    O   O13  0.322144  0.030150  0.733268  -0.487710
    O   O14  0.505428  0.096792  0.611930  -0.545114
    C   C25  0.499143  0.179717  0.658622  0.616185
    O   O15  0.411764  0.992240  0.868569  -0.553824
    C   C26  0.337171  0.011154  0.843461  0.610278
    O   O16  0.478590  0.187387  0.772958  -0.491448
    Fe  Fe2  0.497739  0.004314  0.735912  1.459477
    C   C27  0.480181  0.244139  0.460891  -0.006237
    C   C28  0.504871  0.260541  0.581843  -0.125647
    C   C29  0.528221  0.353929  0.631287  0.084858
    C   C30  0.568928  0.376544  0.742883  -0.097224
    C   C31  0.586385  0.466975  0.794792  -0.049220
    C   C32  0.435607  0.300060  0.278904  -0.024336
    C   C33  0.466578  0.317372  0.396619  -0.013816
    C   C34  0.482174  0.408199  0.450365  0.019310
    C   C35  0.418487  0.371646  0.217642  -0.204303
    C   C36  0.433934  0.461533  0.271279  0.191129
    C   C37  0.514544  0.426825  0.566487  0.043682
    C   C38  0.532564  0.518656  0.618229  -0.101053
    C   C39  0.566114  0.538051  0.734034  0.208875
    C   C40  0.580589  0.628630  0.787062  -0.181083
    C   C41  0.467140  0.480846  0.386734  0.027679
    C   C42  0.484973  0.572594  0.438081  -0.058239
    C   C43  0.517194  0.591249  0.554292  0.127347
    C   C44  0.532275  0.682059  0.607563  -0.079554
    C   C45  0.562872  0.699581  0.725204  -0.010223
    C   C46  0.414225  0.531611  0.209609  -0.196527
    C   C47  0.431102  0.622355  0.260364  -0.155476
    C   C48  0.471166  0.645273  0.372625  0.166413
    C   C49  0.494026  0.738648  0.421995  -0.152333
    C   C50  0.518419  0.755117  0.543053  0.029339
    H   H9   0.591387  0.325710  0.791236  0.122026
    H   H10  0.421785  0.231016  0.232134  0.085930
    H   H11  0.392652  0.356619  0.126927  0.141531
    H   H12  0.605665  0.646667  0.877614  0.120912
    H   H13  0.576033  0.768633  0.771859  0.089667
    H   H14  0.384513  0.515655  0.121167  0.141242
    H   H15  0.408980  0.672857  0.210948  0.142923
    Cl  Cl1  0.636279  0.487929  0.937577  -0.033119
