# Generated by REPEAT Assigner based on pymatgen
data_DB0-m3_o23_o25_f0_pcu.sym.58_sqe
_audit_creation_date              2022-05-24
_audit_creation_method            REPEAT_Assigner
_cell_length_a                    16.002477
_cell_length_b                    15.956161
_cell_length_c                    14.810943
_cell_angle_alpha                 90.044595
_cell_angle_beta                  90.078963
_cell_angle_gamma                 90.005334
_cell_volume                      3781.793353
_symmetry_space_group_name_H-M    P1
_symmetry_Int_Tables_number       1
loop_
    _symmetry_equiv_pos_site_id
    _symmetry_equiv_pos_as_xyz
    1  x,y,z
loop_
    _atom_site_type_symbol
    _atom_site_label
    _atom_site_fract_x
    _atom_site_fract_y
    _atom_site_fract_z
    _atom_type_partial_charge
    O   O1   0.499193  0.379918  0.584653  -0.643174
    O   O2   0.499332  0.380288  0.428594  -0.597672
    C   C1   0.499086  0.341259  0.506469  0.717067
    O   O3   0.375386  0.504922  0.585393  -0.700728
    O   O4   0.374964  0.505688  0.429295  -0.691444
    C   C2   0.336408  0.505427  0.507408  0.866655
    Zn  Zn1  0.500117  0.504871  0.609006  1.108351
    Zn  Zn2  0.499223  0.505031  0.403286  1.057964
    O   O5   0.499962  0.629647  0.583728  -0.690103
    O   O6   0.500103  0.629988  0.427608  -0.689840
    O   O7   0.624377  0.504177  0.582976  -0.713642
    O   O8   0.623949  0.504943  0.426917  -0.688227
    C   C3   0.500134  0.668704  0.505789  0.881782
    C   C4   0.662948  0.504443  0.504872  0.891709
    C   C5   0.971897  0.439558  0.554712  -0.090645
    C   C6   0.026427  0.433243  0.471617  -0.420668
    H   H1   0.947454  0.386156  0.594602  0.075486
    H   H2   0.948405  0.488181  0.351505  0.072729
    C   C7   0.246774  0.505071  0.507428  -0.098512
    C   C8   0.752605  0.503973  0.504755  -0.146138
    C   C9   0.026538  0.510895  0.589671  -0.222339
    C   C10  0.080088  0.503399  0.506171  0.825700
    C   C11  0.972194  0.574280  0.540091  -0.140129
    C   C12  0.919278  0.503083  0.505036  0.691293
    C   C13  0.027047  0.566741  0.456575  -0.197475
    C   C14  0.972416  0.495525  0.421326  -0.108208
    C   C15  0.171498  0.504448  0.507039  -0.491829
    C   C16  0.827891  0.503553  0.504804  -0.408834
    H   H3   0.051734  0.619728  0.416221  0.076012
    H   H4   0.947244  0.633401  0.568762  0.066951
    H   H5   0.050785  0.517646  0.659467  0.081238
    C   C17  0.542531  0.051793  0.588382  -0.418067
    C   C18  0.542522  0.051664  0.417137  -0.753960
    C   C19  0.556971  0.957640  0.431613  -0.083320
    H   H6   0.589180  0.927559  0.614328  0.065329
    H   H7   0.610287  0.062570  0.583653  0.098870
    H   H8   0.622155  0.946266  0.453671  0.060608
    H   H9   0.548257  0.920033  0.369609  0.016403
    C   C20  0.499937  0.758616  0.506037  -0.198584
    C   C21  0.498398  0.084284  0.503049  1.069484
    C   C22  0.529175  0.958019  0.596251  -0.192177
    C   C23  0.499026  0.925759  0.505673  0.665328
    C   C24  0.410462  0.956849  0.490550  -0.123783
    C   C25  0.408584  0.051310  0.502480  -0.148644
    C   C26  0.499597  0.834118  0.506019  -0.344832
    C   C27  0.498327  0.175982  0.504802  -0.647396
    C   C28  0.498582  0.251453  0.505899  0.041466
    H   H10  0.376335  0.066362  0.566265  0.033602
    H   H11  0.370015  0.080417  0.448832  0.042351
    H   H12  0.367922  0.927588  0.540453  0.043078
    H   H13  0.482327  0.942744  0.648730  0.037864
    H   H14  0.389074  0.939436  0.421874  0.008941
    C   C29  0.471330  0.415611  0.056632  -0.886745
    C   C30  0.588344  0.519376  0.056776  -0.096266
    C   C31  0.588988  0.507842  0.955088  -0.180343
    H   H15  0.480122  0.368966  0.915778  0.001373
    H   H16  0.605593  0.585043  0.072720  0.024059
    H   H17  0.635777  0.478440  0.088870  0.060060
    H   H18  0.622994  0.449704  0.937025  0.051374
    H   H19  0.621160  0.561908  0.923488  0.070741
    N   N1   0.499470  0.503780  0.743961  -0.058733
    C   C32  0.500560  0.502053  0.091451  0.930041
    C   C33  0.457523  0.423562  0.954674  0.058748
    C   C34  0.499608  0.502826  0.920790  0.537325
    C   C35  0.451275  0.577886  0.954895  -0.112974
    C   C36  0.445858  0.573431  0.056730  -0.197394
    C   C37  0.499498  0.503238  0.822062  -0.176314
    C   C38  0.500228  0.504444  0.190252  -0.377572
    N   N2   0.499926  0.505972  0.268337  0.043337
    H   H20  0.380068  0.567002  0.077965  0.085206
    H   H21  0.468788  0.633500  0.085154  0.059431
    H   H22  0.387440  0.578121  0.925671  0.058446
    H   H23  0.389842  0.428462  0.939894  0.045776
    H   H24  0.483876  0.636305  0.934864  0.039605
    C   C39  0.056210  0.352445  0.432463  0.797429
    O   O9   0.005432  0.300902  0.406188  -0.549929
    O   O10  0.138681  0.336301  0.426332  -0.292857
    C   C40  0.167049  0.262286  0.390613  -0.046412
    H   H25  0.236333  0.261678  0.392411  0.092485
    H   H26  0.145837  0.256302  0.319556  0.050371
    H   H27  0.143150  0.208923  0.431011  0.067020
    C   C41  0.624584  0.095250  0.399213  0.931474
    O   O11  0.683661  0.088534  0.450762  -0.554666
    O   O12  0.634341  0.138724  0.321920  -0.321510
    C   C42  0.708306  0.178126  0.302483  -0.011846
    H   H28  0.702703  0.210404  0.236490  0.060584
    H   H29  0.759438  0.131325  0.298558  0.043702
    H   H30  0.722537  0.225189  0.355495  0.082744
    C   C43  0.516441  0.097641  0.672255  0.891881
    O   O13  0.448651  0.085091  0.707274  -0.580866
    O   O14  0.570170  0.152363  0.710317  -0.444355
    C   C44  0.548358  0.197162  0.785752  0.127178
    H   H31  0.600795  0.238951  0.805062  0.077174
    H   H32  0.535040  0.153721  0.842383  0.017448
    H   H33  0.492457  0.236003  0.771139  0.030252
    C   C45  0.536661  0.349940  0.078597  0.737227
    O   O15  0.556846  0.337691  0.156995  -0.449088
    O   O16  0.573638  0.304608  0.012976  -0.282628
    C   C46  0.633313  0.245917  0.033417  -0.086255
    H   H34  0.655539  0.216066  0.970251  0.082768
    H   H35  0.606228  0.197062  0.077899  0.104144
    H   H36  0.686972  0.276582  0.067555  0.092670
    C   C47  0.391367  0.387733  0.101001  0.960598
    O   O17  0.327073  0.428013  0.092697  -0.560093
    O   O18  0.389769  0.314853  0.146977  -0.323756
    C   C48  0.317772  0.287145  0.187236  -0.026412
    H   H37  0.330161  0.226671  0.221574  0.082135
    H   H38  0.268539  0.277650  0.135426  0.049928
    H   H39  0.296502  0.333654  0.237954  0.095843
    C   C49  0.488591  0.068081  0.334856  0.622137
    O   O19  0.466512  0.139487  0.317348  -0.423779
    O   O20  0.464561  0.005135  0.279849  -0.210493
    C   C50  0.415103  0.020356  0.205986  -0.102569
    H   H40  0.402718  0.960497  0.170313  0.096062
    H   H41  0.447479  0.063918  0.159312  0.070985
    H   H42  0.354807  0.047930  0.227930  0.078202
