# Generated by REPEAT Assigner based on pymatgen
data_DB0-m2_o6_o14_f0_pcu.sym.103_sqe
_audit_creation_date              2022-05-24
_audit_creation_method            REPEAT_Assigner
_cell_length_a                    16.040888
_cell_length_b                    14.618973
_cell_length_c                    10.846520
_cell_angle_alpha                 90.000000
_cell_angle_beta                  89.989868
_cell_angle_gamma                 90.000000
_cell_volume                      2543.522899
_symmetry_space_group_name_H-M    P1
_symmetry_Int_Tables_number       1
loop_
    _symmetry_equiv_pos_site_id
    _symmetry_equiv_pos_as_xyz
    1  x,y,z
loop_
    _atom_site_type_symbol
    _atom_site_label
    _atom_site_fract_x
    _atom_site_fract_y
    _atom_site_fract_z
    _atom_type_partial_charge
    O   O1   0.359256  0.587271  0.504512  -0.565416
    O   O2   0.601552  0.586846  0.504297  -0.583784
    O   O3   0.359389  0.430071  0.495585  -0.577923
    O   O4   0.601685  0.429355  0.495536  -0.565247
    C   C1   0.320462  0.508640  0.500028  0.809043
    C   C2   0.640438  0.508129  0.499952  0.781114
    O   O5   0.477677  0.586706  0.320978  -0.581658
    O   O6   0.477791  0.587216  0.679218  -0.577288
    O   O7   0.483624  0.429452  0.320562  -0.579003
    O   O8   0.483720  0.429963  0.679166  -0.577377
    C   C3   0.482944  0.508284  0.263022  0.724201
    C   C4   0.483123  0.508718  0.736941  0.701690
    Cu  Cu1  0.480415  0.599896  0.500066  0.914071
    Cu  Cu2  0.480507  0.416882  0.499894  0.899408
    H   H1   0.395039  0.405228  0.112073  0.139217
    H   H2   0.395131  0.405411  0.887486  0.112086
    C   C5   0.604107  0.615781  0.126815  -0.271673
    C   C6   0.604168  0.616049  0.873652  -0.305969
    H   H3   0.610158  0.614660  0.225671  0.161845
    H   H4   0.610249  0.615151  0.774803  0.189166
    C   C7   0.660580  0.668643  0.063505  -0.096625
    C   C8   0.660611  0.668776  0.937201  -0.012224
    H   H5   0.706311  0.708400  0.113368  0.103136
    H   H6   0.706375  0.708629  0.887525  0.084278
    C   C9   0.544848  0.564106  0.935945  0.211083
    C   C10  0.544808  0.563984  0.064277  0.204646
    C   C11  0.488541  0.508494  0.127925  -0.174327
    C   C12  0.488643  0.508708  0.872051  -0.171356
    C   C13  0.437521  0.449769  0.063259  -0.119250
    C   C14  0.437575  0.449872  0.936483  -0.075646
    H   H7   0.057045  0.654170  0.500035  0.151524
    H   H8   0.903699  0.654071  0.500006  0.146640
    C   C15  0.937422  0.590050  0.500003  -0.173422
    C   C16  0.023390  0.590105  0.500020  -0.186464
    C   C17  0.894480  0.508330  0.499982  0.255311
    C   C18  0.066420  0.508441  0.500016  0.263733
    C   C19  0.937511  0.426666  0.499979  -0.178069
    C   C20  0.023479  0.426721  0.499996  -0.181191
    H   H9   0.903856  0.362601  0.499963  0.152485
    H   H10  0.057202  0.362700  0.499992  0.147887
    C   C21  0.805019  0.508270  0.499966  -0.086195
    C   C22  0.155882  0.508501  0.500027  -0.075509
    C   C23  0.231003  0.508558  0.500031  -0.247430
    C   C24  0.729897  0.508212  0.499957  -0.232368
    C   C25  0.540306  0.961235  0.565159  -0.015800
    C   C26  0.420291  0.961199  0.434771  -0.071869
    C   C27  0.480318  0.914040  0.499953  0.174196
    C   C28  0.420256  0.055551  0.434798  -0.104920
    C   C29  0.540265  0.055582  0.565197  -0.133165
    C   C30  0.480240  0.102741  0.500021  0.247393
    C   C31  0.480356  0.815855  0.499945  0.075709
    C   C32  0.480244  0.200924  0.500013  0.032537
    N   N1   0.480282  0.280074  0.499999  -0.090819
    N   N2   0.480387  0.736704  0.499959  -0.121098
    C   C33  0.602696  0.104690  0.633048  0.401601
    N   N3   0.653024  0.144279  0.687748  -0.370358
    C   C34  0.357807  0.104626  0.366940  0.376839
    N   N4   0.307464  0.144189  0.312235  -0.359875
    C   C35  0.602789  0.912170  0.632954  0.313340
    N   N5   0.653166  0.872620  0.687605  -0.328450
    C   C36  0.357872  0.912090  0.366897  0.381512
    N   N6   0.307553  0.872502  0.312179  -0.363925
