data_DB0-m3_o11_o29_f0_pcu.sym.56_repeat
_audit_creation_date              2024-02-23
_audit_creation_method            'Materials Studio'
_symmetry_space_group_name_H-M    'P1'
_symmetry_Int_Tables_number       1
_symmetry_cell_setting            triclinic
loop_
_symmetry_equiv_pos_as_xyz
  x,y,z
_cell_length_a                    27.6349
_cell_length_b                    11.1175
_cell_length_c                    9.9039
_cell_angle_alpha                 89.9974
_cell_angle_beta                  89.9930
_cell_angle_gamma                 89.9936
loop_
_atom_site_label
_atom_site_type_symbol
_atom_site_fract_x
_atom_site_fract_y
_atom_site_fract_z
_atom_site_U_iso_or_equiv
_atom_site_adp_type
_atom_site_occupancy
O1     O     0.49094   0.31939   0.62880   0.00000  Uiso   1.00
O2     O     0.49013   0.32209   0.39610   0.00000  Uiso   1.00
C1     C     0.48886   0.26482   0.51199   0.00000  Uiso   1.00
O3     O     0.42405   0.51058   0.63997   0.00000  Uiso   1.00
O4     O     0.42244   0.51256   0.40756   0.00000  Uiso   1.00
C2     C     0.40058   0.51485   0.52495   0.00000  Uiso   1.00
Zn1    Zn    0.49633   0.49708   0.67076   0.00000  Uiso   1.00
Zn2    Zn    0.49390   0.50193   0.36373   0.00000  Uiso   1.00
O5     O     0.50133   0.67658   0.63848   0.00000  Uiso   1.00
O6     O     0.49911   0.67993   0.40533   0.00000  Uiso   1.00
O7     O     0.56781   0.48543   0.62736   0.00000  Uiso   1.00
O8     O     0.56627   0.49047   0.39415   0.00000  Uiso   1.00
C3     C     0.50166   0.73443   0.52283   0.00000  Uiso   1.00
C4     C     0.58964   0.48429   0.50956   0.00000  Uiso   1.00
C5     C     0.17267   0.41879   0.47341   0.00000  Uiso   1.00
O9     O     0.19872   0.32721   0.42274   0.00000  Uiso   1.00
N1     N     0.19557   0.51352   0.52917   0.00000  Uiso   1.00
C6     C     0.17001   0.60462   0.58347   0.00000  Uiso   1.00
C7     C     0.27207   0.51658   0.40797   0.00000  Uiso   1.00
C8     C     0.32192   0.51753   0.40685   0.00000  Uiso   1.00
C9     C     0.32256   0.52172   0.64796   0.00000  Uiso   1.00
C10    C     0.27261   0.52137   0.64874   0.00000  Uiso   1.00
C11    C     0.24719   0.51779   0.52876   0.00000  Uiso   1.00
C12    C     0.09579   0.50662   0.52473   0.00000  Uiso   1.00
C13    C     0.12265   0.41439   0.47027   0.00000  Uiso   1.00
C14    C     0.09944   0.31726   0.41423   0.00000  Uiso   1.00
C15    C     0.11991   0.60212   0.58208   0.00000  Uiso   1.00
C16    C     0.34751   0.51918   0.52687   0.00000  Uiso   1.00
H1     H     0.34164   0.52281   0.74317   0.00000  Uiso   1.00
H2     H     0.25351   0.52133   0.74400   0.00000  Uiso   1.00
H3     H     0.11949   0.24218   0.37339   0.00000  Uiso   1.00
C17    C     0.64271   0.48022   0.50769   0.00000  Uiso   1.00
C18    C     0.97131   0.40808   0.45008   0.00000  Uiso   1.00
C19    C     0.96840   0.58949   0.58341   0.00000  Uiso   1.00
C20    C     0.94491   0.49721   0.51515   0.00000  Uiso   1.00
C21    C     0.94620   0.32165   0.37593   0.00000  Uiso   1.00
C22    C     0.89656   0.32049   0.37232   0.00000  Uiso   1.00
C23    C     0.87048   0.40566   0.44151   0.00000  Uiso   1.00
C24    C     0.89455   0.49396   0.51204   0.00000  Uiso   1.00
C25    C     0.86762   0.57890   0.57958   0.00000  Uiso   1.00
C26    C     0.81760   0.57447   0.57621   0.00000  Uiso   1.00
N2     N     0.79473   0.48684   0.50718   0.00000  Uiso   1.00
C27    C     0.82039   0.40300   0.43990   0.00000  Uiso   1.00
C28    C     0.71804   0.47299   0.62693   0.00000  Uiso   1.00
C29    C     0.66819   0.47206   0.62756   0.00000  Uiso   1.00
C30    C     0.66779   0.48785   0.38709   0.00000  Uiso   1.00
C31    C     0.71773   0.48896   0.38678   0.00000  Uiso   1.00
C32    C     0.74307   0.48236   0.50679   0.00000  Uiso   1.00
O10    O     0.79712   0.31458   0.37400   0.00000  Uiso   1.00
C33    C     0.02191   0.40790   0.45941   0.00000  Uiso   1.00
C34    C     0.04542   0.50344   0.52167   0.00000  Uiso   1.00
C35    C     0.01904   0.59588   0.58077   0.00000  Uiso   1.00
C36    C     0.04986   0.31361   0.40906   0.00000  Uiso   1.00
H4     H     0.64964   0.46551   0.72331   0.00000  Uiso   1.00
H5     H     0.73743   0.46618   0.72144   0.00000  Uiso   1.00
H6     H     0.87878   0.25151   0.31366   0.00000  Uiso   1.00
H7     H     0.96348   0.25408   0.31525   0.00000  Uiso   1.00
H8     H     0.03491   0.23254   0.36738   0.00000  Uiso   1.00
O11    O     0.19341   0.69957   0.63624   0.00000  Uiso   1.00
C37    C     0.09389   0.69590   0.63565   0.00000  Uiso   1.00
H9     H     0.34038   0.51565   0.31070   0.00000  Uiso   1.00
H10    H     0.25255   0.51506   0.31340   0.00000  Uiso   1.00
H11    H     0.11174   0.77333   0.67884   0.00000  Uiso   1.00
C38    C     0.94036   0.67278   0.65385   0.00000  Uiso   1.00
C39    C     0.89077   0.66751   0.65139   0.00000  Uiso   1.00
O12    O     0.79155   0.65948   0.63969   0.00000  Uiso   1.00
C40    C     0.04424   0.69328   0.63488   0.00000  Uiso   1.00
H12    H     0.95521   0.74263   0.71623   0.00000  Uiso   1.00
H13    H     0.64882   0.49487   0.29202   0.00000  Uiso   1.00
H14    H     0.87067   0.73410   0.70767   0.00000  Uiso   1.00
H15    H     0.73688   0.49756   0.29207   0.00000  Uiso   1.00
H16    H     0.02705   0.77219   0.67499   0.00000  Uiso   1.00
C41    C     0.49692   0.93203   0.41636   0.00000  Uiso   1.00
C42    C     0.50805   0.86570   0.52582   0.00000  Uiso   1.00
H17    H     0.48573   0.88694   0.32457   0.00000  Uiso   1.00
C43    C     0.49910   0.06490   0.41126   0.00000  Uiso   1.00
C44    C     0.48494   0.13352   0.51464   0.00000  Uiso   1.00
H18    H     0.51011   0.10705   0.31750   0.00000  Uiso   1.00
H19    H     0.47104   0.09324   0.60616   0.00000  Uiso   1.00
C45    C     0.52078   0.57291   0.94356   0.00000  Uiso   1.00
N3     N     0.49896   0.49285   0.87254   0.00000  Uiso   1.00
H20    H     0.53887   0.64700   0.89349   0.00000  Uiso   1.00
H21    H     0.48773   0.41663   0.92202   0.00000  Uiso   1.00
C46    C     0.52422   0.56297   0.09227   0.00000  Uiso   1.00
N4     N     0.49195   0.50751   0.16194   0.00000  Uiso   1.00
H22    H     0.55376   0.60780   0.14373   0.00000  Uiso   1.00
H23    H     0.46138   0.47995   0.11177   0.00000  Uiso   1.00
C47    C     0.52972   0.91859   0.64834   0.00000  Uiso   1.00
O13    O     0.51130   0.89796   0.75784   0.00000  Uiso   1.00
C48    C     0.57377   0.99307   0.64199   0.00000  Uiso   1.00
C49    C     0.58577   0.06577   0.75032   0.00000  Uiso   1.00
C50    C     0.62717   0.13491   0.74675   0.00000  Uiso   1.00
C51    C     0.65708   0.13125   0.63559   0.00000  Uiso   1.00
C52    C     0.64567   0.05805   0.52804   0.00000  Uiso   1.00
C53    C     0.60426   0.98889   0.53102   0.00000  Uiso   1.00
H24    H     0.56272   0.07027   0.83834   0.00000  Uiso   1.00
H25    H     0.63620   0.19201   0.83142   0.00000  Uiso   1.00
H26    H     0.68961   0.18519   0.63309   0.00000  Uiso   1.00
H27    H     0.66940   0.05423   0.44136   0.00000  Uiso   1.00
H28    H     0.59690   0.93021   0.44661   0.00000  Uiso   1.00
