# Generated by REPEAT Assigner based on pymatgen
data_DB0-m29_o83_o53_f0_pts.sym.20
_audit_creation_date              2022-05-24
_audit_creation_method            REPEAT_Assigner
_cell_length_a                    15.697759
_cell_length_b                    9.414484
_cell_length_c                    24.163147
_cell_angle_alpha                 84.460071
_cell_angle_beta                  84.066440
_cell_angle_gamma                 107.905975
_cell_volume                      3348.598806
_symmetry_space_group_name_H-M    P1
_symmetry_Int_Tables_number       1
loop_
    _symmetry_equiv_pos_site_id
    _symmetry_equiv_pos_as_xyz
    1  x,y,z
loop_
    _atom_site_type_symbol
    _atom_site_label
    _atom_site_fract_x
    _atom_site_fract_y
    _atom_site_fract_z
    _atom_type_partial_charge
    C   C1   0.276018  0.969652  0.032368  0.006746
    C   C2   0.271144  0.993821  0.975429  0.030677
    C   C3   0.191143  0.001911  0.958064  -0.139753
    C   C4   0.199373  0.942942  0.070242  -0.222458
    C   C5   0.120500  0.953869  0.052673  0.222065
    C   C6   0.115630  0.989129  0.996530  -0.002025
    C   C7   0.035763  0.009627  0.980608  0.097310
    C   C8   0.028947  0.052490  0.924872  -0.178519
    C   C9   0.950180  0.067665  0.909750  -0.199411
    C   C10  0.047044  0.931759  0.092292  -0.197560
    C   C11  0.968275  0.946924  0.077170  -0.184796
    C   C12  0.961453  0.989765  0.021434  0.104315
    C   C13  0.881583  0.010250  0.005510  -0.005688
    C   C14  0.876718  0.045533  0.949368  0.221955
    C   C15  0.797847  0.056465  0.931797  -0.222054
    C   C16  0.806060  0.997428  0.043974  -0.138069
    C   C17  0.726057  0.005508  0.026609  0.032775
    C   C18  0.721194  0.029724  0.969668  0.007510
    H   H1   0.190119  0.016375  0.913669  0.129634
    H   H2   0.202854  0.923511  0.114648  0.149856
    H   H3   0.083208  0.076549  0.890917  0.164712
    H   H4   0.946730  0.098000  0.865932  0.150199
    H   H5   0.050499  0.901446  0.136111  0.148550
    H   H6   0.914021  0.922888  0.111129  0.166223
    H   H7   0.794373  0.075921  0.887392  0.150343
    H   H8   0.807075  0.982919  0.088369  0.128035
    O   O1   0.579935  0.031829  0.057421  -0.423223
    C   C19  0.649050  0.990316  0.069791  0.493035
    O   O2   0.484373  0.704588  0.116632  -0.419917
    O   O3   0.651585  0.942600  0.122233  -0.499352
    O   O4   0.479962  0.839048  0.189111  -0.448117
    C   C20  0.481545  0.712976  0.170658  0.495704
    Fe  Fe1  0.487735  0.990691  0.124409  1.372187
    O   O5   0.366691  0.904851  0.099189  -0.573989
    O   O6   0.430844  0.111698  0.034337  -0.457721
    C   C21  0.362057  0.990852  0.054159  0.610553
    O   O7   0.520154  0.192555  0.151806  -0.570398
    O   O8   0.431794  0.058915  0.232384  -0.504625
    C   C22  0.480115  0.188120  0.202778  0.550689
    O   O9   0.477148  0.806595  0.850220  -0.568293
    O   O10  0.565237  0.940233  0.769552  -0.498059
    C   C23  0.517078  0.811027  0.799218  0.549044
    O   O11  0.630528  0.094584  0.902849  -0.573458
    O   O12  0.566395  0.887623  0.967652  -0.457152
    C   C24  0.635162  0.008529  0.947866  0.609675
    O   O13  0.345658  0.056872  0.879819  -0.499727
    O   O14  0.517265  0.160175  0.812836  -0.447216
    C   C25  0.515696  0.286256  0.831280  0.495619
    O   O15  0.417216  0.967313  0.944607  -0.423822
    C   C26  0.348146  0.008987  0.932250  0.497459
    O   O16  0.512973  0.294705  0.885299  -0.418677
    Fe  Fe2  0.509462  0.008626  0.877577  1.370052
    C   C27  0.554480  0.446686  0.384360  0.426903
    N   N1   0.487236  0.478577  0.360580  -0.152930
    C   C28  0.424040  0.519026  0.391445  0.445744
    C   C29  0.427259  0.527984  0.448069  -0.047475
    C   C30  0.495248  0.495208  0.472889  0.035846
    C   C31  0.559330  0.454269  0.440870  -0.071782
    C   C32  0.362669  0.568629  0.480082  -0.213094
    C   C33  0.366230  0.576834  0.536473  0.395864
    C   C34  0.434998  0.544276  0.561523  -0.253275
    C   C35  0.499212  0.503372  0.529384  0.108362
    C   C36  0.567548  0.470572  0.553957  -0.065109
    C   C37  0.632114  0.429917  0.521791  -0.071245
    C   C38  0.628028  0.421783  0.465469  -0.061479
    C   C39  0.440518  0.551447  0.618213  0.473540
    N   N2   0.508264  0.519903  0.641534  -0.145048
    C   C40  0.571268  0.479650  0.610469  0.427819
    O   O17  0.618307  0.410884  0.352574  -0.463280
    O   O18  0.356448  0.546969  0.367290  -0.464553
    H   H9   0.308513  0.594823  0.461667  0.174238
    O   O19  0.377196  0.586339  0.650807  -0.440170
    O   O20  0.639172  0.452019  0.634354  -0.467601
    H   H10  0.686458  0.403817  0.540006  0.138360
    H   H11  0.679260  0.389505  0.441307  0.128547
    C   C41  0.513777  0.407053  0.735780  -0.217427
    H   H12  0.511920  0.303413  0.719449  0.188372
    C   C42  0.514226  0.415391  0.792604  0.111945
    C   C43  0.511953  0.546328  0.813257  -0.220013
    C   C44  0.513648  0.670402  0.777216  0.156979
    C   C45  0.515529  0.662883  0.720458  -0.243646
    H   H13  0.517353  0.760423  0.692210  0.173114
    C   C46  0.513105  0.530151  0.699759  0.209327
    C   C47  0.482695  0.591799  0.266222  -0.230467
    H   H14  0.484260  0.695302  0.282572  0.188556
    C   C48  0.482824  0.583729  0.209353  0.113568
    C   C49  0.485368  0.452911  0.188701  -0.224377
    C   C50  0.483463  0.328738  0.224774  0.166802
    C   C51  0.481118  0.336066  0.281567  -0.270305
    H   H15  0.479093  0.238448  0.309841  0.182441
    C   C52  0.483114  0.468605  0.302283  0.246445
    H   H16  0.512068  0.554370  0.857544  0.158513
    H   H17  0.485616  0.445039  0.144384  0.159192
    F   F1   0.301516  0.617768  0.566121  -0.168046
