# Generated by REPEAT Assigner based on pymatgen
data_DB0-m9_o1_o22_f0_sra.sym.26
_audit_creation_date              2022-05-24
_audit_creation_method            REPEAT_Assigner
_cell_length_a                    6.324754
_cell_length_b                    13.126127
_cell_length_c                    15.621769
_cell_angle_alpha                 90.244808
_cell_angle_beta                  89.974618
_cell_angle_gamma                 90.006357
_cell_volume                      1296.899874
_symmetry_space_group_name_H-M    P1
_symmetry_Int_Tables_number       1
loop_
    _symmetry_equiv_pos_site_id
    _symmetry_equiv_pos_as_xyz
    1  x,y,z
loop_
    _atom_site_type_symbol
    _atom_site_label
    _atom_site_fract_x
    _atom_site_fract_y
    _atom_site_fract_z
    _atom_type_partial_charge
    O   O1   0.552182  0.387006  0.452092  -0.360699
    O   O2   0.753437  0.378221  0.552411  -0.417627
    O   O3   0.968945  0.542414  0.618951  -0.650237
    C   C1   0.634071  0.395938  0.620868  0.520448
    O   O4   0.844145  0.448313  0.385658  -0.561932
    O   O5   0.052618  0.611750  0.452461  -0.421647
    C   C2   0.671456  0.394561  0.383983  0.529964
    O   O6   0.469384  0.457559  0.618853  -0.509983
    O   O7   0.656770  0.578093  0.504279  -0.545333
    V   V1   0.930973  0.487190  0.502698  1.375049
    O   O8   0.343788  0.549842  0.385855  -0.566947
    C   C3   0.170567  0.602793  0.384178  0.565694
    O   O9   0.253700  0.621277  0.552982  -0.403941
    C   C4   0.133889  0.604054  0.621531  0.561418
    V   V2   0.430956  0.511949  0.502765  1.315209
    O   O10  0.156545  0.421047  0.504280  -0.577662
    C   C5   0.969680  0.652926  0.758049  -0.193723
    H   H1   0.815590  0.638320  0.726430  0.101157
    H   H2   0.022128  0.583246  0.791867  0.027532
    C   C6   0.945672  0.739578  0.821772  -0.051660
    H   H3   0.945541  0.708675  0.887736  0.035257
    H   H4   0.795147  0.780395  0.809745  -0.073871
    H   H5   0.912616  0.785157  0.633911  0.173750
    H   H6   0.970699  0.917080  0.725618  -0.040038
    C   C7   0.079546  0.785250  0.655612  -0.402013
    C   C8   0.348720  0.686547  0.733673  -0.144427
    C   C9   0.133629  0.681523  0.691530  0.344673
    H   H7   0.400559  0.608951  0.752043  0.059903
    C   C10  0.128567  0.812662  0.810822  0.164561
    C   C11  0.108831  0.865054  0.724998  0.201633
    C   C12  0.333878  0.753167  0.812931  0.176474
    H   H8   0.336521  0.704672  0.870879  -0.021171
    H   H9   0.469799  0.806520  0.814542  0.027134
    H   H10  0.184771  0.802730  0.600804  0.070259
    H   H11  0.254852  0.909273  0.712318  -0.055572
    C   C13  0.968332  0.816820  0.252575  -0.027197
    H   H12  0.840464  0.871461  0.253369  0.091662
    C   C14  0.985367  0.746064  0.317042  -0.157458
    H   H13  0.871786  0.745399  0.368772  0.107788
    C   C15  0.148037  0.676336  0.315471  -0.001853
    C   C16  0.293702  0.677302  0.249767  -0.028255
    H   H14  0.421589  0.622666  0.248980  0.092586
    C   C17  0.276663  0.748057  0.185298  -0.168957
    H   H15  0.390258  0.748723  0.133574  0.114198
    C   C18  0.113998  0.817792  0.186873  -0.002724
    C   C19  0.779208  0.241710  0.686512  -0.129201
    H   H16  0.894628  0.237330  0.635570  0.105042
    C   C20  0.775681  0.168653  0.749491  -0.074959
    H   H17  0.889637  0.107276  0.748514  0.101730
    C   C21  0.627264  0.174116  0.813988  0.044267
    C   C22  0.482705  0.252591  0.815910  -0.153296
    H   H18  0.367280  0.256976  0.866856  0.108285
    C   C23  0.486228  0.325647  0.752928  -0.074868
    H   H19  0.372268  0.387020  0.753911  0.104713
    C   C24  0.634655  0.320181  0.688429  0.004817
    C   C25  0.794132  0.316739  0.249432  -0.017708
    H   H20  0.922517  0.371094  0.248147  0.088904
    C   C26  0.776179  0.244660  0.185266  -0.185589
    H   H21  0.889813  0.242933  0.133565  0.122474
    C   C27  0.613003  0.174993  0.187011  -0.003022
    C   C28  0.467780  0.177680  0.252943  -0.008862
    H   H22  0.339409  0.123322  0.254234  0.087464
    C   C29  0.485736  0.249757  0.317108  -0.185412
    H   H23  0.372129  0.251486  0.368818  0.116830
    C   C30  0.648902  0.319421  0.315362  0.010760
    O   O11  0.792600  0.036766  0.883574  -0.471495
    O   O12  0.417822  0.046029  0.116733  -0.564775
    O   O13  0.209593  0.882492  0.049941  -0.373049
    C   C31  0.590462  0.099833  0.118399  0.544598
    O   O14  0.508616  0.116068  0.949996  -0.396851
    O   O15  0.293422  0.951748  0.883460  -0.581516
    C   C32  0.627878  0.098348  0.881539  0.464977
    O   O16  0.709821  0.107356  0.050310  -0.384209
    O   O17  0.605426  0.916214  0.998200  -0.618421
    V   V3   0.331157  0.007065  0.999693  1.376525
    O   O18  0.008574  0.872905  0.949386  -0.441296
    C   C33  0.128484  0.890104  0.880859  0.434343
    O   O19  0.918445  0.944410  0.116525  -0.565073
    C   C34  0.091526  0.891371  0.118188  0.552855
    V   V4   0.831242  0.982204  0.999597  1.404349
    O   O20  0.105546  0.073168  0.998035  -0.603691
    Br  Br1  0.550084  0.744645  0.654581  -0.111060
