# Generated by REPEAT Assigner based on pymatgen
data_DB0-m29_o91_o430_f0_pts.sym.88
_audit_creation_date              2022-05-24
_audit_creation_method            REPEAT_Assigner
_cell_length_a                    16.276647
_cell_length_b                    19.341193
_cell_length_c                    13.186003
_cell_angle_alpha                 112.435383
_cell_angle_beta                  91.684029
_cell_angle_gamma                 70.042451
_cell_volume                      3582.075711
_symmetry_space_group_name_H-M    P1
_symmetry_Int_Tables_number       1
loop_
    _symmetry_equiv_pos_site_id
    _symmetry_equiv_pos_as_xyz
    1  x,y,z
loop_
    _atom_site_type_symbol
    _atom_site_label
    _atom_site_fract_x
    _atom_site_fract_y
    _atom_site_fract_z
    _atom_type_partial_charge
    H   H1   0.453156  0.942354  0.978489  0.147118
    C   C1   0.334089  0.973901  0.073576  0.003440
    C   C2   0.245226  0.988385  0.074415  -0.031458
    H   H2   0.205163  0.011907  0.152379  0.091935
    C   C3   0.207177  0.974695  0.976723  -0.067047
    C   C4   0.258622  0.950263  0.878221  -0.052309
    H   H3   0.229190  0.941847  0.801960  0.059077
    C   C5   0.346774  0.941137  0.878925  0.016869
    C   C6   0.384830  0.948292  0.975725  -0.110586
    C   C7   0.054051  0.034243  0.931385  -0.206613
    C   C8   0.965490  0.046027  0.942879  -0.116596
    H   H4   0.920148  0.084659  0.908711  0.134435
    C   C9   0.933476  0.013423  0.002465  0.032733
    C   C10  0.991280  0.968241  0.051408  -0.099934
    H   H5   0.968669  0.940275  0.096103  0.130624
    C   C11  0.079610  0.956131  0.040810  -0.175935
    H   H6   0.123780  0.919304  0.078374  0.118767
    C   C12  0.112215  0.988671  0.981427  0.170258
    C   C13  0.793515  0.036680  0.105946  -0.200756
    H   H7   0.826962  0.035872  0.177723  0.133162
    C   C14  0.704325  0.049202  0.110076  0.098088
    C   C15  0.661199  0.052126  0.019159  -0.136963
    H   H8   0.593103  0.056959  0.018526  0.123645
    C   C16  0.707602  0.035578  0.922030  0.029937
    C   C17  0.796142  0.021986  0.917333  -0.208401
    H   H9   0.832081  0.005356  0.838902  0.115646
    C   C18  0.839153  0.025677  0.010120  0.135050
    O   O1   0.570436  0.072185  0.209548  -0.554146
    C   C19  0.656877  0.047668  0.201926  0.514812
    O   O2   0.617952  0.860968  0.176244  -0.455229
    O   O3   0.699849  0.007773  0.259943  -0.464446
    O   O4   0.584252  0.952173  0.353569  -0.478402
    C   C20  0.622663  0.877954  0.282010  0.559537
    Fe  Fe1  0.514706  0.027914  0.288805  1.419686
    O   O5   0.456928  0.960696  0.177433  -0.531923
    O   O6   0.331916  0.069804  0.254202  -0.383343
    C   C21  0.373151  0.999094  0.176287  0.520512
    O   O7   0.440823  0.128102  0.414717  -0.628818
    O   O8   0.407284  0.034669  0.450104  -0.489146
    C   C22  0.399416  0.109751  0.479078  0.738697
    O   O9   0.592690  0.887612  0.590143  -0.571384
    O   O10  0.644683  0.968992  0.544989  -0.445396
    C   C23  0.639117  0.898479  0.521391  0.680725
    O   O11  0.586005  0.057809  0.817758  -0.633719
    O   O12  0.700913  0.939736  0.747566  -0.515885
    C   C24  0.667169  0.013748  0.820265  0.699213
    O   O13  0.360029  0.946342  0.699724  -0.475812
    O   O14  0.449766  0.063610  0.651208  -0.560611
    C   C25  0.370670  0.108554  0.703784  0.606878
    O   O15  0.472938  0.949137  0.806077  -0.578624
    C   C26  0.397232  0.939227  0.786640  0.585369
    O   O16  0.349503  0.108294  0.798808  -0.459091
    Fe  Fe2  0.523669  0.989962  0.716381  1.456942
    C   C27  0.908389  0.564339  0.330685  0.412035
    N   N1   0.840060  0.624808  0.403436  -0.195319
    C   C28  0.827523  0.625723  0.505250  0.424939
    C   C29  0.889573  0.572422  0.539532  -0.094250
    C   C30  0.954010  0.507279  0.463673  0.118665
    C   C31  0.959609  0.499724  0.355836  -0.069428
    C   C32  0.886425  0.583520  0.649431  -0.051390
    C   C33  0.950274  0.531647  0.683462  -0.082818
    C   C34  0.012610  0.464159  0.606482  -0.061751
    C   C35  0.012041  0.450375  0.496116  0.035371
    C   C36  0.068887  0.379427  0.419044  -0.028012
    C   C37  0.069679  0.368173  0.307806  -0.021165
    C   C38  0.018547  0.429157  0.277124  -0.150306
    C   C39  0.076138  0.411184  0.639885  0.443749
    N   N2   0.128776  0.339463  0.564630  -0.125241
    C   C40  0.121313  0.321199  0.455549  0.314031
    O   O17  0.930392  0.569660  0.237198  -0.411673
    O   O18  0.754168  0.677674  0.574045  -0.430593
    H   H10  0.837022  0.634745  0.710987  0.130979
    H   H11  0.948313  0.543360  0.770486  0.149573
    O   O19  0.085912  0.432281  0.747873  -0.468331
    O   O20  0.162187  0.245390  0.383410  -0.343583
    C   C41  0.274144  0.235824  0.542660  -0.244308
    H   H12  0.294580  0.245156  0.473237  0.222191
    C   C42  0.329109  0.172593  0.565923  -0.027679
    C   C43  0.308103  0.164197  0.661400  -0.035363
    C   C44  0.226182  0.211822  0.720825  -0.027072
    H   H13  0.206159  0.204825  0.792637  0.103707
    C   C45  0.166487  0.266536  0.686836  -0.171915
    H   H14  0.100770  0.297456  0.730185  0.154751
    C   C46  0.190645  0.281517  0.599713  0.217793
    C   C47  0.751438  0.767133  0.451354  -0.273204
    H   H15  0.768963  0.782686  0.534582  0.207934
    C   C48  0.692958  0.827913  0.426774  0.037262
    C   C49  0.676055  0.814164  0.317925  -0.026670
    C   C50  0.709312  0.736146  0.239970  -0.074055
    H   H16  0.694157  0.721921  0.155729  0.135370
    C   C51  0.758173  0.673889  0.268920  -0.236016
    H   H17  0.776395  0.613534  0.207067  0.198372
    C   C52  0.783705  0.688812  0.374089  0.298957
    C   C53  0.124788  0.293198  0.219533  0.630199
    O   O21  0.199013  0.284673  0.189350  -0.507606
    N   N3   0.094136  0.227898  0.174984  -0.713902
    H   H18  0.145355  0.179215  0.119836  0.380541
    H   H19  0.041585  0.243839  0.131042  0.259017
    C   C54  0.019867  0.412049  0.158509  0.731417
    O   O22  0.957977  0.399431  0.110519  -0.509908
    N   N4   0.090867  0.414302  0.100303  -0.626192
    H   H20  0.121402  0.357343  0.038451  0.303502
    H   H21  0.135990  0.427214  0.155693  0.264511
    C   C55  0.081646  0.075960  0.873352  0.746533
    O   O23  0.132988  0.110106  0.911387  -0.471050
    N   N5   0.045928  0.079714  0.774454  -0.762649
    H   H22  0.098743  0.063297  0.716545  0.345495
    H   H23  0.016810  0.036491  0.743262  0.283975
