# Generated by REPEAT Assigner based on pymatgen
data_DB0-m3_o14_o16_f0_pcu.sym.20
_audit_creation_date              2022-05-24
_audit_creation_method            REPEAT_Assigner
_cell_length_a                    9.821914
_cell_length_b                    11.005268
_cell_length_c                    13.671146
_cell_angle_alpha                 89.989741
_cell_angle_beta                  74.559895
_cell_angle_gamma                 90.000209
_cell_volume                      1424.419285
_symmetry_space_group_name_H-M    P1
_symmetry_Int_Tables_number       1
loop_
    _symmetry_equiv_pos_site_id
    _symmetry_equiv_pos_as_xyz
    1  x,y,z
loop_
    _atom_site_type_symbol
    _atom_site_label
    _atom_site_fract_x
    _atom_site_fract_y
    _atom_site_fract_z
    _atom_type_partial_charge
    O   O1   0.385583  0.679749  0.495207  -0.531647
    O   O2   0.618581  0.681772  0.489862  -0.647601
    C   C1   0.501970  0.739102  0.488699  0.664951
    O   O3   0.330368  0.501855  0.652092  -0.721569
    O   O4   0.563104  0.507711  0.650670  -0.648854
    C   C2   0.429021  0.506370  0.700055  0.859824
    Zn  Zn1  0.345784  0.499187  0.501241  0.974441
    Zn  Zn2  0.655572  0.501133  0.499245  1.029804
    O   O5   0.382956  0.318686  0.504213  -0.513046
    O   O6   0.617741  0.319436  0.505608  -0.637866
    O   O7   0.436411  0.492895  0.349739  -0.673658
    O   O8   0.672653  0.491828  0.348394  -0.635703
    C   C3   0.498092  0.261509  0.509348  0.604993
    C   C4   0.571574  0.492468  0.301406  0.811366
    C   C5   0.748942  0.612411  0.044393  -0.499813
    H   H1   0.752497  0.699501  0.869461  0.135409
    H   H2   0.839781  0.667630  0.009091  0.125130
    C   C6   0.609273  0.511053  0.190688  -0.409892
    C   C7   0.268593  0.418515  0.851931  -0.243732
    C   C8   0.236742  0.380475  0.951074  0.603652
    C   C9   0.323931  0.409031  0.011649  -0.451983
    C   C10  0.442313  0.482117  0.975208  0.148778
    C   C11  0.469605  0.525112  0.875624  0.097027
    C   C12  0.534529  0.513511  0.034849  -0.035989
    C   C13  0.651094  0.584917  0.992072  0.256251
    C   C14  0.668063  0.635597  0.898140  -0.202906
    C   C15  0.575335  0.609405  0.842171  -0.196832
    C   C16  0.513646  0.478866  0.136326  -0.105163
    C   C17  0.729819  0.575321  0.142798  0.664490
    C   C18  0.387230  0.487988  0.811774  -0.226510
    H   H3   0.421915  0.429216  0.177018  0.145734
    H   H4   0.202512  0.388075  0.804978  0.155039
    H   H5   0.294669  0.371906  0.087040  0.132911
    H   H6   0.583224  0.660069  0.774079  0.108663
    H   H7   0.717776  0.889887  0.483853  0.069481
    C   C19  0.257893  0.891093  0.466966  -0.144298
    H   H8   0.263424  0.809567  0.422633  0.089330
    C   C20  0.129763  0.949602  0.493271  -0.171925
    H   H9   0.038813  0.909070  0.475740  0.120073
    C   C21  0.116359  0.056318  0.546233  -0.022307
    H   H10  0.013984  0.098698  0.573666  0.064016
    C   C22  0.234866  0.112439  0.559758  -0.248805
    H   H11  0.218549  0.194416  0.604443  0.140054
    C   C23  0.368274  0.061326  0.521399  0.134297
    C   C24  0.375509  0.940548  0.491210  0.147888
    C   C25  0.499414  0.874195  0.485477  -0.167973
    C   C26  0.619637  0.937304  0.489635  -0.011643
    H   H12  0.716685  0.108996  0.492802  0.178875
    C   C27  0.618407  0.062403  0.497375  -0.229769
    C   C28  0.493354  0.126526  0.513700  -0.071178
    C   C29  0.821822  0.673778  0.614324  -0.038517
    H   H13  0.713280  0.678497  0.618676  0.137877
    C   C30  0.870065  0.759410  0.669675  -0.067717
    H   H14  0.799174  0.827936  0.711485  0.079678
    C   C31  0.006114  0.754347  0.675307  -0.005653
    H   H15  0.044202  0.818682  0.721628  0.091231
    C   C32  0.093773  0.665909  0.622891  -0.182489
    H   H16  0.196804  0.665272  0.633497  0.131977
    C   C33  0.049405  0.583236  0.560753  0.187193
    C   C34  0.909407  0.586097  0.557390  0.039626
    N   N1   0.859903  0.505107  0.499838  -0.211150
    C   C35  0.951531  0.423962  0.443959  0.481130
    H   H17  0.163806  0.357585  0.400055  0.111016
    C   C36  0.092040  0.422528  0.446162  -0.177152
    N   N2   0.140304  0.500963  0.504818  -0.059092
    N   N3   0.829142  0.613268  0.195842  -0.666674
    H   H18  0.833559  0.708046  0.193313  0.244117
    H   H19  0.927986  0.579630  0.156601  0.228422
    N   N4   0.904658  0.339238  0.381325  -0.553376
    H   H20  0.926707  0.252217  0.403404  0.234529
    H   H21  0.964691  0.353144  0.306759  0.243301
    N   N5   0.115595  0.306397  0.990068  -0.934212
    H   H22  0.051453  0.350445  0.053343  0.341427
    H   H23  0.149792  0.224603  0.014140  0.332689
