# Generated by REPEAT Assigner based on pymatgen
data_DB0-m2_o4_o7_f0_nbo.sym.114_sqe
_audit_creation_date              2022-05-24
_audit_creation_method            REPEAT_Assigner
_cell_length_a                    30.598206
_cell_length_b                    30.753149
_cell_length_c                    23.365848
_cell_angle_alpha                 90.000000
_cell_angle_beta                  130.898193
_cell_angle_gamma                 90.000000
_cell_volume                      16619.447321
_symmetry_space_group_name_H-M    P1
_symmetry_Int_Tables_number       1
loop_
    _symmetry_equiv_pos_site_id
    _symmetry_equiv_pos_as_xyz
    1  x,y,z
loop_
    _atom_site_type_symbol
    _atom_site_label
    _atom_site_fract_x
    _atom_site_fract_y
    _atom_site_fract_z
    _atom_type_partial_charge
    O   O1    0.818999  0.768119  0.497237  -0.578380
    O   O2    0.181001  0.768119  0.502763  -0.578453
    O   O3    0.318999  0.268119  0.497237  -0.578371
    O   O4    0.681001  0.268119  0.502763  -0.578340
    O   O5    0.768048  0.820509  0.502918  -0.605686
    O   O6    0.231952  0.820509  0.497082  -0.605737
    O   O7    0.268048  0.320509  0.502918  -0.605685
    O   O8    0.731952  0.320509  0.497082  -0.605661
    C   C1    0.805528  0.808808  0.495895  0.747001
    C   C2    0.194472  0.808808  0.504105  0.747159
    C   C3    0.305528  0.308808  0.495895  0.747025
    C   C4    0.694472  0.308808  0.504105  0.746929
    O   O9    0.715947  0.721821  0.387840  -0.603394
    O   O10   0.284053  0.721821  0.612160  -0.603495
    O   O11   0.215947  0.221821  0.387840  -0.603378
    O   O12   0.784053  0.221821  0.612160  -0.603403
    O   O13   0.667310  0.776988  0.392187  -0.596553
    O   O14   0.332690  0.776988  0.607813  -0.596656
    O   O15   0.167310  0.276988  0.392187  -0.596565
    O   O16   0.832690  0.276988  0.607813  -0.596647
    C   C5    0.673312  0.749732  0.354512  0.592307
    C   C6    0.326688  0.749732  0.645488  0.592439
    C   C7    0.173312  0.249732  0.354512  0.592288
    C   C8    0.826688  0.249732  0.645488  0.592368
    Cu  Cu1   0.778991  0.718648  0.497275  0.952843
    Cu  Cu2   0.221009  0.718648  0.502725  0.952958
    Cu  Cu3   0.278991  0.218648  0.497275  0.952815
    Cu  Cu4   0.721009  0.218648  0.502725  0.952901
    Cu  Cu5   0.719458  0.779230  0.502614  0.976663
    Cu  Cu6   0.280542  0.779230  0.497386  0.976779
    Cu  Cu7   0.219458  0.279230  0.502614  0.976649
    Cu  Cu8   0.780542  0.279230  0.497386  0.976664
    O   O17   0.733785  0.677348  0.503486  -0.608990
    O   O18   0.266215  0.677348  0.496514  -0.609106
    O   O19   0.233785  0.177348  0.503486  -0.609000
    O   O20   0.766215  0.177348  0.496515  -0.609033
    O   O21   0.682020  0.729758  0.507546  -0.620585
    O   O22   0.317980  0.729758  0.492454  -0.620707
    O   O23   0.182020  0.229758  0.507546  -0.620607
    O   O24   0.817980  0.229758  0.492455  -0.620617
    O   O25   0.831606  0.721278  0.607693  -0.544167
    O   O26   0.168394  0.721278  0.392307  -0.544228
    O   O27   0.331606  0.221278  0.607693  -0.544097
    O   O28   0.668394  0.221278  0.392307  -0.544126
    O   O29   0.782131  0.775915  0.612157  -0.582997
    O   O30   0.217869  0.775915  0.387843  -0.583017
    O   O31   0.282131  0.275915  0.612157  -0.582995
    O   O32   0.717869  0.275915  0.387843  -0.583000
    C   C9    0.692561  0.689111  0.503412  0.799184
    C   C10   0.307439  0.689111  0.496588  0.799655
    C   C11   0.192561  0.189111  0.503412  0.799269
    C   C12   0.807439  0.189111  0.496588  0.799275
    C   C13   0.825768  0.748852  0.645292  0.681011
    C   C14   0.174232  0.748852  0.354708  0.680909
    C   C15   0.325768  0.248852  0.645292  0.680775
    C   C16   0.674232  0.248852  0.354708  0.680989
    C   C17   0.451006  0.782415  0.845101  -0.196489
    C   C18   0.548994  0.782415  0.154899  -0.196434
    C   C19   0.951006  0.282415  0.845101  -0.196235
    C   C20   0.048994  0.282415  0.154899  -0.196429
    H   H1    0.485848  0.805838  0.875138  0.139151
    H   H2    0.514152  0.805838  0.124862  0.139148
    H   H3    0.985848  0.305838  0.875138  0.139106
    H   H4    0.014152  0.305838  0.124862  0.139147
    C   C21   0.413095  0.780846  0.767025  -0.135396
    C   C22   0.586905  0.780846  0.232975  -0.135463
    C   C23   0.913095  0.280846  0.767025  -0.135598
    C   C24   0.086905  0.280846  0.232975  -0.135475
    H   H5    0.418733  0.803392  0.736837  0.141091
    H   H6    0.581266  0.803392  0.263163  0.141085
    H   H7    0.918733  0.303392  0.736837  0.141119
    H   H8    0.081266  0.303392  0.263163  0.141089
    C   C25   0.368390  0.750945  0.728450  0.038680
    C   C26   0.631610  0.750945  0.271550  0.038803
    C   C27   0.868390  0.250945  0.728450  0.038925
    C   C28   0.131610  0.250945  0.271550  0.038834
    C   C29   0.362258  0.722608  0.768788  -0.088142
    C   C30   0.637742  0.722608  0.231212  -0.088219
    C   C31   0.862258  0.222608  0.768788  -0.088389
    C   C32   0.137742  0.222608  0.231212  -0.088233
    H   H9    0.327773  0.698930  0.740286  0.121899
    H   H10   0.672226  0.698930  0.259714  0.121904
    H   H11   0.827773  0.198930  0.740286  0.121929
    H   H12   0.172227  0.198930  0.259714  0.121905
    C   C33   0.400186  0.724304  0.846648  -0.211615
    C   C34   0.599814  0.724304  0.153352  -0.211553
    C   C35   0.900186  0.224304  0.846648  -0.211319
    C   C36   0.099814  0.224304  0.153352  -0.211540
    H   H13   0.395162  0.702127  0.877882  0.138016
    H   H14   0.604838  0.702127  0.122118  0.138009
    H   H15   0.895162  0.202127  0.877882  0.137961
    H   H16   0.104838  0.202127  0.122118  0.138007
    C   C37   0.444383  0.754236  0.884816  0.298099
    C   C38   0.555617  0.754236  0.115184  0.298017
    C   C39   0.944383  0.254236  0.884816  0.297749
    C   C40   0.055617  0.254236  0.115184  0.298004
    C   C41   0.483625  0.755448  0.965929  -0.162815
    C   C42   0.516375  0.755448  0.034071  -0.162765
    C   C43   0.983625  0.255448  0.965929  -0.162718
    C   C44   0.016375  0.255448  0.034071  -0.162774
    C   C45   0.859051  0.837403  0.458234  0.161805
    C   C46   0.140949  0.837403  0.541766  0.161855
    C   C47   0.359051  0.337403  0.458234  0.161837
    C   C48   0.640949  0.337403  0.541766  0.161818
    C   C49   0.838331  0.842775  0.494987  -0.177473
    C   C50   0.161669  0.842775  0.505013  -0.177677
    C   C51   0.338331  0.342775  0.494987  -0.177516
    C   C52   0.661669  0.342775  0.505013  -0.177543
    C   C53   0.850370  0.882087  0.531926  -0.111127
    C   C54   0.149630  0.882087  0.468074  -0.110923
    C   C55   0.350370  0.382087  0.531926  -0.111109
    C   C56   0.649630  0.382087  0.468074  -0.110926
    H   H17   0.835790  0.888047  0.562664  0.129974
    H   H18   0.164210  0.888047  0.437336  0.129913
    H   H19   0.335790  0.388047  0.562664  0.129966
    H   H20   0.664210  0.388047  0.437336  0.129896
    C   C57   0.883481  0.913534  0.532539  -0.114586
    C   C58   0.116519  0.913534  0.467461  -0.114614
    C   C59   0.383481  0.413534  0.532539  -0.114579
    C   C60   0.616519  0.413534  0.467461  -0.114686
    H   H21   0.893814  0.943516  0.563271  0.131471
    H   H22   0.106186  0.943516  0.436729  0.131465
    H   H23   0.393814  0.443516  0.563271  0.131467
    H   H24   0.606186  0.443516  0.436729  0.131488
    C   C61   0.902323  0.906983  0.493004  -0.213160
    C   C62   0.097677  0.906983  0.506996  -0.213209
    C   C63   0.402323  0.406983  0.493004  -0.213182
    C   C64   0.597677  0.406983  0.506996  -0.213158
    C   C65   0.888017  0.868237  0.455632  0.178579
    C   C66   0.111983  0.868237  0.544368  0.178576
    C   C67   0.388017  0.368237  0.455632  0.178572
    C   C68   0.611983  0.368237  0.544368  0.178556
    C   C69   0.896637  0.842088  0.410448  -0.161946
    C   C70   0.103363  0.842088  0.589552  -0.161963
    C   C71   0.396637  0.342088  0.410448  -0.161927
    C   C72   0.603363  0.342088  0.589552  -0.161942
    C   C73   0.862101  0.805897  0.412929  -0.215136
    C   C74   0.137898  0.805897  0.587071  -0.215107
    C   C75   0.362101  0.305897  0.412929  -0.215178
    C   C76   0.637898  0.305897  0.587071  -0.215099
    H   H25   0.873078  0.855713  0.353012  0.083388
    H   H26   0.126922  0.855713  0.646988  0.083397
    H   H27   0.373078  0.355713  0.353012  0.083390
    H   H28   0.626922  0.355713  0.646988  0.083393
    H   H29   0.942686  0.833519  0.443031  0.076817
    H   H30   0.057314  0.833519  0.556969  0.076820
    H   H31   0.442686  0.333519  0.443031  0.076812
    H   H32   0.557314  0.333519  0.556969  0.076822
    H   H33   0.819060  0.799415  0.356937  0.081331
    H   H34   0.180940  0.799415  0.643063  0.081318
    H   H35   0.319060  0.299415  0.356937  0.081337
    H   H36   0.680940  0.299415  0.643063  0.081317
    H   H37   0.888855  0.777095  0.446571  0.101596
    H   H38   0.111145  0.777095  0.553429  0.101590
    H   H39   0.388855  0.277095  0.446571  0.101615
    H   H40   0.611145  0.277095  0.553429  0.101586
    C   C77   0.035616  0.739110  0.153019  -0.206233
    C   C78   0.964384  0.739110  0.846981  -0.206226
    C   C79   0.535616  0.239110  0.153019  -0.206229
    C   C80   0.464384  0.239110  0.846981  -0.205991
    H   H41   0.989837  0.734483  0.120799  0.122245
    H   H42   0.010163  0.734483  0.879201  0.122241
    H   H43   0.489837  0.234483  0.120799  0.122241
    H   H44   0.510163  0.234483  0.879201  0.122220
    C   C81   0.073023  0.741605  0.231145  0.069014
    C   C82   0.926977  0.741605  0.768855  0.069081
    C   C83   0.573023  0.241605  0.231145  0.069180
    C   C84   0.426977  0.241605  0.768855  0.068434
    C   C85   0.131657  0.748529  0.271718  -0.076052
    C   C86   0.868343  0.748529  0.728282  -0.076211
    C   C87   0.631657  0.248529  0.271718  -0.076401
    C   C88   0.368343  0.248529  0.728282  -0.075624
    C   C89   0.151264  0.754452  0.233210  -0.141332
    C   C90   0.848736  0.754452  0.766790  -0.141251
    C   C91   0.651264  0.254452  0.233210  -0.141007
    C   C92   0.348736  0.254452  0.766790  -0.141533
    H   H45   0.196697  0.759805  0.263955  0.144235
    H   H46   0.803303  0.759805  0.736045  0.144210
    H   H47   0.696697  0.259805  0.263955  0.144127
    H   H48   0.303303  0.259805  0.736045  0.144264
    C   C93   0.113537  0.752435  0.155391  -0.187211
    C   C94   0.886463  0.752435  0.844609  -0.187245
    C   C95   0.613537  0.252435  0.155391  -0.187231
    C   C96   0.386463  0.252435  0.844609  -0.187124
    H   H49   0.129299  0.757008  0.125774  0.140256
    H   H50   0.870701  0.757008  0.874226  0.140262
    H   H51   0.629299  0.257008  0.125774  0.140230
    H   H52   0.370701  0.257008  0.874226  0.140241
    C   C97   0.055807  0.744517  0.115301  0.265578
    C   C98   0.944193  0.744517  0.884699  0.265602
    C   C99   0.555807  0.244517  0.115301  0.265464
    C   C100  0.444193  0.244517  0.884700  0.265609
    C   C101  0.016447  0.743750  0.034096  -0.152174
    C   C102  0.983553  0.743750  0.965904  -0.152206
    C   C103  0.516447  0.243750  0.034096  -0.152025
    C   C104  0.483553  0.243750  0.965904  -0.152346
    C   C105  0.642598  0.618301  0.464158  0.193579
    C   C106  0.357402  0.618301  0.535842  0.193916
    C   C107  0.142598  0.118301  0.464158  0.193611
    C   C108  0.857402  0.118301  0.535842  0.193723
    C   C109  0.660996  0.655284  0.506957  -0.239044
    C   C110  0.339004  0.655284  0.493043  -0.239680
    C   C111  0.160996  0.155284  0.506957  -0.239109
    C   C112  0.839004  0.155284  0.493043  -0.239214
    C   C113  0.647121  0.659428  0.552637  -0.120044
    C   C114  0.352879  0.659428  0.447363  -0.119532
    C   C115  0.147121  0.159428  0.552637  -0.120023
    C   C116  0.852879  0.159428  0.447363  -0.119804
    H   H53   0.660837  0.687842  0.587999  0.139487
    H   H54   0.339163  0.687842  0.412001  0.139368
    H   H55   0.160837  0.187842  0.588000  0.139484
    H   H56   0.839163  0.187842  0.412001  0.139437
    C   C117  0.616508  0.626659  0.554545  -0.098630
    C   C118  0.383492  0.626659  0.445455  -0.098994
    C   C119  0.116508  0.126659  0.554545  -0.098641
    C   C120  0.883492  0.126659  0.445455  -0.098904
    H   H57   0.606292  0.630281  0.590675  0.126550
    H   H58   0.393708  0.630281  0.409325  0.126618
    H   H59   0.106292  0.130281  0.590675  0.126549
    H   H60   0.893708  0.130281  0.409325  0.126613
    C   C121  0.596907  0.590567  0.507830  -0.209947
    C   C122  0.403093  0.590567  0.492170  -0.209711
    C   C123  0.096907  0.090567  0.507830  -0.209906
    C   C124  0.903093  0.090567  0.492170  -0.209780
    C   C125  0.610916  0.588323  0.462972  0.159331
    C   C126  0.389084  0.588323  0.537028  0.159147
    C   C127  0.110916  0.088323  0.462972  0.159279
    C   C128  0.889084  0.088323  0.537028  0.159220
    C   C129  0.604118  0.560967  0.405347  -0.174827
    C   C130  0.395882  0.560967  0.594654  -0.174539
    C   C131  0.104118  0.060967  0.405347  -0.174581
    C   C132  0.895882  0.060967  0.594654  -0.174664
    C   C133  0.641050  0.596487  0.406291  -0.198421
    C   C134  0.358950  0.596487  0.593709  -0.198778
    C   C135  0.141050  0.096487  0.406291  -0.198502
    C   C136  0.858950  0.096487  0.593709  -0.198639
    H   H61   0.626809  0.529350  0.428822  0.086329
    H   H62   0.373191  0.529350  0.571178  0.086228
    H   H63   0.126809  0.029350  0.428822  0.086218
    H   H64   0.873191  0.029350  0.571178  0.086256
    H   H65   0.558720  0.559828  0.351240  0.087698
    H   H66   0.441280  0.559828  0.648760  0.087649
    H   H67   0.058720  0.059828  0.351240  0.087638
    H   H68   0.941280  0.059828  0.648760  0.087674
    H   H69   0.684257  0.584674  0.429871  0.088704
    H   H70   0.315743  0.584674  0.570129  0.088823
    H   H71   0.184257  0.084674  0.429871  0.088731
    H   H72   0.815743  0.084674  0.570130  0.088801
    H   H73   0.616134  0.615338  0.352857  0.085307
    H   H74   0.383866  0.615338  0.647143  0.085363
    H   H75   0.116134  0.115338  0.352857  0.085305
    H   H76   0.883866  0.115338  0.647143  0.085348
    O   O33   0.424139  0.544079  0.431293  -0.622356
    O   O34   0.575861  0.544079  0.568707  -0.622387
    O   O35   0.924139  0.044079  0.431293  -0.622393
    O   O36   0.075861  0.044079  0.568707  -0.622377
    O   O37   0.482328  0.541501  0.561362  -0.603427
    O   O38   0.517672  0.541501  0.438638  -0.603409
    O   O39   0.982328  0.041501  0.561362  -0.603424
    O   O40   0.017672  0.041501  0.438638  -0.603456
    C   C137  0.438184  0.557082  0.494978  0.770932
    C   C138  0.561816  0.557082  0.505022  0.770998
    C   C139  0.938184  0.057082  0.494978  0.770974
    C   C140  0.061816  0.057082  0.505022  0.770982
    O   O41   0.924152  0.952132  0.431366  -0.623178
    O   O42   0.075848  0.952132  0.568634  -0.623157
    O   O43   0.424152  0.452132  0.431366  -0.623169
    O   O44   0.575848  0.452132  0.568634  -0.623181
    O   O45   0.982451  0.954723  0.561467  -0.621782
    O   O46   0.017549  0.954723  0.438533  -0.621819
    O   O47   0.482451  0.454723  0.561467  -0.621800
    O   O48   0.517549  0.454723  0.438533  -0.621788
    C   C141  0.938253  0.939223  0.495180  0.758352
    C   C142  0.061747  0.939223  0.504820  0.758417
    C   C143  0.438253  0.439223  0.495180  0.758377
    C   C144  0.561747  0.439223  0.504820  0.758380
    Cu  Cu9   0.464700  0.498086  0.424678  0.999701
    Cu  Cu10  0.535300  0.498086  0.575322  0.999707
    Cu  Cu11  0.964700  0.998086  0.424678  0.999659
    Cu  Cu12  0.035300  0.998086  0.575322  0.999771
    C   C145  0.048701  0.740049  0.268217  0.070102
    C   C146  0.014382  0.705448  0.255012  -0.077992
    C   C147  0.990531  0.704246  0.288623  0.030639
    Cl  Cl1   0.947764  0.659970  0.272581  -0.103707
    C   C148  0.000266  0.737868  0.334771  -0.071231
    C   C149  0.033545  0.772873  0.346912  -0.125457
    C   C150  0.057517  0.774088  0.313477  -0.140922
    H   H77   0.006712  0.678879  0.219117  0.093477
    H   H78   0.981482  0.736928  0.361009  0.096348
    H   H79   0.040638  0.799473  0.382396  0.114718
    H   H80   0.082865  0.801983  0.322448  0.109124
    C   C151  0.951299  0.740049  0.731783  0.070041
    C   C152  0.985618  0.705448  0.744988  -0.077972
    C   C153  0.009469  0.704246  0.711377  0.030627
    Cl  Cl2   0.052236  0.659970  0.727419  -0.103704
    C   C154  0.999734  0.737868  0.665229  -0.071197
    C   C155  0.966455  0.772873  0.653088  -0.125471
    C   C156  0.942483  0.774088  0.686523  -0.140908
    H   H81   0.993288  0.678879  0.780883  0.093469
    H   H82   0.018518  0.736928  0.638992  0.096335
    H   H83   0.959362  0.799473  0.617604  0.114715
    H   H84   0.917135  0.801983  0.677552  0.109126
    C   C157  0.548701  0.240049  0.268217  0.069977
    C   C158  0.514382  0.205448  0.255012  -0.077930
    C   C159  0.490531  0.204246  0.288623  0.030599
    Cl  Cl3   0.447764  0.159970  0.272581  -0.103700
    C   C160  0.500266  0.237868  0.334771  -0.071167
    C   C161  0.533545  0.272873  0.346912  -0.125516
    C   C162  0.557517  0.274088  0.313477  -0.140871
    H   H85   0.506712  0.178879  0.219117  0.093459
    H   H86   0.481482  0.236928  0.361009  0.096331
    H   H87   0.540638  0.299473  0.382396  0.114727
    H   H88   0.582865  0.301983  0.322448  0.109134
    C   C163  0.451299  0.240049  0.731783  0.070195
    C   C164  0.485618  0.205448  0.744988  -0.077986
    C   C165  0.509469  0.204246  0.711377  0.030541
    Cl  Cl4   0.552236  0.159970  0.727419  -0.103686
    C   C166  0.499734  0.237868  0.665229  -0.070989
    C   C167  0.466455  0.272873  0.653089  -0.125716
    C   C168  0.442483  0.274088  0.686523  -0.140754
    H   H89   0.493288  0.178879  0.780883  0.093489
    H   H90   0.518518  0.236928  0.638992  0.096260
    H   H91   0.459362  0.299473  0.617604  0.114774
    H   H92   0.417135  0.301983  0.677552  0.109111
