# Generated by REPEAT Assigner based on pymatgen
data_DB0-m3_o155_o150_f0_fsc.sym.31
_audit_creation_date              2022-05-24
_audit_creation_method            REPEAT_Assigner
_cell_length_a                    17.545254
_cell_length_b                    8.549841
_cell_length_c                    15.068019
_cell_angle_alpha                 90.000000
_cell_angle_beta                  90.992849
_cell_angle_gamma                 90.000000
_cell_volume                      2260.001061
_symmetry_space_group_name_H-M    P1
_symmetry_Int_Tables_number       1
loop_
    _symmetry_equiv_pos_site_id
    _symmetry_equiv_pos_as_xyz
    1  x,y,z
loop_
    _atom_site_type_symbol
    _atom_site_label
    _atom_site_fract_x
    _atom_site_fract_y
    _atom_site_fract_z
    _atom_type_partial_charge
    H   H1   0.029861  0.000000  0.561832  0.117990
    H   H2   0.970139  0.000000  0.438168  0.118008
    C   C1   0.010061  0.139680  0.675003  0.001190
    C   C2   0.989939  0.860320  0.324997  0.001255
    C   C3   0.989939  0.139680  0.324997  0.001218
    C   C4   0.010061  0.860320  0.675003  0.001228
    C   C5   0.001204  0.140443  0.765744  -0.327050
    C   C6   0.998796  0.859557  0.234256  -0.327075
    C   C7   0.998796  0.140443  0.234256  -0.327031
    C   C8   0.001204  0.859557  0.765744  -0.327093
    H   H3   0.996947  0.249970  0.801154  0.115486
    H   H4   0.003053  0.750029  0.198846  0.115489
    H   H5   0.003053  0.249970  0.198846  0.115480
    H   H6   0.996947  0.750029  0.801154  0.115494
    C   C9   0.000427  0.000000  0.811470  0.350992
    C   C10  0.999574  0.000000  0.188530  0.350949
    C   C11  0.019255  0.000000  0.631692  -0.140266
    C   C12  0.980746  0.000000  0.368307  -0.140309
    C   C13  0.932751  0.000000  0.951664  -0.223344
    C   C14  0.067249  0.000000  0.048336  -0.223342
    H   H7   0.880536  0.000000  0.912598  0.116131
    H   H8   0.119464  0.999999  0.087402  0.116126
    C   C15  0.930669  0.000000  0.043289  0.056857
    C   C16  0.069331  0.000000  0.956711  0.056849
    C   C17  0.998747  0.000000  0.091676  0.016671
    C   C18  0.001253  0.000000  0.908324  0.016650
    O   O1   0.069738  0.669146  0.585403  -0.729160
    O   O2   0.930263  0.330854  0.414597  -0.729037
    O   O3   0.930263  0.669146  0.414597  -0.729140
    O   O4   0.069738  0.330854  0.585403  -0.729056
    O   O5   0.938962  0.663355  0.598797  -0.744048
    O   O6   0.061039  0.336644  0.401203  -0.744104
    O   O7   0.061039  0.663355  0.401203  -0.744056
    O   O8   0.938962  0.336644  0.598797  -0.744095
    C   C19  0.006522  0.718212  0.621283  0.873829
    C   C20  0.993479  0.281788  0.378717  0.873769
    C   C21  0.993479  0.718212  0.378717  0.873811
    C   C22  0.006522  0.281788  0.621283  0.873787
    Zn  Zn1  0.915294  0.500000  0.505785  1.061731
    Zn  Zn2  0.084706  0.500000  0.494215  1.061800
    C   C23  0.776988  0.499979  0.586477  -0.316498
    C   C24  0.223012  0.499979  0.413523  -0.316478
    N   N1   0.815436  0.500000  0.510033  0.223699
    N   N2   0.184564  0.500000  0.489967  0.223676
    C   C25  0.777570  0.500022  0.431675  -0.296463
    C   C26  0.222430  0.500022  0.568325  -0.296427
    C   C27  0.658373  0.500000  0.505370  -0.033095
    C   C28  0.341627  0.500000  0.494630  -0.033061
    C   C29  0.698128  0.499978  0.584871  0.232433
    C   C30  0.301872  0.499978  0.415128  0.232405
    C   C31  0.659137  0.499947  0.662735  -0.218597
    C   C32  0.340863  0.499947  0.337265  -0.218595
    C   C33  0.699074  0.500023  0.428441  0.251151
    C   C34  0.300927  0.500023  0.571559  0.251109
    H   H9   0.689741  0.499917  0.725621  0.137214
    H   H10  0.310259  0.499917  0.274379  0.137212
    C   C35  0.459397  0.500011  0.578899  0.034087
    C   C36  0.540603  0.500011  0.421101  0.034069
    C   C37  0.460746  0.499988  0.418374  0.022647
    C   C38  0.539254  0.499988  0.581626  0.022635
    C   C39  0.420919  0.500000  0.497305  0.048874
    C   C40  0.579082  0.500000  0.502695  0.048897
    C   C41  0.416532  0.500052  0.656049  -0.161835
    C   C42  0.583469  0.500052  0.343951  -0.161831
    C   C43  0.338362  0.500053  0.651968  -0.237831
    C   C44  0.661638  0.500053  0.348032  -0.237834
    C   C45  0.580821  0.499947  0.661561  -0.159166
    C   C46  0.419179  0.499947  0.338439  -0.159162
    H   H11  0.306596  0.500083  0.712801  0.147156
    H   H12  0.693405  0.500083  0.287198  0.147154
    H   H13  0.440585  0.500101  0.721890  0.135053
    H   H14  0.559415  0.500101  0.278110  0.135049
    H   H15  0.555548  0.499898  0.725783  0.132898
    H   H16  0.444452  0.499898  0.274217  0.132900
    H   H17  0.809080  0.500037  0.370688  0.183848
    H   H18  0.190920  0.500037  0.629312  0.183848
    H   H19  0.808003  0.499960  0.649094  0.202551
    H   H20  0.191997  0.499960  0.350906  0.202550
    C   C47  0.856004  0.000000  0.086660  0.555637
    O   O9   0.851485  0.000000  0.167284  -0.468269
    O   O10  0.789406  0.000001  0.035164  -0.530468
    H   H21  0.743397  0.000001  0.074752  0.377684
    C   C48  0.143996  0.999999  0.913339  0.555633
    O   O11  0.148515  0.999999  0.832716  -0.468255
    O   O12  0.210594  0.999999  0.964836  -0.530464
    H   H22  0.256604  0.999999  0.925248  0.377678
