data_DB0-m3_o11_o28_f0_pcu.sym.13_repeat
_audit_creation_date              2024-02-20
_audit_creation_method            'Materials Studio'
_symmetry_space_group_name_H-M    'P1'
_symmetry_Int_Tables_number       1
_symmetry_cell_setting            triclinic
loop_
_symmetry_equiv_pos_as_xyz
  x,y,z
_cell_length_a                    23.4224
_cell_length_b                    11.1559
_cell_length_c                    9.9296
_cell_angle_alpha                 89.9974
_cell_angle_beta                  89.9814
_cell_angle_gamma                 90.0113
loop_
_atom_site_label
_atom_site_type_symbol
_atom_site_fract_x
_atom_site_fract_y
_atom_site_fract_z
_atom_site_U_iso_or_equiv
_atom_site_adp_type
_atom_site_occupancy
O1     O     0.50624   0.31886   0.60959   0.00000  Uiso   1.00
O2     O     0.50278   0.32118   0.37820   0.00000  Uiso   1.00
C1     C     0.50537   0.26367   0.49339   0.00000  Uiso   1.00
O3     O     0.41722   0.48816   0.62298   0.00000  Uiso   1.00
O4     O     0.41449   0.49418   0.39133   0.00000  Uiso   1.00
C2     C     0.38902   0.48960   0.50873   0.00000  Uiso   1.00
Zn1    Zn    0.50281   0.49625   0.65178   0.00000  Uiso   1.00
Zn2    Zn    0.49871   0.50040   0.34578   0.00000  Uiso   1.00
O5     O     0.49838   0.67540   0.61996   0.00000  Uiso   1.00
O6     O     0.49660   0.67820   0.38710   0.00000  Uiso   1.00
O7     O     0.58705   0.50477   0.60659   0.00000  Uiso   1.00
O8     O     0.58432   0.50736   0.37428   0.00000  Uiso   1.00
C3     C     0.49616   0.73256   0.50440   0.00000  Uiso   1.00
C4     C     0.61247   0.50779   0.48878   0.00000  Uiso   1.00
C5     C     0.88382   0.61039   0.51074   0.00000  Uiso   1.00
N1     N     0.85438   0.50695   0.50029   0.00000  Uiso   1.00
C6     C     0.88170   0.40060   0.49713   0.00000  Uiso   1.00
C7     C     0.94064   0.39605   0.50496   0.00000  Uiso   1.00
C8     C     0.97129   0.50103   0.51447   0.00000  Uiso   1.00
C9     C     0.94281   0.60899   0.51706   0.00000  Uiso   1.00
C10    C     0.96914   0.28751   0.50366   0.00000  Uiso   1.00
C11    C     0.02790   0.28455   0.51121   0.00000  Uiso   1.00
C12    C     0.05863   0.39014   0.51931   0.00000  Uiso   1.00
C13    C     0.03013   0.49811   0.52078   0.00000  Uiso   1.00
C14    C     0.06080   0.60322   0.52754   0.00000  Uiso   1.00
C15    C     0.03230   0.71172   0.53016   0.00000  Uiso   1.00
C16    C     0.97351   0.71457   0.52545   0.00000  Uiso   1.00
C17    C     0.11768   0.38888   0.52402   0.00000  Uiso   1.00
N2     N     0.14714   0.49262   0.52841   0.00000  Uiso   1.00
C18    C     0.11979   0.59893   0.53040   0.00000  Uiso   1.00
O9     O     0.85554   0.71517   0.51246   0.00000  Uiso   1.00
O10    O     0.85126   0.29874   0.48913   0.00000  Uiso   1.00
H1     H     0.94616   0.20376   0.49666   0.00000  Uiso   1.00
H2     H     0.04914   0.19859   0.50972   0.00000  Uiso   1.00
O11    O     0.14606   0.28428   0.51999   0.00000  Uiso   1.00
O12    O     0.15023   0.70092   0.53607   0.00000  Uiso   1.00
H3     H     0.05530   0.79553   0.53571   0.00000  Uiso   1.00
H4     H     0.95227   0.80052   0.52759   0.00000  Uiso   1.00
C19    C     0.23581   0.53424   0.41174   0.00000  Uiso   1.00
H5     H     0.21151   0.56930   0.32798   0.00000  Uiso   1.00
C20    C     0.29454   0.53320   0.40518   0.00000  Uiso   1.00
C21    C     0.32626   0.48925   0.51251   0.00000  Uiso   1.00
C22    C     0.29810   0.44646   0.62526   0.00000  Uiso   1.00
H6     H     0.32183   0.41160   0.70996   0.00000  Uiso   1.00
C23    C     0.23918   0.44586   0.63012   0.00000  Uiso   1.00
H7     H     0.21760   0.41192   0.71852   0.00000  Uiso   1.00
C24    C     0.20795   0.49049   0.52357   0.00000  Uiso   1.00
C25    C     0.76525   0.47313   0.38030   0.00000  Uiso   1.00
H8     H     0.78922   0.44321   0.29352   0.00000  Uiso   1.00
C26    C     0.70635   0.47427   0.37549   0.00000  Uiso   1.00
C27    C     0.67521   0.51089   0.48713   0.00000  Uiso   1.00
C28    C     0.70398   0.54745   0.60172   0.00000  Uiso   1.00
H9     H     0.68088   0.57682   0.68996   0.00000  Uiso   1.00
C29    C     0.76278   0.54804   0.60503   0.00000  Uiso   1.00
H10    H     0.78466   0.57631   0.69547   0.00000  Uiso   1.00
C30    C     0.79358   0.50993   0.49484   0.00000  Uiso   1.00
C31    C     0.49852   0.93013   0.39689   0.00000  Uiso   1.00
C32    C     0.49219   0.86365   0.50825   0.00000  Uiso   1.00
H11    H     0.50418   0.88576   0.30076   0.00000  Uiso   1.00
H12    H     0.48206   0.90409   0.60417   0.00000  Uiso   1.00
C33    C     0.49302   0.06230   0.39481   0.00000  Uiso   1.00
C34    C     0.51126   0.13236   0.49627   0.00000  Uiso   1.00
C35    C     0.52031   0.58367   0.92521   0.00000  Uiso   1.00
N3     N     0.50699   0.49242   0.85295   0.00000  Uiso   1.00
H13    H     0.53060   0.66803   0.87691   0.00000  Uiso   1.00
H14    H     0.50587   0.41146   0.90232   0.00000  Uiso   1.00
C36    C     0.52809   0.57215   0.07230   0.00000  Uiso   1.00
N4     N     0.49544   0.50539   0.14457   0.00000  Uiso   1.00
H15    H     0.56175   0.62317   0.12050   0.00000  Uiso   1.00
O13    O     0.67962   0.43452   0.26164   0.00000  Uiso   1.00
H16    H     0.67773   0.34639   0.27267   0.00000  Uiso   1.00
O14    O     0.47010   0.11348   0.28173   0.00000  Uiso   1.00
H17    H     0.50168   0.11340   0.21542   0.00000  Uiso   1.00
O15    O     0.53840   0.08331   0.60535   0.00000  Uiso   1.00
H18    H     0.51131   0.09355   0.68109   0.00000  Uiso   1.00
O16    O     0.44537   0.47762   0.08753   0.00000  Uiso   1.00
H19    H     0.44165   0.38993   0.10028   0.00000  Uiso   1.00
O17    O     0.32053   0.58008   0.29376   0.00000  Uiso   1.00
H20    H     0.32256   0.66728   0.31177   0.00000  Uiso   1.00
