data_DB0-m3_o156_o151_f0_fsc.sym.22_repeat
_audit_creation_date              2024-02-20
_audit_creation_method            'Materials Studio'
_symmetry_space_group_name_H-M    'P1'
_symmetry_Int_Tables_number       1
_symmetry_cell_setting            triclinic
loop_
_symmetry_equiv_pos_as_xyz
  x,y,z
_cell_length_a                    17.4691
_cell_length_b                    8.5459
_cell_length_c                    19.3635
_cell_angle_alpha                 90.0000
_cell_angle_beta                  91.0280
_cell_angle_gamma                 90.0000
loop_
_atom_site_label
_atom_site_type_symbol
_atom_site_fract_x
_atom_site_fract_y
_atom_site_fract_z
_atom_site_U_iso_or_equiv
_atom_site_adp_type
_atom_site_occupancy
H1     H     0.03179   0.00302   0.54842   0.00000  Uiso   1.00
H2     H     0.96822   0.00302   0.45158   0.00000  Uiso   1.00
C1     C     0.00886   0.14227   0.63612   0.00000  Uiso   1.00
C2     C     0.99176   0.86380   0.36404   0.00000  Uiso   1.00
C3     C     0.99115   0.14227   0.36388   0.00000  Uiso   1.00
C4     C     0.00824   0.86380   0.63596   0.00000  Uiso   1.00
C5     C     0.99767   0.14350   0.70645   0.00000  Uiso   1.00
C6     C     0.00608   0.86309   0.29427   0.00000  Uiso   1.00
C7     C     0.00233   0.14350   0.29355   0.00000  Uiso   1.00
C8     C     0.99392   0.86309   0.70573   0.00000  Uiso   1.00
H3     H     0.99550   0.25523   0.73215   0.00000  Uiso   1.00
H4     H     0.01648   0.75233   0.26939   0.00000  Uiso   1.00
H5     H     0.00450   0.25523   0.26785   0.00000  Uiso   1.00
H6     H     0.98352   0.75233   0.73061   0.00000  Uiso   1.00
C9     C     0.99366   0.00291   0.74254   0.00000  Uiso   1.00
C10    C     0.00634   0.00291   0.25746   0.00000  Uiso   1.00
C11    C     0.01960   0.00300   0.60262   0.00000  Uiso   1.00
C12    C     0.98041   0.00300   0.39738   0.00000  Uiso   1.00
C13    C     0.97844   0.87210   0.07385   0.00000  Uiso   1.00
C14    C     0.97036   0.13020   0.92691   0.00000  Uiso   1.00
C15    C     0.02156   0.87210   0.92615   0.00000  Uiso   1.00
C16    C     0.02964   0.13020   0.07309   0.00000  Uiso   1.00
H7     H     0.95524   0.77190   0.04660   0.00000  Uiso   1.00
H8     H     0.95016   0.23102   0.95494   0.00000  Uiso   1.00
H9     H     0.04475   0.77190   0.95340   0.00000  Uiso   1.00
H10    H     0.04984   0.23102   0.04506   0.00000  Uiso   1.00
C17    C     0.97994   0.87285   0.14501   0.00000  Uiso   1.00
C18    C     0.96573   0.12895   0.85567   0.00000  Uiso   1.00
C19    C     0.02006   0.87285   0.85499   0.00000  Uiso   1.00
C20    C     0.03427   0.12895   0.14433   0.00000  Uiso   1.00
H11    H     0.95577   0.77357   0.17120   0.00000  Uiso   1.00
H12    H     0.94073   0.22909   0.83001   0.00000  Uiso   1.00
H13    H     0.04422   0.77357   0.82880   0.00000  Uiso   1.00
H14    H     0.05927   0.22909   0.16999   0.00000  Uiso   1.00
C21    C     0.00835   0.00092   0.18121   0.00000  Uiso   1.00
C22    C     0.99165   0.00092   0.81879   0.00000  Uiso   1.00
C23    C     0.00206   0.00154   0.03771   0.00000  Uiso   1.00
C24    C     0.99794   0.00154   0.96229   0.00000  Uiso   1.00
O1     O     0.06950   0.67254   0.56697   0.00000  Uiso   1.00
O2     O     0.93044   0.33360   0.43295   0.00000  Uiso   1.00
O3     O     0.93050   0.67254   0.43303   0.00000  Uiso   1.00
O4     O     0.06956   0.33360   0.56705   0.00000  Uiso   1.00
O5     O     0.93801   0.66625   0.57636   0.00000  Uiso   1.00
O6     O     0.06191   0.33945   0.42370   0.00000  Uiso   1.00
O7     O     0.06200   0.66625   0.42364   0.00000  Uiso   1.00
O8     O     0.93809   0.33945   0.57630   0.00000  Uiso   1.00
C25    C     0.00557   0.72163   0.59420   0.00000  Uiso   1.00
C26    C     0.99421   0.28447   0.40565   0.00000  Uiso   1.00
C27    C     0.99443   0.72163   0.40580   0.00000  Uiso   1.00
C28    C     0.00579   0.28447   0.59435   0.00000  Uiso   1.00
Zn1    Zn    0.91487   0.50295   0.50380   0.00000  Uiso   1.00
Zn2    Zn    0.08514   0.50295   0.49620   0.00000  Uiso   1.00
C29    C     0.77649   0.50286   0.44538   0.00000  Uiso   1.00
C30    C     0.22351   0.50286   0.55463   0.00000  Uiso   1.00
N1     N     0.81460   0.50291   0.50647   0.00000  Uiso   1.00
N2     N     0.18540   0.50291   0.49353   0.00000  Uiso   1.00
C31    C     0.77643   0.50266   0.56629   0.00000  Uiso   1.00
C32    C     0.22358   0.50266   0.43371   0.00000  Uiso   1.00
C33    C     0.65896   0.50201   0.38018   0.00000  Uiso   1.00
C34    C     0.34104   0.50201   0.61982   0.00000  Uiso   1.00
C35    C     0.69761   0.50228   0.44292   0.00000  Uiso   1.00
C36    C     0.30240   0.50228   0.55708   0.00000  Uiso   1.00
C37    C     0.65772   0.50195   0.50337   0.00000  Uiso   1.00
C38    C     0.34228   0.50195   0.49664   0.00000  Uiso   1.00
C39    C     0.69728   0.50226   0.56551   0.00000  Uiso   1.00
C40    C     0.30273   0.50226   0.43450   0.00000  Uiso   1.00
C41    C     0.65764   0.50211   0.62645   0.00000  Uiso   1.00
C42    C     0.34236   0.50211   0.37355   0.00000  Uiso   1.00
C43    C     0.54012   0.50032   0.31523   0.00000  Uiso   1.00
C44    C     0.45988   0.50032   0.68477   0.00000  Uiso   1.00
C45    C     0.57971   0.50095   0.37792   0.00000  Uiso   1.00
C46    C     0.42029   0.50095   0.62208   0.00000  Uiso   1.00
C47    C     0.53981   0.50129   0.43894   0.00000  Uiso   1.00
C48    C     0.46020   0.50129   0.56106   0.00000  Uiso   1.00
C49    C     0.46099   0.50131   0.31412   0.00000  Uiso   1.00
C50    C     0.53901   0.50131   0.68589   0.00000  Uiso   1.00
C51    C     0.42143   0.50175   0.37508   0.00000  Uiso   1.00
C52    C     0.57857   0.50175   0.62492   0.00000  Uiso   1.00
C53    C     0.57885   0.50159   0.50159   0.00000  Uiso   1.00
C54    C     0.42115   0.50159   0.49841   0.00000  Uiso   1.00
C55    C     0.53917   0.50150   0.56254   0.00000  Uiso   1.00
C56    C     0.46084   0.50150   0.43746   0.00000  Uiso   1.00
H15    H     0.80814   0.50304   0.39793   0.00000  Uiso   1.00
H16    H     0.19187   0.50304   0.60207   0.00000  Uiso   1.00
H17    H     0.69161   0.50336   0.33337   0.00000  Uiso   1.00
H18    H     0.30839   0.50336   0.66663   0.00000  Uiso   1.00
H19    H     0.68852   0.50227   0.67533   0.00000  Uiso   1.00
H20    H     0.31148   0.50227   0.32467   0.00000  Uiso   1.00
H21    H     0.42943   0.50091   0.26557   0.00000  Uiso   1.00
H22    H     0.57057   0.50091   0.73443   0.00000  Uiso   1.00
H23    H     0.80792   0.50274   0.61486   0.00000  Uiso   1.00
H24    H     0.19209   0.50274   0.38514   0.00000  Uiso   1.00
N3     N     0.58066   0.49810   0.25193   0.00000  Uiso   1.00
H25    H     0.60839   0.39017   0.24870   0.00000  Uiso   1.00
H26    H     0.54129   0.50463   0.21087   0.00000  Uiso   1.00
N4     N     0.41934   0.49810   0.74807   0.00000  Uiso   1.00
H27    H     0.39162   0.39017   0.75130   0.00000  Uiso   1.00
H28    H     0.45871   0.50463   0.78913   0.00000  Uiso   1.00
