# Generated by REPEAT Assigner based on pymatgen
data_DB0-m2_o22_o25_f0_pcu.sym.74_sqe
_audit_creation_date              2022-05-24
_audit_creation_method            REPEAT_Assigner
_cell_length_a                    15.899956
_cell_length_b                    10.674911
_cell_length_c                    9.242805
_cell_angle_alpha                 89.933718
_cell_angle_beta                  90.032712
_cell_angle_gamma                 89.997237
_cell_volume                      1568.785684
_symmetry_space_group_name_H-M    P1
_symmetry_Int_Tables_number       1
loop_
    _symmetry_equiv_pos_site_id
    _symmetry_equiv_pos_as_xyz
    1  x,y,z
loop_
    _atom_site_type_symbol
    _atom_site_label
    _atom_site_fract_x
    _atom_site_fract_y
    _atom_site_fract_z
    _atom_type_partial_charge
    O   O1   0.499144  0.317300  0.606312  -0.612305
    O   O2   0.504173  0.318585  0.358032  -0.534991
    C   C1   0.501857  0.259157  0.481880  0.508137
    O   O3   0.378413  0.501381  0.609997  -0.646483
    O   O4   0.378026  0.494550  0.361439  -0.666807
    C   C2   0.339011  0.497137  0.485892  0.882631
    Cu  Cu1  0.500731  0.499122  0.629279  0.890734
    Cu  Cu2  0.500107  0.500757  0.339370  0.821364
    O   O5   0.496226  0.681347  0.610885  -0.587240
    O   O6   0.501773  0.682553  0.362268  -0.602751
    O   O7   0.622809  0.505779  0.607258  -0.573135
    O   O8   0.622429  0.497980  0.358394  -0.618305
    C   C3   0.497773  0.740835  0.486644  0.570709
    C   C4   0.661796  0.502185  0.482674  0.753581
    C   C5   0.972214  0.396360  0.546472  -0.179087
    C   C6   0.027423  0.400693  0.412183  -0.154322
    H   H1   0.052132  0.318557  0.352391  0.072927
    H   H2   0.946520  0.310693  0.598069  0.078569
    H   H3   0.948740  0.509599  0.237080  0.068529
    C   C7   0.248759  0.497037  0.486065  -0.202316
    C   C8   0.752047  0.502215  0.482508  -0.129646
    C   C9   0.027389  0.494159  0.619358  -0.160173
    C   C10  0.080963  0.498509  0.485059  0.670521
    C   C11  0.973382  0.598496  0.556385  -0.144353
    C   C12  0.919842  0.500682  0.483509  0.680919
    C   C13  0.028590  0.602830  0.422097  -0.161306
    C   C14  0.973417  0.505030  0.349210  -0.176698
    C   C15  0.172973  0.497489  0.485779  -0.354529
    C   C16  0.827833  0.501724  0.482793  -0.397604
    H   H4   0.054284  0.688498  0.370502  0.072686
    H   H5   0.948673  0.680632  0.616178  0.062847
    H   H6   0.052066  0.489592  0.731487  0.063021
    C   C17  0.576456  0.069699  0.564649  -0.189961
    H   H7   0.579134  0.111891  0.673973  0.094128
    H   H8   0.634931  0.093434  0.505299  0.035440
    C   C18  0.569407  0.928803  0.579783  0.039449
    H   H9   0.629341  0.884887  0.545310  0.017934
    H   H10  0.557813  0.904931  0.694826  -0.004338
    H   H11  0.422504  0.100526  0.670202  0.052128
    C   C19  0.420992  0.073701  0.554352  -0.174853
    C   C20  0.504197  0.069610  0.328422  -0.289744
    C   C21  0.500988  0.119199  0.481994  0.256965
    H   H12  0.446106  0.096724  0.269687  0.058038
    H   H13  0.559849  0.107430  0.270676  0.099602
    C   C22  0.497856  0.881145  0.485903  -0.051505
    C   C23  0.414497  0.932260  0.541224  0.497245
    C   C24  0.510695  0.928192  0.331982  0.075035
    H   H14  0.573837  0.899962  0.292766  0.036556
    H   H15  0.461839  0.889660  0.258734  -0.002096
    H   H16  0.365626  0.117902  0.502061  0.044620
    H   H17  0.364585  0.907574  0.462348  -0.045293
    C   C25  0.557670  0.598137  0.064895  0.022811
    H   H18  0.623863  0.573824  0.090053  0.018036
    H   H19  0.543237  0.690833  0.111901  -0.004067
    C   C26  0.547597  0.608995  0.902322  0.011724
    H   H20  0.511512  0.695616  0.879672  0.053723
    H   H21  0.610361  0.618018  0.851397  0.017556
    H   H22  0.590724  0.357557  0.121546  0.119552
    C   C27  0.530452  0.382211  0.068509  -0.293079
    C   C28  0.417357  0.523467  0.064242  -0.123821
    N   N1   0.501329  0.502379  0.122418  0.255509
    H   H23  0.372661  0.453475  0.107851  0.083097
    H   H24  0.395702  0.618997  0.092976  0.037186
    N   N2   0.502542  0.500625  0.846162  -0.022517
    C   C29  0.540946  0.386891  0.905150  0.452810
    C   C30  0.416989  0.508141  0.901267  -0.066005
    H   H25  0.383997  0.589955  0.854023  0.090952
    H   H26  0.382190  0.421308  0.873769  0.041961
    H   H27  0.483322  0.308696  0.093057  0.072203
    H   H28  0.508620  0.303404  0.861495  0.009462
    O   O9   0.395379  0.881698  0.673922  -0.461860
    C   C31  0.320183  0.902245  0.737361  0.777229
    O   O10  0.264940  0.958664  0.672973  -0.574288
    C   C32  0.304738  0.856890  0.887375  -0.529372
    H   H29  0.362751  0.812942  0.930330  0.151620
    H   H30  0.252893  0.787401  0.886708  0.157942
    H   H31  0.287160  0.937214  0.957080  0.159773
    O   O11  0.624714  0.382663  0.868743  -0.411130
    C   C33  0.671982  0.278793  0.887446  0.733267
    O   O12  0.641190  0.183801  0.938207  -0.562178
    C   C34  0.762421  0.280293  0.845760  -0.501214
    H   H32  0.778985  0.373875  0.802035  0.134587
    H   H33  0.773947  0.208016  0.761991  0.153279
    H   H34  0.801691  0.260105  0.942208  0.150776
