data_DB0-m3_o29_o105_f0_fsc_repeat
_audit_creation_date              2024-02-23
_audit_creation_method            'Materials Studio'
_symmetry_space_group_name_H-M    'P1'
_symmetry_Int_Tables_number       1
_symmetry_cell_setting            triclinic
loop_
_symmetry_equiv_pos_as_xyz
  x,y,z
_cell_length_a                    10.9906
_cell_length_b                    10.9460
_cell_length_c                    26.6224
_cell_angle_alpha                 90.0000
_cell_angle_beta                  90.0000
_cell_angle_gamma                 90.0000
loop_
_atom_site_label
_atom_site_type_symbol
_atom_site_fract_x
_atom_site_fract_y
_atom_site_fract_z
_atom_site_U_iso_or_equiv
_atom_site_adp_type
_atom_site_occupancy
O1     O     0.11020   0.13081   0.95309   0.00000  Uiso   1.00
O2     O     0.89073   0.86431   0.04655   0.00000  Uiso   1.00
O3     O     0.85919   0.86845   0.96216   0.00000  Uiso   1.00
O4     O     0.14012   0.12822   0.03764   0.00000  Uiso   1.00
O5     O     0.14095   0.86849   0.03788   0.00000  Uiso   1.00
O6     O     0.85989   0.12817   0.96243   0.00000  Uiso   1.00
O7     O     0.88980   0.13078   0.04698   0.00000  Uiso   1.00
O8     O     0.10938   0.86442   0.95350   0.00000  Uiso   1.00
C1     C     0.16762   0.17175   0.99303   0.00000  Uiso   1.00
C2     C     0.83257   0.82403   0.00669   0.00000  Uiso   1.00
C3     C     0.16760   0.82416   0.99334   0.00000  Uiso   1.00
C4     C     0.83239   0.17171   0.00703   0.00000  Uiso   1.00
Zn1    Zn    0.01721   0.99801   0.05597   0.00000  Uiso   1.00
Zn2    Zn    0.98285   0.99803   0.94410   0.00000  Uiso   1.00
C5     C     0.97289   0.10929   0.68354   0.00000  Uiso   1.00
C6     C     0.03304   0.89607   0.31696   0.00000  Uiso   1.00
C7     C     0.96789   0.89605   0.68308   0.00000  Uiso   1.00
C8     C     0.02608   0.10927   0.31645   0.00000  Uiso   1.00
O9     O     0.97511   0.20894   0.70793   0.00000  Uiso   1.00
O10    O     0.04092   0.79595   0.29308   0.00000  Uiso   1.00
O11    O     0.96077   0.79588   0.70695   0.00000  Uiso   1.00
O12    O     0.02306   0.20885   0.29203   0.00000  Uiso   1.00
N1     N     0.96783   0.00238   0.70866   0.00000  Uiso   1.00
N2     N     0.03219   0.00237   0.29138   0.00000  Uiso   1.00
C9     C     0.87582   0.05183   0.79017   0.00000  Uiso   1.00
C10    C     0.93730   0.94925   0.21158   0.00000  Uiso   1.00
C11    C     0.06270   0.94919   0.78847   0.00000  Uiso   1.00
C12    C     0.12433   0.05164   0.20988   0.00000  Uiso   1.00
C13    C     0.88001   0.04868   0.84219   0.00000  Uiso   1.00
C14    C     0.93740   0.94967   0.15972   0.00000  Uiso   1.00
C15    C     0.06259   0.94956   0.84033   0.00000  Uiso   1.00
C16    C     0.12014   0.04846   0.15785   0.00000  Uiso   1.00
C17    C     0.96833   0.00103   0.76252   0.00000  Uiso   1.00
C18    C     0.03174   0.00097   0.23752   0.00000  Uiso   1.00
C19    C     0.98122   0.00327   0.60466   0.00000  Uiso   1.00
C20    C     0.01864   0.00327   0.39535   0.00000  Uiso   1.00
C21    C     0.97947   0.11088   0.63142   0.00000  Uiso   1.00
C22    C     0.02641   0.89535   0.36900   0.00000  Uiso   1.00
C23    C     0.97451   0.89533   0.63104   0.00000  Uiso   1.00
C24    C     0.01938   0.11087   0.36857   0.00000  Uiso   1.00
C25    C     0.98633   0.21983   0.60596   0.00000  Uiso   1.00
C26    C     0.02777   0.78675   0.39479   0.00000  Uiso   1.00
C27    C     0.97420   0.78667   0.60527   0.00000  Uiso   1.00
C28    C     0.01139   0.21979   0.39399   0.00000  Uiso   1.00
N3     N     0.97225   0.99784   0.86783   0.00000  Uiso   1.00
N4     N     0.02781   0.99780   0.13222   0.00000  Uiso   1.00
H1     H     0.13986   0.90969   0.85927   0.00000  Uiso   1.00
H2     H     0.19449   0.08920   0.13725   0.00000  Uiso   1.00
H3     H     0.80576   0.08961   0.86281   0.00000  Uiso   1.00
H4     H     0.86007   0.90993   0.14079   0.00000  Uiso   1.00
H5     H     0.13869   0.90953   0.76851   0.00000  Uiso   1.00
H6     H     0.20114   0.09334   0.22857   0.00000  Uiso   1.00
H7     H     0.79904   0.09364   0.77151   0.00000  Uiso   1.00
H8     H     0.86126   0.90971   0.23157   0.00000  Uiso   1.00
H9     H     0.98617   0.30603   0.62574   0.00000  Uiso   1.00
H10    H     0.03605   0.70043   0.37540   0.00000  Uiso   1.00
H11    H     0.96678   0.70029   0.62468   0.00000  Uiso   1.00
H12    H     0.01070   0.30594   0.37418   0.00000  Uiso   1.00
C29    C     0.00294   0.11382   0.47358   0.00000  Uiso   1.00
C30    C     0.99401   0.89326   0.52629   0.00000  Uiso   1.00
C31    C     0.00698   0.89328   0.47375   0.00000  Uiso   1.00
C32    C     0.99569   0.11383   0.52638   0.00000  Uiso   1.00
C33    C     0.00960   0.00349   0.44773   0.00000  Uiso   1.00
C34    C     0.99023   0.00348   0.55226   0.00000  Uiso   1.00
C35    C     0.00346   0.22163   0.44550   0.00000  Uiso   1.00
C36    C     0.98346   0.78529   0.55386   0.00000  Uiso   1.00
C37    C     0.01859   0.78538   0.44620   0.00000  Uiso   1.00
C38    C     0.99410   0.22166   0.55443   0.00000  Uiso   1.00
H13    H     0.99613   0.31120   0.46159   0.00000  Uiso   1.00
H14    H     0.98011   0.69595   0.53734   0.00000  Uiso   1.00
H15    H     0.02291   0.69611   0.46274   0.00000  Uiso   1.00
H16    H     0.00039   0.31129   0.53832   0.00000  Uiso   1.00
C39    C     0.24385   0.28141   0.98891   0.00000  Uiso   1.00
C40    C     0.75626   0.71439   0.01079   0.00000  Uiso   1.00
C41    C     0.24385   0.71449   0.98922   0.00000  Uiso   1.00
C42    C     0.75612   0.28135   0.01114   0.00000  Uiso   1.00
C43    C     0.18781   0.39038   0.97906   0.00000  Uiso   1.00
C44    C     0.81210   0.60552   0.02104   0.00000  Uiso   1.00
C45    C     0.18784   0.60559   0.97921   0.00000  Uiso   1.00
C46    C     0.81205   0.39027   0.02119   0.00000  Uiso   1.00
C47    C     0.25158   0.49797   0.98269   0.00000  Uiso   1.00
C48    C     0.74836   0.49790   0.01747   0.00000  Uiso   1.00
C49    C     0.36765   0.27900   0.99780   0.00000  Uiso   1.00
C50    C     0.63251   0.71674   0.00174   0.00000  Uiso   1.00
C51    C     0.36770   0.71682   0.99805   0.00000  Uiso   1.00
C52    C     0.63242   0.27901   0.00199   0.00000  Uiso   1.00
C53    C     0.43667   0.38685   0.99672   0.00000  Uiso   1.00
C54    C     0.56345   0.60895   0.00302   0.00000  Uiso   1.00
C55    C     0.43669   0.60897   0.99678   0.00000  Uiso   1.00
C56    C     0.56340   0.38684   0.00309   0.00000  Uiso   1.00
C57    C     0.37574   0.49793   0.99188   0.00000  Uiso   1.00
C58    C     0.62431   0.49789   0.00804   0.00000  Uiso   1.00
H17    H     0.40609   0.19127   0.00678   0.00000  Uiso   1.00
H18    H     0.59411   0.80434   0.99251   0.00000  Uiso   1.00
H19    H     0.40624   0.80448   0.00709   0.00000  Uiso   1.00
H20    H     0.59406   0.19135   0.99283   0.00000  Uiso   1.00
H21    H     0.09083   0.39176   0.97249   0.00000  Uiso   1.00
H22    H     0.90898   0.60414   0.02781   0.00000  Uiso   1.00
H23    H     0.09088   0.60424   0.97260   0.00000  Uiso   1.00
H24    H     0.90896   0.39162   0.02794   0.00000  Uiso   1.00
