# Generated by REPEAT Assigner based on pymatgen
data_DB0-m29_o97_o490_f0_pts.sym.68
_audit_creation_date              2022-05-24
_audit_creation_method            REPEAT_Assigner
_cell_length_a                    17.723464
_cell_length_b                    11.907998
_cell_length_c                    13.246089
_cell_angle_alpha                 91.620160
_cell_angle_beta                  81.854295
_cell_angle_gamma                 105.805756
_cell_volume                      2662.605184
_symmetry_space_group_name_H-M    P1
_symmetry_Int_Tables_number       1
loop_
    _symmetry_equiv_pos_site_id
    _symmetry_equiv_pos_as_xyz
    1  x,y,z
loop_
    _atom_site_type_symbol
    _atom_site_label
    _atom_site_fract_x
    _atom_site_fract_y
    _atom_site_fract_z
    _atom_type_partial_charge
    C   C1   0.242397  0.000556  0.152086  -0.225857
    C   C2   0.112642  0.011816  0.212220  -0.170458
    C   C3   0.301158  0.996130  0.073838  -0.059911
    C   C4   0.284918  0.984549  0.973696  0.025717
    C   C5   0.168293  0.000076  0.132699  0.179786
    C   C6   0.149752  0.987114  0.035007  0.047895
    C   C7   0.206820  0.972915  0.956033  0.034026
    C   C8   0.183070  0.941559  0.862051  -0.090385
    C   C9   0.038641  0.014180  0.195107  -0.150752
    C   C10  0.018423  0.005204  0.096669  0.044915
    C   C11  0.074193  0.987969  0.016861  0.001321
    C   C12  0.054882  0.971435  0.918943  0.044239
    C   C13  0.108649  0.940541  0.843901  -0.133050
    C   C14  0.887282  0.033626  0.152724  -0.206754
    C   C15  0.943470  0.009855  0.076878  0.079577
    C   C16  0.924996  0.996129  0.978101  0.000446
    C   C17  0.981447  0.980666  0.898751  0.079976
    C   C18  0.964429  0.979798  0.799610  -0.206712
    C   C19  0.813145  0.032615  0.133250  -0.013920
    C   C20  0.791612  0.008640  0.037157  -0.025158
    C   C21  0.849963  0.998710  0.958240  0.091467
    C   C22  0.833595  0.992702  0.859007  -0.018768
    C   C23  0.714168  0.999227  0.018103  0.023281
    C   C24  0.699627  0.994562  0.917394  -0.079077
    C   C25  0.891958  0.985884  0.780313  -0.049809
    C   C26  0.759750  0.996327  0.838623  0.178848
    H   H1   0.256465  0.011838  0.229149  0.162272
    H   H2   0.126752  0.019737  0.289318  0.139697
    H   H3   0.220046  0.912160  0.801270  0.123904
    H   H4   0.998733  0.021117  0.262469  0.134364
    H   H5   0.094699  0.910583  0.769679  0.119408
    H   H6   0.898126  0.056194  0.229376  0.143428
    H   H7   0.006891  0.979391  0.733156  0.155206
    H   H8   0.774456  0.056388  0.195335  0.109040
    H   H9   0.883113  0.985239  0.701404  0.080054
    O   O1   0.586467  0.028813  0.087800  -0.557704
    C   C27  0.647333  0.990651  0.101858  0.547704
    O   O2   0.506797  0.751971  0.209510  -0.425360
    O   O3   0.645664  0.937599  0.187849  -0.506626
    O   O4   0.492773  0.896964  0.319525  -0.570880
    C   C28  0.495996  0.788810  0.303301  0.545612
    Fe  Fe1  0.501255  0.005729  0.205521  1.442603
    O   O5   0.398465  0.935962  0.151839  -0.612730
    O   O6   0.430699  0.120254  0.087129  -0.562434
    C   C29  0.380822  0.016115  0.100763  0.779708
    O   O7   0.522975  0.166488  0.264543  -0.562974
    O   O8   0.403231  0.071987  0.348025  -0.537137
    C   C30  0.462928  0.166272  0.335229  0.555720
    O   O9   0.474221  0.820169  0.728713  -0.556733
    O   O10  0.591301  0.913469  0.638805  -0.537376
    C   C31  0.532147  0.819033  0.655338  0.545348
    O   O11  0.601914  0.051443  0.836787  -0.540892
    O   O12  0.568887  0.870633  0.908866  -0.550083
    C   C32  0.619645  0.973462  0.890461  0.692709
    O   O13  0.348982  0.033262  0.799738  -0.493479
    O   O14  0.505226  0.089509  0.671466  -0.567712
    C   C33  0.497014  0.195272  0.688310  0.545847
    O   O15  0.414362  0.961122  0.905599  -0.563884
    C   C34  0.350636  0.990061  0.889097  0.536613
    O   O16  0.482081  0.229545  0.782214  -0.439000
    Fe  Fe2  0.497854  0.981920  0.785973  1.418719
    C   C35  0.479741  0.197438  0.510811  -0.139444
    C   C36  0.492510  0.262701  0.597538  0.042457
    C   C37  0.500314  0.383104  0.591507  0.042943
    C   C38  0.517268  0.456142  0.673336  -0.118140
    C   C39  0.521749  0.572625  0.666806  -0.146273
    C   C40  0.475032  0.246007  0.420604  -0.055002
    C   C41  0.480110  0.363246  0.414627  0.136948
    C   C42  0.492723  0.432324  0.499803  0.003922
    C   C43  0.498507  0.551092  0.492574  0.024477
    C   C44  0.511603  0.620321  0.577633  0.112889
    C   C45  0.517383  0.737823  0.571295  -0.038958
    C   C46  0.469956  0.410798  0.325441  -0.167995
    C   C47  0.474093  0.527074  0.318968  -0.088400
    C   C48  0.491007  0.600234  0.400732  0.023274
    C   C49  0.499264  0.720733  0.394406  0.035163
    C   C50  0.512371  0.786038  0.481093  -0.138410
    H   H10  0.528937  0.426398  0.743777  0.135052
    H   H11  0.534675  0.625375  0.733103  0.167562
    H   H12  0.457199  0.358132  0.259053  0.176624
    H   H13  0.462305  0.556379  0.248483  0.119528
    H   H14  0.473189  0.104680  0.510739  0.179982
    H   H15  0.519286  0.878854  0.481295  0.174805
    N   N1   0.742143  0.989481  0.737506  -0.436174
    C   C51  0.763621  0.093209  0.687631  0.802454
    O   O17  0.776331  0.183780  0.735568  -0.593325
    C   C52  0.772374  0.098182  0.573975  -0.435534
    H   H16  0.749857  0.918840  0.694856  0.247649
    H   H17  0.758044  0.009103  0.541841  0.097021
    H   H18  0.834217  0.145284  0.543744  0.094697
    H   H19  0.731665  0.145606  0.550665  0.146375
