# Generated by REPEAT Assigner based on pymatgen
data_DB0-m3_o146_o22_f0_fsc.sym.53_sqe
_audit_creation_date              2022-05-24
_audit_creation_method            REPEAT_Assigner
_cell_length_a                    15.297276
_cell_length_b                    11.773563
_cell_length_c                    9.091603
_cell_angle_alpha                 90.163777
_cell_angle_beta                  89.992717
_cell_angle_gamma                 90.000000
_cell_volume                      1637.422378
_symmetry_space_group_name_H-M    P1
_symmetry_Int_Tables_number       1
loop_
    _symmetry_equiv_pos_site_id
    _symmetry_equiv_pos_as_xyz
    1  x,y,z
loop_
    _atom_site_type_symbol
    _atom_site_label
    _atom_site_fract_x
    _atom_site_fract_y
    _atom_site_fract_z
    _atom_type_partial_charge
    C   C1   0.300694  0.738391  0.006597  -0.070841
    C   C2   0.075825  0.946598  0.015638  0.064058
    C   C3   0.172913  0.806561  0.130560  -0.179292
    H   H1   0.128364  0.802041  0.222672  0.098822
    C   C4   0.284541  0.812566  0.892331  -0.167814
    H   H2   0.327025  0.814329  0.797358  0.127146
    C   C5   0.245457  0.737367  0.126969  -0.086481
    H   H3   0.256210  0.679022  0.216699  0.103491
    C   C6   0.156930  0.880951  0.017055  0.197069
    C   C7   0.213609  0.885077  0.898822  -0.100964
    H   H4   0.200239  0.940865  0.807327  0.075024
    C   C8   0.302543  0.267822  0.992303  -0.008336
    C   C9   0.076386  0.062309  0.991284  -0.097197
    C   C10  0.173658  0.199668  0.872159  -0.083590
    H   H5   0.128398  0.203884  0.781027  0.076447
    C   C11  0.287044  0.194492  0.107813  -0.178358
    H   H6   0.330186  0.193208  0.201931  0.136113
    C   C12  0.246532  0.268244  0.873066  -0.191416
    H   H7   0.256775  0.325942  0.782463  0.140507
    C   C13  0.158053  0.126576  0.987264  0.187457
    C   C14  0.215734  0.122525  0.103992  -0.120818
    H   H8   0.202800  0.067496  0.196439  0.084957
    C   C15  0.691898  0.740565  0.003261  -0.024129
    C   C16  0.919090  0.946831  0.005847  0.053606
    C   C17  0.800647  0.847537  0.131169  -0.200972
    H   H9   0.829792  0.874175  0.233925  0.117953
    C   C18  0.729774  0.772067  0.871628  -0.193324
    H   H10  0.703015  0.739900  0.770003  0.087248
    C   C19  0.727906  0.778441  0.133475  -0.151056
    H   H11  0.700810  0.753076  0.238105  0.119931
    C   C20  0.838042  0.880816  0.999791  0.234606
    C   C21  0.803779  0.839694  0.867686  -0.118892
    C   C22  0.997072  0.889820  0.025313  -0.267255
    C   C23  0.693649  0.271805  0.995398  -0.038801
    C   C24  0.919502  0.064036  0.991647  -0.073461
    C   C25  0.824876  0.208532  0.878115  -0.055734
    H   H12  0.871484  0.216939  0.789516  0.082066
    C   C26  0.708737  0.196945  0.109208  -0.116416
    H   H13  0.664897  0.193825  0.202356  0.107821
    C   C27  0.751550  0.276326  0.879076  -0.144163
    H   H14  0.742244  0.336594  0.791024  0.099226
    C   C28  0.838538  0.130600  0.988880  0.151581
    C   C29  0.780323  0.125534  0.104893  -0.189875
    H   H15  0.793108  0.070707  0.197218  0.121605
    C   C30  0.998325  0.120420  0.980505  -0.092729
    H   H16  0.996427  0.798612  0.038422  0.117461
    H   H17  0.999059  0.211794  0.969344  0.065758
    O   O1   0.590595  0.618734  0.128293  -0.672526
    O   O2   0.587406  0.627124  0.875453  -0.649093
    C   C31  0.618573  0.660022  0.002847  0.699777
    O   O3   0.591455  0.391745  0.874748  -0.601234
    O   O4   0.588874  0.382425  0.128867  -0.627450
    C   C32  0.619997  0.351007  0.000173  0.655473
    O   O5   0.402717  0.390431  0.871737  -0.659228
    O   O6   0.406290  0.380869  0.125419  -0.641611
    C   C33  0.375120  0.348817  0.997044  0.672678
    O   O7   0.401890  0.616301  0.124889  -0.653633
    O   O8   0.405011  0.626598  0.872098  -0.630454
    C   C34  0.373717  0.658041  0.000399  0.697748
    Zn  Zn1  0.496789  0.506768  0.835775  0.957354
    Zn  Zn2  0.496763  0.501808  0.164619  1.003360
    C   C35  0.477629  0.391964  0.585742  0.049130
    H   H18  0.407973  0.370822  0.604698  0.030210
    H   H19  0.518939  0.327650  0.640857  0.005516
    C   C36  0.493567  0.385943  0.421340  -0.100631
    H   H20  0.556397  0.341633  0.401255  0.078638
    H   H21  0.440024  0.335200  0.372963  0.067308
    H   H22  0.365175  0.558993  0.630057  0.068129
    H   H23  0.360493  0.521604  0.389525  0.025374
    C   C37  0.429903  0.579731  0.582259  -0.153678
    C   C38  0.580865  0.540007  0.580066  -0.335702
    N   N1   0.496840  0.505416  0.641742  0.231055
    H   H24  0.600552  0.624202  0.621937  0.137020
    H   H25  0.631754  0.476483  0.607658  0.113545
    N   N2   0.496366  0.499796  0.358552  -0.026667
    C   C39  0.422825  0.564866  0.417056  0.126935
    C   C40  0.575230  0.553296  0.414765  0.160217
    H   H26  0.634080  0.514604  0.363949  0.025602
    H   H27  0.573970  0.645633  0.391469  0.022568
    H   H28  0.446624  0.669555  0.606360  0.068580
    H   H29  0.422825  0.652174  0.372452  0.019721
    C   C41  0.845513  0.858148  0.719435  0.540015
    C   C42  0.841677  0.981061  0.670855  -0.461288
    C   C43  0.937966  0.811381  0.712051  -0.475635
    H   H30  0.807566  0.809716  0.636689  -0.036284
    H   H31  0.899165  0.029104  0.709866  0.112346
    H   H32  0.780221  0.020013  0.711322  0.086517
    H   H33  0.841781  0.983620  0.548926  0.080324
    H   H34  0.987323  0.877147  0.737845  0.119945
    H   H35  0.950559  0.781148  0.598370  0.081353
    H   H36  0.944297  0.738369  0.788041  0.090633
