# Generated by REPEAT Assigner based on pymatgen
data_DB0-m29_o96_o47_f0_pts.sym.83
_audit_creation_date              2022-05-24
_audit_creation_method            REPEAT_Assigner
_cell_length_a                    17.327633
_cell_length_b                    9.428152
_cell_length_c                    21.278368
_cell_angle_alpha                 92.738030
_cell_angle_beta                  89.934893
_cell_angle_gamma                 112.185652
_cell_volume                      3214.624153
_symmetry_space_group_name_H-M    P1
_symmetry_Int_Tables_number       1
loop_
    _symmetry_equiv_pos_site_id
    _symmetry_equiv_pos_as_xyz
    1  x,y,z
loop_
    _atom_site_type_symbol
    _atom_site_label
    _atom_site_fract_x
    _atom_site_fract_y
    _atom_site_fract_z
    _atom_type_partial_charge
    C   C1   0.235468  0.073901  0.096012  -0.289606
    C   C2   0.205915  0.165574  0.131897  0.128955
    C   C3   0.130067  0.151202  0.107075  0.446767
    N   N1   0.111231  0.055244  0.055558  -0.494918
    C   C4   0.175639  0.008518  0.047692  0.392534
    C   C5   0.081311  0.218231  0.132368  -0.562881
    C   C6   0.993451  0.176547  0.114615  0.384046
    C   C7   0.931446  0.181341  0.154993  -0.183069
    C   C8   0.860967  0.144757  0.119123  0.100164
    C   C9   0.880103  0.115329  0.058233  0.192066
    N   N2   0.961564  0.135620  0.055571  -0.249660
    C   C10  0.819909  0.070273  0.005255  -0.369094
    C   C11  0.828262  0.993147  0.953280  0.325898
    C   C12  0.770665  0.940575  0.904422  0.101522
    C   C13  0.800851  0.863541  0.861226  -0.153668
    C   C14  0.877020  0.870739  0.885917  0.395372
    N   N3   0.893285  0.950658  0.941980  -0.452276
    C   C15  0.929000  0.811839  0.859434  -0.387732
    C   C16  0.012904  0.838323  0.883747  0.183820
    C   C17  0.075552  0.829045  0.845975  0.025863
    C   C18  0.143632  0.858027  0.883191  0.049504
    C   C19  0.121719  0.883894  0.943760  0.175292
    N   N4   0.041162  0.871598  0.944068  -0.194584
    C   C20  0.179542  0.919728  0.997934  -0.319260
    H   H1   0.106007  0.300778  0.170887  0.240060
    H   H2   0.763587  0.092920  0.010875  0.148586
    H   H3   0.913266  0.748165  0.815350  0.209948
    H   H4   0.230854  0.884121  0.991623  0.089928
    H   H5   0.995381  0.131575  0.015528  0.262449
    H   H6   0.006064  0.876554  0.983233  0.243156
    C   C21  0.077038  0.802230  0.782134  -0.108686
    C   C22  0.151280  0.807715  0.756341  -0.145079
    C   C23  0.222238  0.840448  0.794064  0.070872
    C   C24  0.218638  0.865038  0.858721  -0.170880
    C   C25  0.312100  0.064773  0.111522  0.157906
    C   C26  0.354089  0.149748  0.165878  -0.061035
    C   C27  0.321865  0.242271  0.200382  -0.044153
    C   C28  0.247335  0.250555  0.184101  -0.273085
    C   C29  0.929857  0.206480  0.219623  0.181222
    C   C30  0.855190  0.198894  0.245654  -0.257891
    C   C31  0.784101  0.165924  0.208481  0.075445
    C   C32  0.786376  0.137142  0.144207  -0.217997
    C   C33  0.695349  0.956632  0.896318  -0.314441
    C   C34  0.650435  0.893835  0.841428  0.119170
    C   C35  0.681275  0.818873  0.796645  -0.220022
    C   C36  0.756463  0.801831  0.805339  0.067252
    H   H7   0.023077  0.780731  0.752244  0.126005
    H   H8   0.273432  0.892870  0.888394  0.171301
    H   H9   0.355319  0.307613  0.241707  0.126947
    H   H10  0.223586  0.322155  0.212600  0.165974
    H   H11  0.730938  0.106794  0.115076  0.183763
    H   H12  0.671727  0.016933  0.930829  0.169460
    H   H13  0.645073  0.773776  0.753827  0.135972
    H   H14  0.153711  0.789168  0.705997  0.141281
    H   H15  0.852087  0.217787  0.295904  0.137012
    O   O1   0.638985  0.132035  0.204729  -0.627032
    C   C37  0.706243  0.154957  0.238478  0.671535
    O   O2   0.572636  0.838688  0.256771  -0.545021
    O   O3   0.702443  0.162962  0.300076  -0.567562
    O   O4   0.518494  0.956662  0.329809  -0.588564
    C   C38  0.541138  0.842300  0.312658  0.557843
    Fe  Fe1  0.546821  0.107558  0.263484  1.494991
    O   O5   0.440854  0.031616  0.211943  -0.545170
    O   O6   0.492385  0.288615  0.204286  -0.569445
    C   C39  0.433997  0.154170  0.189786  0.606701
    O   O7   0.585757  0.316603  0.307172  -0.618231
    O   O8   0.461227  0.197050  0.352808  -0.570589
    C   C40  0.527826  0.321564  0.346091  0.699191
    C   C41  0.529784  0.468646  0.373325  -0.022434
    C   C42  0.541938  0.587175  0.333830  -0.172567
    C   C43  0.532364  0.720003  0.355638  0.102050
    C   C44  0.514531  0.736650  0.418139  -0.229805
    C   C45  0.506301  0.621574  0.458612  0.237872
    C   C46  0.512380  0.486338  0.436239  0.036350
    C   C47  0.492181  0.642991  0.521645  -0.289545
    C   C48  0.485179  0.530140  0.563293  0.091645
    C   C49  0.488507  0.393342  0.540336  0.233494
    C   C50  0.502627  0.371826  0.477437  -0.253148
    C   C51  0.475137  0.552364  0.627417  -0.048482
    C   C52  0.467700  0.436174  0.667927  -0.216363
    C   C53  0.465167  0.295584  0.643311  0.150755
    C   C54  0.477764  0.276492  0.580080  -0.275357
    H   H16  0.554281  0.571425  0.284729  0.199946
    H   H17  0.508461  0.841268  0.435795  0.169661
    H   H18  0.478358  0.168278  0.561411  0.182895
    H   H19  0.508327  0.265724  0.461917  0.165156
    H   H20  0.486628  0.749229  0.537183  0.186282
    O   O9   0.568783  0.998635  0.784370  -0.638142
    O   O10  0.501850  0.788681  0.839307  -0.599021
    C   C55  0.570460  0.905226  0.827691  0.673419
    O   O11  0.421259  0.706507  0.693408  -0.595758
    O   O12  0.543539  0.825241  0.644416  -0.590293
    C   C56  0.477690  0.700801  0.653206  0.660705
    O   O13  0.408746  0.152754  0.734918  -0.428942
    O   O14  0.370460  0.892165  0.796852  -0.579686
    C   C57  0.300870  0.855221  0.764024  0.575341
    O   O15  0.484274  0.064525  0.668363  -0.545523
    C   C58  0.452823  0.167600  0.683753  0.485682
    O   O16  0.303059  0.839520  0.702515  -0.551163
    Fe  Fe2  0.460323  0.917050  0.735765  1.483796
    C   C59  0.002292  0.231308  0.262585  0.069312
    O   O17  0.032989  0.115665  0.250964  -0.498729
    H   H21  0.982499  0.228052  0.312218  0.066180
    H   H22  0.051648  0.345840  0.257003  0.024038
    H   H23  0.010542  0.044791  0.285263  0.359354
    C   C60  0.784907  0.722142  0.753347  0.209469
    O   O18  0.857049  0.824773  0.727138  -0.567418
    H   H24  0.736163  0.678592  0.715829  0.014847
    H   H25  0.794767  0.620798  0.770239  0.005088
    H   H26  0.837756  0.850915  0.687132  0.375467
    C   C61  0.472588  0.466080  0.738137  0.412958
    O   O19  0.529094  0.410955  0.764059  -0.580274
    H   H27  0.410202  0.409279  0.758613  0.048513
    H   H28  0.494951  0.589037  0.752255  -0.012602
    H   H29  0.582159  0.465822  0.742794  0.320799
    C   C62  0.348546  0.973595  0.069766  0.198272
    O   O20  0.427015  0.985150  0.090289  -0.523099
    H   H30  0.356130  0.019582  0.022205  0.025879
    H   H31  0.306557  0.850903  0.068257  0.044858
    H   H32  0.462292  0.013834  0.052733  0.354126
