# Generated by REPEAT Assigner based on pymatgen
data_DB0-m29_o91_o1470_f0_pts.sym.6
_audit_creation_date              2022-05-24
_audit_creation_method            REPEAT_Assigner
_cell_length_a                    12.215544
_cell_length_b                    19.881191
_cell_length_c                    13.195134
_cell_angle_alpha                 111.002309
_cell_angle_beta                  91.563701
_cell_angle_gamma                 75.110827
_cell_volume                      2883.758185
_symmetry_space_group_name_H-M    P1
_symmetry_Int_Tables_number       1
loop_
    _symmetry_equiv_pos_site_id
    _symmetry_equiv_pos_as_xyz
    1  x,y,z
loop_
    _atom_site_type_symbol
    _atom_site_label
    _atom_site_fract_x
    _atom_site_fract_y
    _atom_site_fract_z
    _atom_type_partial_charge
    C   C1   0.289692  0.980252  0.995225  -0.118514
    C   C2   0.234475  0.978383  0.901969  -0.003648
    C   C3   0.118268  0.984176  0.903053  -0.035022
    C   C4   0.052890  0.983956  0.805377  0.062213
    C   C5   0.956287  0.948503  0.800356  -0.078004
    C   C6   0.231983  0.991740  0.090485  -0.037085
    C   C7   0.116741  0.996834  0.092007  -0.058716
    C   C8   0.060526  0.992895  0.998170  0.075235
    C   C9   0.937784  0.001563  0.001305  -0.025530
    C   C10  0.884798  0.984379  0.905076  0.075977
    C   C11  0.767694  0.997973  0.908546  -0.132144
    C   C12  0.052329  0.002232  0.190658  0.018494
    C   C13  0.935539  0.054326  0.201299  0.033958
    C   C14  0.876395  0.025627  0.100483  -0.012059
    C   C15  0.761001  0.029204  0.102149  0.010207
    C   C16  0.707454  0.020256  0.006536  -0.087465
    H   H1   0.018367  0.042173  0.808975  0.046475
    H   H2   0.906938  0.953823  0.730727  0.045732
    H   H3   0.094347  0.024011  0.266283  0.103399
    H   H4   0.945624  0.109793  0.208967  0.039935
    H   H5   0.378204  0.980100  0.997850  0.150769
    H   H6   0.617942  0.023239  0.004823  0.141039
    H   H7   0.107390  0.950247  0.729295  0.042376
    H   H8   0.992385  0.888357  0.785851  0.055682
    H   H9   0.889038  0.061407  0.276517  0.045780
    O   O1   0.582531  0.051680  0.194053  -0.575621
    C   C17  0.693598  0.033416  0.196266  0.520973
    O   O2   0.629939  0.871172  0.178218  -0.487325
    O   O3   0.740654  0.000430  0.262717  -0.418225
    O   O4   0.573033  0.946752  0.352851  -0.541866
    C   C18  0.628582  0.881662  0.282245  0.612143
    Fe  Fe1  0.497465  0.019701  0.285961  1.458320
    O   O5   0.393667  0.965327  0.189431  -0.606625
    O   O6   0.268003  0.079554  0.257179  -0.531635
    C   C19  0.293635  0.010011  0.189098  0.682668
    O   O7   0.432713  0.117130  0.408315  -0.613381
    O   O8   0.347373  0.045607  0.462530  -0.469729
    C   C20  0.371782  0.109465  0.481889  0.730803
    O   O9   0.557879  0.883162  0.587487  -0.593564
    O   O10  0.652504  0.953385  0.540855  -0.475792
    C   C21  0.623873  0.890473  0.517304  0.707249
    O   O11  0.611905  0.029252  0.806299  -0.630113
    O   O12  0.717577  0.908588  0.751035  -0.557757
    C   C22  0.703895  0.979186  0.811719  0.767336
    O   O13  0.256378  0.015407  0.749035  -0.482019
    O   O14  0.430469  0.056324  0.648180  -0.529447
    C   C23  0.375851  0.121586  0.718889  0.615960
    O   O15  0.412722  0.951378  0.805077  -0.584168
    C   C24  0.301853  0.977862  0.810488  0.579819
    O   O16  0.375867  0.132567  0.823076  -0.489895
    Fe  Fe2  0.501132  0.980676  0.712058  1.451665
    C   C25  0.972627  0.616927  0.394951  0.268185
    N   N1   0.858477  0.636644  0.402973  -0.044952
    C   C26  0.799057  0.603897  0.446171  0.254604
    C   C27  0.854948  0.549129  0.486323  0.173370
    C   C28  0.973241  0.527807  0.478442  -0.175848
    C   C29  0.032990  0.560974  0.431020  0.152718
    C   C30  0.796131  0.515330  0.534763  -0.065753
    C   C31  0.855182  0.462085  0.573651  0.042612
    C   C32  0.971954  0.440999  0.565759  -0.088448
    C   C33  0.031559  0.473525  0.518134  0.083398
    C   C34  0.149232  0.451148  0.510434  0.014492
    C   C35  0.208564  0.484058  0.461488  0.035761
    C   C36  0.151530  0.537885  0.422459  -0.049315
    C   C37  0.028879  0.386334  0.604020  0.408638
    N   N2   0.142880  0.364555  0.595486  -0.114838
    C   C38  0.203728  0.395850  0.550710  0.350111
    O   O17  0.025852  0.654608  0.355626  -0.381781
    O   O18  0.685315  0.625250  0.448782  -0.396525
    H   H10  0.806991  0.437247  0.610667  0.080432
    O   O19  0.970579  0.352758  0.646725  -0.442658
    O   O20  0.317401  0.372741  0.546816  -0.419667
    C   C39  0.258953  0.237514  0.547621  -0.161488
    H   H11  0.259309  0.232998  0.463510  0.187490
    C   C40  0.313431  0.176440  0.573460  -0.043094
    C   C41  0.312888  0.182179  0.682445  0.002689
    C   C42  0.253306  0.249040  0.761050  -0.115228
    H   H12  0.250376  0.255711  0.845935  0.136691
    C   C43  0.196766  0.308899  0.733210  -0.121222
    H   H13  0.151175  0.360464  0.795859  0.131159
    C   C44  0.200410  0.303412  0.626276  0.178761
    C   C45  0.737083  0.762486  0.451068  -0.221025
    H   H14  0.734149  0.766195  0.534755  0.208793
    C   C46  0.683499  0.824010  0.425910  -0.003085
    C   C47  0.689003  0.820123  0.317999  -0.030923
    C   C48  0.750514  0.753990  0.239347  -0.058528
    H   H15  0.756769  0.748532  0.155122  0.132681
    C   C49  0.805694  0.693537  0.266408  -0.159521
    H   H16  0.853672  0.642801  0.203790  0.133468
    C   C50  0.798995  0.697634  0.372588  0.209004
    Cl  Cl1  0.647386  0.536026  0.552511  0.039284
    Cl  Cl2  0.357445  0.461251  0.442692  0.037660
    Cl  Cl3  0.239785  0.571654  0.360467  0.044622
    Cl  Cl4  0.039368  0.912148  0.175998  -0.111584
