# Generated by REPEAT Assigner based on pymatgen
data_DB0-m9_o10_o29_f0_sra.sym.3
_audit_creation_date              2022-05-24
_audit_creation_method            REPEAT_Assigner
_cell_length_a                    27.064880
_cell_length_b                    6.170574
_cell_length_c                    16.627097
_cell_angle_alpha                 90.000000
_cell_angle_beta                  97.604029
_cell_angle_gamma                 90.000000
_cell_volume                      2752.403729
_symmetry_space_group_name_H-M    P1
_symmetry_Int_Tables_number       1
loop_
    _symmetry_equiv_pos_site_id
    _symmetry_equiv_pos_as_xyz
    1  x,y,z
loop_
    _atom_site_type_symbol
    _atom_site_label
    _atom_site_fract_x
    _atom_site_fract_y
    _atom_site_fract_z
    _atom_type_partial_charge
    O  O1   0.006685  0.478077  0.853791  -0.511816
    O  O2   0.993315  0.521923  0.146209  -0.511802
    O  O3   0.993315  0.978078  0.646209  -0.511810
    O  O4   0.006685  0.021923  0.353791  -0.511822
    O  O5   0.920581  0.845750  0.734812  -0.496821
    O  O6   0.079419  0.154250  0.265187  -0.496802
    O  O7   0.079419  0.345750  0.765187  -0.496813
    O  O8   0.920581  0.654250  0.234813  -0.496819
    C  C1   0.907908  0.649431  0.707763  0.582550
    C  C2   0.092092  0.350569  0.292237  0.582538
    C  C3   0.092092  0.149431  0.792237  0.582573
    C  C4   0.907908  0.850569  0.207763  0.582563
    O  O9   0.985909  0.845156  0.875211  -0.512410
    O  O10  0.014091  0.154844  0.124789  -0.512385
    O  O11  0.014091  0.345156  0.624789  -0.512398
    O  O12  0.985909  0.654844  0.375211  -0.512402
    O  O13  0.062595  0.977896  0.794477  -0.525062
    O  O14  0.937405  0.022104  0.205523  -0.525066
    O  O15  0.937405  0.477896  0.705522  -0.525052
    O  O16  0.062595  0.522104  0.294477  -0.525050
    C  C5   0.997320  0.645374  0.899617  0.636435
    C  C6   0.002679  0.354626  0.100383  0.636394
    C  C7   0.002679  0.145374  0.600383  0.636421
    C  C8   0.997320  0.854626  0.399617  0.636428
    O  O17  0.023723  0.702140  0.720769  -0.358643
    O  O18  0.976277  0.297860  0.279231  -0.358610
    O  O19  0.976277  0.202141  0.779231  -0.358649
    O  O20  0.023723  0.797860  0.220769  -0.358603
    V  V1   0.990114  0.943538  0.763357  1.273273
    V  V2   0.009886  0.056462  0.236643  1.272961
    V  V3   0.009886  0.443538  0.736643  1.273309
    V  V4   0.990114  0.556462  0.263357  1.273107
    C  C9   0.004153  0.099899  0.514349  -0.207708
    C  C10  0.995847  0.900102  0.485651  -0.207718
    C  C11  0.995847  0.599899  0.985651  -0.207716
    C  C12  0.004153  0.400102  0.014349  -0.207702
    H  H1   0.012321  0.229183  0.473981  0.156064
    H  H2   0.987679  0.770817  0.526019  0.156064
    H  H3   0.987679  0.729183  0.026019  0.156062
    H  H4   0.012321  0.270817  0.973981  0.156064
    C  C13  0.684732  0.091212  0.048727  0.506065
    C  C14  0.315268  0.908788  0.951273  0.506063
    C  C15  0.315268  0.591212  0.451273  0.506322
    C  C16  0.684732  0.408788  0.548727  0.506336
    O  O21  0.717106  0.211362  0.013223  -0.523944
    O  O22  0.282894  0.788638  0.986777  -0.523947
    O  O23  0.282894  0.711362  0.486777  -0.523668
    O  O24  0.717106  0.288638  0.513223  -0.523669
    N  N1   0.701491  0.952207  0.108719  -0.213953
    N  N2   0.298509  0.047793  0.891281  -0.213954
    N  N3   0.298509  0.452207  0.391281  -0.213973
    N  N4   0.701491  0.547793  0.608719  -0.213974
    C  C17  0.669053  0.828747  0.143400  0.468022
    C  C18  0.330947  0.171253  0.856600  0.468009
    C  C19  0.330947  0.328747  0.356600  0.468264
    C  C20  0.669053  0.671253  0.643400  0.468271
    C  C21  0.772672  0.733287  0.162872  -0.210797
    C  C22  0.227328  0.266713  0.837127  -0.210787
    C  C23  0.227328  0.233287  0.337127  -0.210728
    C  C24  0.772672  0.766713  0.662872  -0.210746
    C  C25  0.823022  0.709710  0.186740  -0.072949
    C  C26  0.176978  0.290290  0.813260  -0.072948
    C  C27  0.176978  0.209710  0.313260  -0.072975
    C  C28  0.823022  0.790290  0.686740  -0.072975
    C  C29  0.836114  0.079762  0.153763  -0.050401
    C  C30  0.163886  0.920239  0.846237  -0.050400
    C  C31  0.163886  0.579762  0.346237  -0.050421
    C  C32  0.836114  0.420239  0.653763  -0.050433
    C  C33  0.785580  0.103530  0.129371  -0.224674
    C  C34  0.214420  0.896470  0.870629  -0.224675
    C  C35  0.214420  0.603530  0.370629  -0.224620
    C  C36  0.785580  0.396470  0.629371  -0.224611
    C  C37  0.753673  0.930276  0.134218  0.293177
    C  C38  0.246327  0.069724  0.865782  0.293169
    C  C39  0.246327  0.430276  0.365782  0.293058
    C  C40  0.753673  0.569724  0.634218  0.293063
    C  C41  0.600953  0.978884  0.055350  0.126344
    C  C42  0.399046  0.021116  0.944649  0.126324
    C  C43  0.399046  0.478884  0.444649  0.126315
    C  C44  0.600953  0.521116  0.555350  0.126333
    C  C45  0.634414  0.105758  0.021489  -0.114107
    C  C46  0.365586  0.894242  0.978510  -0.114072
    C  C47  0.365586  0.605758  0.478510  -0.113919
    C  C48  0.634414  0.394242  0.521489  -0.113959
    C  C49  0.617771  0.245288  0.959619  -0.071200
    C  C50  0.382229  0.754712  0.040381  -0.071249
    C  C51  0.382229  0.745288  0.540381  -0.070954
    C  C52  0.617771  0.254712  0.459619  -0.070902
    C  C53  0.618672  0.840421  0.117023  -0.273777
    C  C54  0.381327  0.159579  0.882976  -0.273751
    C  C55  0.381327  0.340421  0.382976  -0.273586
    C  C56  0.618672  0.659579  0.617023  -0.273606
    C  C57  0.854771  0.882379  0.182390  -0.056184
    C  C58  0.145229  0.117621  0.817610  -0.056183
    C  C59  0.145229  0.382379  0.317610  -0.056145
    C  C60  0.854771  0.617621  0.682390  -0.056137
    H  H5   0.860966  0.215639  0.150388  0.092176
    H  H6   0.139033  0.784361  0.849612  0.092173
    H  H7   0.139033  0.715639  0.349612  0.092175
    H  H8   0.860966  0.284361  0.650388  0.092180
    H  H9   0.771176  0.259522  0.108205  0.184169
    H  H10  0.228824  0.740479  0.891795  0.184174
    H  H11  0.228824  0.759522  0.391795  0.184161
    H  H12  0.771176  0.240479  0.608205  0.184154
    H  H13  0.644057  0.345061  0.932764  0.116815
    H  H14  0.355943  0.654939  0.067236  0.116821
    H  H15  0.355943  0.845061  0.567236  0.116796
    H  H16  0.644057  0.154939  0.432764  0.116789
    C  C61  0.482622  0.140229  0.937031  0.067614
    C  C62  0.517378  0.859771  0.062969  0.067656
    C  C63  0.517378  0.640229  0.562969  0.067853
    C  C64  0.482622  0.359771  0.437031  0.067818
    C  C65  0.466602  0.869934  0.034972  0.058197
    C  C66  0.533398  0.130066  0.965028  0.058245
    C  C67  0.533398  0.369934  0.465028  0.058464
    C  C68  0.466602  0.630066  0.534972  0.058420
    C  C69  0.449584  0.010236  0.972253  -0.041410
    C  C70  0.550415  0.989764  0.027747  -0.041438
    C  C71  0.550415  0.510236  0.527747  -0.041414
    C  C72  0.449584  0.489764  0.472253  -0.041391
    C  C73  0.464091  0.278329  0.874128  -0.306575
    C  C74  0.535909  0.721671  0.125872  -0.306599
    C  C75  0.535909  0.778329  0.625872  -0.306124
    C  C76  0.464091  0.221671  0.374128  -0.306107
    C  C77  0.413816  0.287344  0.847519  0.309087
    C  C78  0.586184  0.712656  0.152481  0.309113
    C  C79  0.586184  0.787344  0.652481  0.309293
    C  C80  0.413816  0.212656  0.347519  0.309269
    O  O25  0.314455  0.303852  0.794818  -0.458871
    O  O26  0.685545  0.696148  0.205182  -0.458877
    O  O27  0.685545  0.803852  0.705182  -0.458578
    O  O28  0.314455  0.196148  0.294818  -0.458578
    C  C81  0.567714  0.257986  0.931454  -0.121216
    C  C82  0.432286  0.742014  0.068546  -0.121170
    C  C83  0.432286  0.757986  0.568546  -0.120917
    C  C84  0.567714  0.242014  0.431454  -0.120961
    H  H17  0.162235  0.445505  0.791565  0.118932
    H  H18  0.837764  0.554495  0.208435  0.118939
    H  H19  0.837764  0.945505  0.708435  0.118943
    H  H20  0.162235  0.054495  0.291565  0.118934
    H  H21  0.251375  0.405780  0.835606  0.146217
    H  H22  0.748625  0.594220  0.164394  0.146220
    H  H23  0.748625  0.905780  0.664394  0.146215
    H  H24  0.251375  0.094220  0.335606  0.146209
    H  H25  0.487516  0.382614  0.843973  0.150155
    H  H26  0.512484  0.617386  0.156027  0.150159
    H  H27  0.512484  0.882614  0.656027  0.150130
    H  H28  0.487516  0.117386  0.343973  0.150128
    H  H29  0.557125  0.370270  0.882942  0.105692
    H  H30  0.442875  0.629730  0.117058  0.105683
    H  H31  0.442875  0.870270  0.617058  0.105683
    H  H32  0.557125  0.129730  0.382942  0.105690
    C  C85  0.394627  0.436732  0.780492  -0.355685
    H  H33  0.426212  0.526144  0.759898  0.039907
    H  H34  0.375093  0.341944  0.729194  0.144173
    H  H35  0.368272  0.553582  0.802377  0.131684
    C  C86  0.605373  0.563268  0.219508  -0.355711
    H  H36  0.573788  0.473856  0.240102  0.039915
    H  H37  0.631728  0.446418  0.197623  0.131691
    H  H38  0.624907  0.658056  0.270806  0.144177
    C  C87  0.605373  0.936732  0.719508  -0.355678
    H  H39  0.573788  0.026144  0.740102  0.039901
    H  H40  0.624907  0.841944  0.770806  0.144194
    H  H41  0.631728  0.053582  0.697623  0.131691
    C  C88  0.394627  0.063268  0.280492  -0.355652
    H  H42  0.426212  0.973857  0.259898  0.039893
    H  H43  0.368272  0.946419  0.302377  0.131683
    H  H44  0.375093  0.158056  0.229194  0.144190
