data_DB0-m3_o92_o148_f0_fsc_repeat
_audit_creation_date              2024-02-23
_audit_creation_method            'Materials Studio'
_symmetry_space_group_name_H-M    'P1'
_symmetry_Int_Tables_number       1
_symmetry_cell_setting            triclinic
loop_
_symmetry_equiv_pos_as_xyz
  x,y,z
_cell_length_a                    13.2483
_cell_length_b                    16.4376
_cell_length_c                    17.4825
_cell_angle_alpha                 94.6122
_cell_angle_beta                  90.6054
_cell_angle_gamma                 90.0463
loop_
_atom_site_label
_atom_site_type_symbol
_atom_site_fract_x
_atom_site_fract_y
_atom_site_fract_z
_atom_site_U_iso_or_equiv
_atom_site_adp_type
_atom_site_occupancy
O1     O     0.12269   0.08465   0.94657   0.00000  Uiso   1.00
O2     O     0.87731   0.91536   0.05344   0.00000  Uiso   1.00
O3     O     0.07655   0.10073   0.07146   0.00000  Uiso   1.00
O4     O     0.92345   0.89927   0.92854   0.00000  Uiso   1.00
C1     C     0.13207   0.12365   0.01502   0.00000  Uiso   1.00
C2     C     0.86794   0.87635   0.98499   0.00000  Uiso   1.00
O5     O     0.87228   0.09097   0.05015   0.00000  Uiso   1.00
O6     O     0.12772   0.90903   0.94985   0.00000  Uiso   1.00
O7     O     0.91811   0.07683   0.92490   0.00000  Uiso   1.00
O8     O     0.08189   0.92317   0.07510   0.00000  Uiso   1.00
C3     C     0.86193   0.11156   0.97943   0.00000  Uiso   1.00
C4     C     0.13807   0.88844   0.02058   0.00000  Uiso   1.00
Zn1    Zn    0.97441   0.00941   0.08243   0.00000  Uiso   1.00
Zn2    Zn    0.02559   0.99059   0.91757   0.00000  Uiso   1.00
C5     C     0.05891   0.02623   0.22090   0.00000  Uiso   1.00
C6     C     0.94109   0.97378   0.77910   0.00000  Uiso   1.00
N1     N     0.96882   0.01739   0.18460   0.00000  Uiso   1.00
N2     N     0.03118   0.98261   0.81540   0.00000  Uiso   1.00
C7     C     0.88491   0.00680   0.22554   0.00000  Uiso   1.00
C8     C     0.11509   0.99320   0.77446   0.00000  Uiso   1.00
C9     C     0.98318   0.01158   0.34222   0.00000  Uiso   1.00
C10    C     0.01682   0.98842   0.65779   0.00000  Uiso   1.00
C11    C     0.06702   0.02360   0.29931   0.00000  Uiso   1.00
C12    C     0.93298   0.97640   0.70070   0.00000  Uiso   1.00
C13    C     0.15989   0.03132   0.33418   0.00000  Uiso   1.00
C14    C     0.84011   0.96868   0.66582   0.00000  Uiso   1.00
C15    C     0.89138   0.00387   0.30464   0.00000  Uiso   1.00
C16    C     0.10862   0.99614   0.69536   0.00000  Uiso   1.00
H1     H     0.22638   0.04085   0.30070   0.00000  Uiso   1.00
H2     H     0.77362   0.95915   0.69930   0.00000  Uiso   1.00
C17    C     0.09457   0.00708   0.53668   0.00000  Uiso   1.00
C18    C     0.90543   0.99292   0.46332   0.00000  Uiso   1.00
C19    C     0.91402   0.98674   0.54287   0.00000  Uiso   1.00
C20    C     0.08598   0.01327   0.45713   0.00000  Uiso   1.00
C21    C     0.00848   0.99391   0.57875   0.00000  Uiso   1.00
C22    C     0.99152   0.00609   0.42125   0.00000  Uiso   1.00
C23    C     0.18722   0.01372   0.57593   0.00000  Uiso   1.00
C24    C     0.81278   0.98628   0.42407   0.00000  Uiso   1.00
C25    C     0.19363   0.00847   0.65398   0.00000  Uiso   1.00
C26    C     0.80637   0.99153   0.34603   0.00000  Uiso   1.00
C27    C     0.16972   0.02649   0.41187   0.00000  Uiso   1.00
C28    C     0.83028   0.97351   0.58813   0.00000  Uiso   1.00
H3     H     0.26636   0.01463   0.68248   0.00000  Uiso   1.00
H4     H     0.73364   0.98537   0.31752   0.00000  Uiso   1.00
H5     H     0.25802   0.02351   0.54890   0.00000  Uiso   1.00
H6     H     0.74198   0.97649   0.45110   0.00000  Uiso   1.00
H7     H     0.24552   0.03324   0.43364   0.00000  Uiso   1.00
H8     H     0.75449   0.96676   0.56636   0.00000  Uiso   1.00
H9     H     0.81292   0.99828   0.19632   0.00000  Uiso   1.00
H10    H     0.18708   0.00172   0.80368   0.00000  Uiso   1.00
H11    H     0.12677   0.03272   0.18833   0.00000  Uiso   1.00
H12    H     0.87323   0.96729   0.81167   0.00000  Uiso   1.00
C29    C     0.68284   0.28581   0.97174   0.00000  Uiso   1.00
C30    C     0.31716   0.71419   0.02826   0.00000  Uiso   1.00
C31    C     0.74434   0.34081   0.94129   0.00000  Uiso   1.00
C32    C     0.25566   0.65919   0.05871   0.00000  Uiso   1.00
C33    C     0.69345   0.41398   0.94325   0.00000  Uiso   1.00
C34    C     0.30655   0.58603   0.05675   0.00000  Uiso   1.00
N3     N     0.59993   0.40445   0.97148   0.00000  Uiso   1.00
N4     N     0.40007   0.59555   0.02852   0.00000  Uiso   1.00
C35    C     0.59267   0.32543   0.98805   0.00000  Uiso   1.00
C36    C     0.40733   0.67457   0.01195   0.00000  Uiso   1.00
C37    C     0.73486   0.48449   0.92547   0.00000  Uiso   1.00
C38    C     0.26514   0.51551   0.07453   0.00000  Uiso   1.00
C39    C     0.69161   0.56653   0.94282   0.00000  Uiso   1.00
C40    C     0.30839   0.43347   0.05718   0.00000  Uiso   1.00
C41    C     0.74722   0.63792   0.95129   0.00000  Uiso   1.00
C42    C     0.25278   0.36208   0.04871   0.00000  Uiso   1.00
C43    C     0.68248   0.70039   0.97067   0.00000  Uiso   1.00
C44    C     0.31752   0.29961   0.02933   0.00000  Uiso   1.00
C45    C     0.58669   0.66555   0.97260   0.00000  Uiso   1.00
C46    C     0.41331   0.33445   0.02740   0.00000  Uiso   1.00
N5     N     0.59344   0.58402   0.95452   0.00000  Uiso   1.00
N6     N     0.40656   0.41598   0.04548   0.00000  Uiso   1.00
C47    C     0.49105   0.70973   0.98720   0.00000  Uiso   1.00
C48    C     0.50895   0.29027   0.01280   0.00000  Uiso   1.00
H13    H     0.81138   0.48289   0.90495   0.00000  Uiso   1.00
H14    H     0.18863   0.51711   0.09505   0.00000  Uiso   1.00
H15    H     0.49072   0.77471   0.98094   0.00000  Uiso   1.00
H16    H     0.50928   0.22530   0.01906   0.00000  Uiso   1.00
H17    H     0.53419   0.54277   0.94541   0.00000  Uiso   1.00
H18    H     0.46581   0.45724   0.05459   0.00000  Uiso   1.00
C49    C     0.15138   0.34911   0.05751   0.00000  Uiso   1.00
C50    C     0.84862   0.65089   0.94249   0.00000  Uiso   1.00
C51    C     0.11585   0.27003   0.04683   0.00000  Uiso   1.00
C52    C     0.88415   0.72998   0.95317   0.00000  Uiso   1.00
C53    C     0.17944   0.20526   0.02482   0.00000  Uiso   1.00
C54    C     0.82056   0.79474   0.97518   0.00000  Uiso   1.00
C55    C     0.28257   0.21974   0.01543   0.00000  Uiso   1.00
C56    C     0.71743   0.78026   0.98457   0.00000  Uiso   1.00
C57    C     0.71666   0.20880   0.98568   0.00000  Uiso   1.00
C58    C     0.28335   0.79120   0.01432   0.00000  Uiso   1.00
C59    C     0.81443   0.18851   0.96394   0.00000  Uiso   1.00
C60    C     0.18557   0.81150   0.03606   0.00000  Uiso   1.00
C61    C     0.87382   0.24338   0.92789   0.00000  Uiso   1.00
C62    C     0.12618   0.75662   0.07211   0.00000  Uiso   1.00
C63    C     0.84020   0.32089   0.91770   0.00000  Uiso   1.00
C64    C     0.15980   0.67911   0.08231   0.00000  Uiso   1.00
H19    H     0.09995   0.39837   0.07337   0.00000  Uiso   1.00
H20    H     0.90005   0.60163   0.92663   0.00000  Uiso   1.00
H21    H     0.33346   0.17007   0.99938   0.00000  Uiso   1.00
H22    H     0.66655   0.82993   0.00062   0.00000  Uiso   1.00
H23    H     0.67029   0.16616   0.01358   0.00000  Uiso   1.00
H24    H     0.32971   0.83384   0.98642   0.00000  Uiso   1.00
H25    H     0.95002   0.22721   0.91128   0.00000  Uiso   1.00
H26    H     0.04998   0.77279   0.08872   0.00000  Uiso   1.00
H27    H     0.88949   0.36351   0.89257   0.00000  Uiso   1.00
H28    H     0.11051   0.63649   0.10743   0.00000  Uiso   1.00
H29    H     0.03638   0.25868   0.05448   0.00000  Uiso   1.00
H30    H     0.96362   0.74132   0.94552   0.00000  Uiso   1.00
