# Generated by REPEAT Assigner based on pymatgen
data_DB0-m3_o160_o146_f0_fsc.sym.76
_audit_creation_date              2022-05-24
_audit_creation_method            REPEAT_Assigner
_cell_length_a                    13.422053
_cell_length_b                    15.386155
_cell_length_c                    11.727002
_cell_angle_alpha                 90.000000
_cell_angle_beta                  90.145864
_cell_angle_gamma                 90.000000
_cell_volume                      2421.779712
_symmetry_space_group_name_H-M    P1
_symmetry_Int_Tables_number       1
loop_
    _symmetry_equiv_pos_site_id
    _symmetry_equiv_pos_as_xyz
    1  x,y,z
loop_
    _atom_site_type_symbol
    _atom_site_label
    _atom_site_fract_x
    _atom_site_fract_y
    _atom_site_fract_z
    _atom_type_partial_charge
    C   C1   0.994958  0.306478  0.734932  -0.273584
    C   C2   0.994037  0.699002  0.724115  -0.287422
    C   C3   0.005168  0.078056  0.937319  0.022462
    C   C4   0.005769  0.922048  0.934787  0.087069
    C   C5   0.082620  0.181369  0.805250  -0.278509
    C   C6   0.083022  0.788601  0.857467  -0.291129
    H   H1   0.147895  0.140225  0.803767  0.119850
    H   H2   0.150516  0.802929  0.904321  0.122894
    C   C7   0.914930  0.286169  0.805091  0.435126
    C   C8   0.912119  0.754164  0.732301  0.434163
    C   C9   0.079144  0.254438  0.737697  -0.035991
    C   C10  0.079310  0.717253  0.786377  -0.049022
    H   H3   0.142330  0.268237  0.683761  0.121376
    H   H4   0.144109  0.675859  0.780045  0.129463
    C   C11  0.002942  0.159847  0.873106  0.335018
    C   C12  0.001501  0.842515  0.866723  0.271769
    C   C13  0.919295  0.212181  0.873109  -0.442605
    C   C14  0.916560  0.825080  0.804886  -0.382137
    H   H5   0.855638  0.192076  0.922812  0.201882
    H   H6   0.853001  0.867207  0.816469  0.159160
    C   C15  0.993457  0.300264  0.263688  -0.257220
    C   C16  0.999292  0.690216  0.252629  -0.234551
    C   C17  0.006730  0.076615  0.055229  -0.197098
    C   C18  0.008727  0.920121  0.052987  -0.218943
    C   C19  0.916096  0.174537  0.182154  -0.342162
    C   C20  0.925084  0.784725  0.113511  -0.344648
    H   H7   0.855490  0.128560  0.177100  0.164909
    H   H8   0.864380  0.802587  0.057615  0.168931
    C   C21  0.078354  0.282904  0.200810  -0.098073
    C   C22  0.084217  0.741362  0.250108  -0.095207
    H   H9   0.143117  0.324334  0.207525  0.138296
    H   H10  0.147189  0.726793  0.304405  0.129357
    C   C23  0.910778  0.246272  0.253018  0.475924
    C   C24  0.919115  0.711768  0.183055  0.403999
    C   C25  0.001322  0.156996  0.121300  0.352686
    C   C26  0.008529  0.837158  0.115168  0.333400
    C   C27  0.082093  0.211840  0.129382  -0.263362
    C   C28  0.088302  0.814790  0.183101  -0.244386
    H   H11  0.149517  0.197746  0.082666  0.119275
    H   H12  0.153783  0.855671  0.185511  0.126452
    C   C29  0.004944  0.000694  0.878122  -0.281718
    C   C30  0.008896  0.998105  0.112932  0.338545
    H   H13  0.002796  0.001610  0.785964  0.147704
    O   O1   0.079597  0.594857  0.608089  -0.674588
    O   O2   0.078490  0.407205  0.614476  -0.696970
    O   O3   0.908425  0.592974  0.610621  -0.631742
    O   O4   0.907336  0.411362  0.618271  -0.652487
    C   C31  0.993901  0.624694  0.645002  0.786462
    C   C32  0.992934  0.380175  0.654540  0.795570
    O   O5   0.909034  0.590516  0.373807  -0.617180
    O   O6   0.907992  0.402995  0.381588  -0.599456
    O   O7   0.080841  0.586809  0.371454  -0.666734
    O   O8   0.079602  0.405401  0.377760  -0.637868
    C   C33  0.995520  0.617325  0.334096  0.764427
    C   C34  0.993538  0.373688  0.343927  0.726993
    Zn  Zn1  0.882909  0.499484  0.493924  0.949328
    Zn  Zn2  0.104883  0.498506  0.495279  1.020665
    C   C35  0.288434  0.485838  0.400183  -0.319506
    N   N1   0.235576  0.497845  0.496248  0.116139
    C   C36  0.282699  0.509674  0.596372  -0.130775
    C   C37  0.385154  0.510574  0.602402  -0.082093
    C   C38  0.441706  0.498133  0.504711  -0.286101
    C   C39  0.391298  0.484799  0.403156  0.740339
    C   C40  0.603461  0.511846  0.601337  -0.233434
    C   C41  0.546019  0.498432  0.504386  0.321415
    C   C42  0.595263  0.484337  0.402773  -0.223488
    C   C43  0.541595  0.468668  0.304531  0.406167
    N   N2   0.441568  0.469885  0.306110  -0.709306
    C   C44  0.705822  0.511564  0.594454  0.087564
    N   N3   0.752166  0.499998  0.494018  -0.054931
    C   C45  0.698376  0.485493  0.398811  0.045120
    H   H14  0.240304  0.518304  0.673711  0.156516
    H   H15  0.735986  0.474919  0.318655  0.119642
    H   H16  0.579633  0.455016  0.225531  0.044755
    H   H17  0.416975  0.520653  0.685575  0.124389
    H   H18  0.572433  0.522687  0.684548  0.134587
    H   H19  0.250569  0.476286  0.319745  0.190860
    H   H20  0.748638  0.520771  0.671574  0.110454
    O   O9   0.014306  0.998982  0.227778  -0.416715
    C   C46  0.939029  0.971170  0.294603  0.744605
    O   O10  0.858516  0.952424  0.252962  -0.516972
    C   C47  0.953633  0.966119  0.420272  -0.505055
    H   H21  0.030132  0.987791  0.442140  0.105835
    H   H22  0.943239  0.898022  0.448755  0.203546
    H   H23  0.898689  0.008695  0.463327  0.158121
    O   O11  0.832320  0.336185  0.803412  -0.384952
    C   C48  0.776382  0.352286  0.896702  0.760926
    O   O12  0.812199  0.346121  0.992045  -0.510779
    C   C49  0.672348  0.384158  0.882906  -0.448341
    H   H24  0.652535  0.384953  0.791141  0.084244
    H   H25  0.666129  0.450711  0.918471  0.140190
    H   H26  0.620789  0.340130  0.928844  0.150711
    O   O13  0.828607  0.737520  0.671414  -0.387657
    C   C50  0.766757  0.799000  0.628884  0.813249
    O   O14  0.795239  0.873531  0.615261  -0.537371
    C   C51  0.665493  0.773810  0.588731  -0.584156
    H   H27  0.653187  0.703782  0.605489  0.117738
    H   H28  0.659020  0.786534  0.495924  0.198435
    H   H29  0.608776  0.812472  0.634999  0.163065
    O   O15  0.829733  0.259449  0.318986  -0.402827
    C   C52  0.735413  0.238067  0.289478  0.793586
    O   O16  0.711624  0.230057  0.189581  -0.547630
    C   C53  0.657791  0.231299  0.379528  -0.546930
    H   H30  0.691902  0.244208  0.464078  0.132137
    H   H31  0.625463  0.164970  0.378713  0.166463
    H   H32  0.598128  0.279487  0.362838  0.151669
    O   O17  0.838697  0.659262  0.178310  -0.422351
    C   C54  0.746029  0.688220  0.154145  0.779332
    O   O18  0.719280  0.760209  0.185102  -0.502666
    C   C55  0.674402  0.630206  0.094251  -0.546282
    H   H33  0.668070  0.568411  0.141681  0.152701
    H   H34  0.702013  0.616633  0.007004  0.147741
    H   H35  0.600522  0.662258  0.089084  0.149714
