# Generated by REPEAT Assigner based on pymatgen
data_DB0-m3_o2_o18_f0_pcu.sym.42_sqe
_audit_creation_date              2022-05-24
_audit_creation_method            REPEAT_Assigner
_cell_length_a                    14.026562
_cell_length_b                    15.203261
_cell_length_c                    16.014244
_cell_angle_alpha                 89.996238
_cell_angle_beta                  72.500153
_cell_angle_gamma                 90.004859
_cell_volume                      3256.973955
_symmetry_space_group_name_H-M    P1
_symmetry_Int_Tables_number       1
loop_
    _symmetry_equiv_pos_site_id
    _symmetry_equiv_pos_as_xyz
    1  x,y,z
loop_
    _atom_site_type_symbol
    _atom_site_label
    _atom_site_fract_x
    _atom_site_fract_y
    _atom_site_fract_z
    _atom_type_partial_charge
    O   O1   0.423766  0.651459  0.480554  -0.679217
    O   O2   0.589702  0.389598  0.480963  -0.702628
    O   O3   0.588633  0.651696  0.479273  -0.706348
    O   O4   0.425243  0.389388  0.481283  -0.665884
    C   C1   0.506214  0.692727  0.479721  0.748625
    C   C2   0.507467  0.348327  0.481240  0.733522
    O   O5   0.379383  0.520826  0.611337  -0.684534
    O   O6   0.634127  0.519713  0.349680  -0.673207
    O   O7   0.543891  0.521252  0.610558  -0.654839
    O   O8   0.469483  0.520033  0.350446  -0.684900
    C   C3   0.447773  0.521244  0.652104  0.763096
    C   C4   0.565651  0.519656  0.308937  0.780090
    Zn  Zn1  0.398243  0.520264  0.480826  1.060211
    Zn  Zn2  0.615305  0.520798  0.480197  1.084866
    C   C5   0.415283  0.520842  0.748349  -0.105351
    C   C6   0.598023  0.517319  0.212728  -0.110911
    C   C7   0.284900  0.521307  0.883436  -0.281817
    C   C8   0.727928  0.508194  0.077743  -0.199233
    C   C9   0.314889  0.521542  0.793648  -0.049924
    C   C10  0.698193  0.511664  0.167460  -0.102418
    C   C11  0.485125  0.519419  0.793882  -0.166133
    C   C12  0.528156  0.519707  0.167240  -0.135683
    C   C13  0.455703  0.517731  0.885451  0.039236
    C   C14  0.557234  0.515435  0.075762  0.049625
    C   C15  0.354295  0.519569  0.928838  0.291884
    C   C16  0.658460  0.510018  0.032415  0.203297
    C   C17  0.523962  0.514666  0.934741  0.028901
    C   C18  0.488866  0.516500  0.026504  0.048595
    C   C19  0.385994  0.518377  0.066782  -0.168727
    C   C20  0.626620  0.508547  0.894526  -0.138863
    C   C21  0.320482  0.519496  0.018414  -0.295931
    C   C22  0.692016  0.505915  0.942949  -0.254327
    H   H1   0.241132  0.520569  0.051989  0.143059
    H   H2   0.771089  0.500500  0.909543  0.129054
    H   H3   0.451546  0.525763  0.205882  0.098725
    H   H4   0.562059  0.520559  0.755210  0.108534
    H   H5   0.754290  0.509611  0.201181  0.116575
    H   H6   0.258775  0.522727  0.759915  0.093452
    H   H7   0.205901  0.522389  0.918385  0.125516
    H   H8   0.806762  0.503761  0.042788  0.105920
    H   H9   0.351603  0.517764  0.136340  0.141500
    H   H10  0.660790  0.504107  0.825060  0.112876
    C   C23  0.417493  0.925781  0.503314  -0.108743
    C   C24  0.581025  0.115144  0.502880  -0.115923
    H   H11  0.346551  0.959574  0.524400  0.089749
    H   H12  0.638249  0.081228  0.522816  0.089695
    C   C25  0.417326  0.835090  0.502108  -0.148772
    C   C26  0.581762  0.205851  0.502253  -0.128131
    H   H13  0.346576  0.800790  0.520911  0.118932
    H   H14  0.640188  0.240067  0.520280  0.114643
    C   C27  0.506295  0.789112  0.479632  -0.049730
    C   C28  0.507388  0.251940  0.481144  -0.016431
    C   C29  0.595462  0.834828  0.457430  -0.076839
    C   C30  0.432851  0.206329  0.459770  -0.158932
    H   H15  0.666085  0.800340  0.438479  0.106247
    H   H16  0.374612  0.240874  0.441792  0.110536
    C   C31  0.595731  0.925508  0.456896  -0.178861
    C   C32  0.433172  0.115665  0.458670  -0.089752
    H   H17  0.666824  0.959093  0.436088  0.127435
    H   H18  0.375858  0.082206  0.438465  0.089150
    C   C33  0.506726  0.971998  0.480315  0.095917
    C   C34  0.506973  0.069051  0.480663  0.043664
    C   C35  0.875898  0.545263  0.558139  0.050625
    C   C36  0.117525  0.440553  0.461071  0.104659
    C   C37  0.779146  0.547821  0.553319  -0.124937
    C   C38  0.216733  0.444964  0.458821  -0.163435
    H   H19  0.719406  0.569045  0.609634  0.147459
    H   H20  0.262938  0.387047  0.441474  0.158425
    N   N1   0.757816  0.521549  0.480625  -0.013712
    N   N2   0.255663  0.519386  0.480566  0.025656
    C   C39  0.831082  0.494798  0.409744  -0.073084
    C   C40  0.199331  0.592320  0.502102  -0.116876
    H   H21  0.813676  0.474402  0.351387  0.146322
    H   H22  0.231023  0.652151  0.518624  0.164971
    C   C41  0.928814  0.493163  0.410931  -0.070871
    C   C42  0.100836  0.591491  0.503136  -0.071583
    H   H23  0.986926  0.473569  0.352604  0.090413
    H   H24  0.057544  0.651352  0.518511  0.090365
    C   C43  0.952410  0.516442  0.485755  0.037023
    C   C44  0.057792  0.515082  0.484683  0.026847
    C   C45  0.893111  0.572736  0.640567  0.134200
    C   C46  0.942372  0.518676  0.683633  -0.191678
    C   C47  0.957526  0.545717  0.760836  -0.026529
    C   C48  0.922637  0.626396  0.796120  0.029529
    Cl  Cl1  0.941702  0.660480  0.894317  -0.070498
    C   C49  0.871966  0.679854  0.754431  -0.070964
    C   C50  0.856946  0.653040  0.677107  -0.139346
    H   H25  0.969052  0.454809  0.657604  0.110971
    H   H26  0.996437  0.503348  0.793964  0.100849
    H   H27  0.844217  0.743039  0.782225  0.103338
    H   H28  0.818178  0.696119  0.644487  0.110052
    C   C51  0.079621  0.356196  0.438994  0.058686
    C   C52  0.996555  0.316197  0.495663  -0.145881
    C   C53  0.963225  0.236503  0.474199  -0.087074
    C   C54  0.012984  0.195882  0.396418  0.036681
    Cl  Cl2  0.970491  0.094728  0.369234  -0.081996
    C   C55  0.096477  0.234791  0.340236  -0.064706
    C   C56  0.129963  0.314447  0.361590  -0.108964
    H   H29  0.957476  0.346464  0.557367  0.109405
    H   H30  0.898109  0.205716  0.518619  0.122670
    H   H31  0.135725  0.202889  0.279268  0.099603
    H   H32  0.195064  0.344660  0.316573  0.103250
