data_DB0-m23_o25_o25_f0_pcu_repeat
_audit_creation_date              2024-02-23
_audit_creation_method            'Materials Studio'
_symmetry_space_group_name_H-M    'P1'
_symmetry_Int_Tables_number       1
_symmetry_cell_setting            triclinic
loop_
_symmetry_equiv_pos_as_xyz
  x,y,z
_cell_length_a                    11.6019
_cell_length_b                    15.1999
_cell_length_c                    17.0593
_cell_angle_alpha                 75.6319
_cell_angle_beta                  91.4240
_cell_angle_gamma                 91.0018
loop_
_atom_site_label
_atom_site_type_symbol
_atom_site_fract_x
_atom_site_fract_y
_atom_site_fract_z
_atom_site_U_iso_or_equiv
_atom_site_adp_type
_atom_site_occupancy
C1     C     0.97797   0.80033   0.25071   0.00000  Uiso   1.00
O1     O     0.98156   0.79037   0.17688   0.00000  Uiso   1.00
O2     O     0.97388   0.88220   0.26219   0.00000  Uiso   1.00
C2     C     0.02469   0.20386   0.74747   0.00000  Uiso   1.00
O3     O     0.02114   0.21280   0.82161   0.00000  Uiso   1.00
O4     O     0.02716   0.12235   0.73505   0.00000  Uiso   1.00
C3     C     0.98836   0.13459   0.06996   0.00000  Uiso   1.00
O5     O     0.97790   0.08852   0.14543   0.00000  Uiso   1.00
O6     O     0.99684   0.09118   0.01280   0.00000  Uiso   1.00
Cd1    Cd    0.98313   0.94402   0.11576   0.00000  Uiso   1.00
Cd2    Cd    0.01597   0.05876   0.88118   0.00000  Uiso   1.00
C4     C     0.00803   0.86807   0.92625   0.00000  Uiso   1.00
O7     O     0.01792   0.91448   0.85080   0.00000  Uiso   1.00
O8     O     0.00070   0.91116   0.98374   0.00000  Uiso   1.00
C5     C     0.48955   0.11239   0.90884   0.00000  Uiso   1.00
C6     C     0.56436   0.03059   0.91348   0.00000  Uiso   1.00
H1     H     0.61518   0.99050   0.96516   0.00000  Uiso   1.00
H2     H     0.46347   0.14029   0.95980   0.00000  Uiso   1.00
H3     H     0.44935   0.92321   0.87027   0.00000  Uiso   1.00
N1     N     0.85153   0.06518   0.86631   0.00000  Uiso   1.00
N2     N     0.18349   0.06028   0.88426   0.00000  Uiso   1.00
C7     C     0.55426   0.16452   0.83538   0.00000  Uiso   1.00
C8     C     0.62792   0.08220   0.84100   0.00000  Uiso   1.00
C9     C     0.46911   0.12868   0.78036   0.00000  Uiso   1.00
C10    C     0.40659   0.07615   0.85461   0.00000  Uiso   1.00
C11    C     0.54612   0.04641   0.78562   0.00000  Uiso   1.00
C12    C     0.48107   0.99440   0.85915   0.00000  Uiso   1.00
C13    C     0.75339   0.07384   0.85281   0.00000  Uiso   1.00
C14    C     0.28156   0.06765   0.87098   0.00000  Uiso   1.00
H4     H     0.57179   0.01980   0.73376   0.00000  Uiso   1.00
H5     H     0.42688   0.16982   0.72454   0.00000  Uiso   1.00
H6     H     0.58682   0.23545   0.82468   0.00000  Uiso   1.00
C15    C     0.51390   0.99149   0.11232   0.00000  Uiso   1.00
C16    C     0.43853   0.93687   0.06788   0.00000  Uiso   1.00
H7     H     0.38888   0.95908   0.01074   0.00000  Uiso   1.00
H8     H     0.54351   0.06278   0.08959   0.00000  Uiso   1.00
H9     H     0.54944   0.81696   0.05008   0.00000  Uiso   1.00
N3     N     0.15138   0.91894   0.10424   0.00000  Uiso   1.00
N4     N     0.81671   0.93460   0.11237   0.00000  Uiso   1.00
C17    C     0.44586   0.95512   0.18832   0.00000  Uiso   1.00
C18    C     0.37135   0.90115   0.14293   0.00000  Uiso   1.00
C19    C     0.52729   0.87428   0.21292   0.00000  Uiso   1.00
C20    C     0.59316   0.91126   0.13600   0.00000  Uiso   1.00
C21    C     0.44938   0.81997   0.16756   0.00000  Uiso   1.00
C22    C     0.51802   0.85664   0.09157   0.00000  Uiso   1.00
C23    C     0.24743   0.90905   0.12422   0.00000  Uiso   1.00
C24    C     0.71839   0.92377   0.12304   0.00000  Uiso   1.00
H10    H     0.42033   0.74866   0.19152   0.00000  Uiso   1.00
H11    H     0.56714   0.84796   0.27383   0.00000  Uiso   1.00
H12    H     0.41374   0.99525   0.22922   0.00000  Uiso   1.00
C25    C     0.09134   0.53173   0.95708   0.00000  Uiso   1.00
C26    C     0.08952   0.46968   0.04211   0.00000  Uiso   1.00
H13    H     0.16610   0.44121   0.07939   0.00000  Uiso   1.00
H14    H     0.16955   0.55913   0.92286   0.00000  Uiso   1.00
H15    H     0.99831   0.55265   0.12179   0.00000  Uiso   1.00
C27    C     0.99069   0.23239   0.05009   0.00000  Uiso   1.00
C28    C     0.00484   0.77028   0.94574   0.00000  Uiso   1.00
C29    C     0.99691   0.47449   0.92980   0.00000  Uiso   1.00
C30    C     0.99513   0.41412   0.01450   0.00000  Uiso   1.00
C31    C     0.90524   0.53302   0.95339   0.00000  Uiso   1.00
C32    C     0.99964   0.58857   0.98099   0.00000  Uiso   1.00
C33    C     0.90342   0.47096   0.03842   0.00000  Uiso   1.00
C34    C     0.99786   0.52819   0.06570   0.00000  Uiso   1.00
C35    C     0.99266   0.31442   0.03385   0.00000  Uiso   1.00
C36    C     0.00239   0.68827   0.96176   0.00000  Uiso   1.00
H16    H     0.82522   0.44356   0.07264   0.00000  Uiso   1.00
H17    H     0.82866   0.56149   0.91610   0.00000  Uiso   1.00
H18    H     0.99646   0.45004   0.87371   0.00000  Uiso   1.00
C37    C     0.09793   0.50742   0.54238   0.00000  Uiso   1.00
C38    C     0.09276   0.50804   0.45304   0.00000  Uiso   1.00
H19    H     0.16757   0.51446   0.41269   0.00000  Uiso   1.00
H20    H     0.17746   0.50935   0.57939   0.00000  Uiso   1.00
H21    H     0.00758   0.36841   0.44678   0.00000  Uiso   1.00
C39    C     0.98162   0.72205   0.31824   0.00000  Uiso   1.00
C40    C     0.02225   0.28280   0.68055   0.00000  Uiso   1.00
C41    C     0.99986   0.57505   0.52940   0.00000  Uiso   1.00
C42    C     0.99482   0.57423   0.44124   0.00000  Uiso   1.00
C43    C     0.91218   0.49739   0.54626   0.00000  Uiso   1.00
C44    C     0.01012   0.43119   0.55806   0.00000  Uiso   1.00
C45    C     0.90703   0.49799   0.45693   0.00000  Uiso   1.00
C46    C     0.00509   0.43039   0.46990   0.00000  Uiso   1.00
C47    C     0.98679   0.65560   0.37412   0.00000  Uiso   1.00
C48    C     0.01776   0.34962   0.62500   0.00000  Uiso   1.00
H22    H     0.82750   0.49606   0.41993   0.00000  Uiso   1.00
H23    H     0.83738   0.49097   0.58660   0.00000  Uiso   1.00
H24    H     0.99736   0.63703   0.55252   0.00000  Uiso   1.00
