# Generated by REPEAT Assigner based on pymatgen
data_DB0-m3_o14_o22_f0_nbo.sym.98_sqe
_audit_creation_date              2022-05-24
_audit_creation_method            REPEAT_Assigner
_cell_length_a                    18.698803
_cell_length_b                    18.753601
_cell_length_c                    18.835838
_cell_angle_alpha                 109.356128
_cell_angle_beta                  109.670963
_cell_angle_gamma                 109.130224
_cell_volume                      5100.591991
_symmetry_space_group_name_H-M    P1
_symmetry_Int_Tables_number       1
loop_
    _symmetry_equiv_pos_site_id
    _symmetry_equiv_pos_as_xyz
    1  x,y,z
loop_
    _atom_site_type_symbol
    _atom_site_label
    _atom_site_fract_x
    _atom_site_fract_y
    _atom_site_fract_z
    _atom_type_partial_charge
    O   O1   0.411207  0.354416  0.433444  -0.697411
    O   O2   0.407862  0.459019  0.538137  -0.707309
    C   C1   0.379132  0.377728  0.483544  0.737424
    O   O3   0.592888  0.439449  0.527451  -0.617954
    O   O4   0.594013  0.545034  0.635294  -0.678334
    C   C2   0.621222  0.490464  0.609443  0.416891
    Zn  Zn1  0.506273  0.432980  0.422512  1.268931
    Zn  Zn2  0.506024  0.569340  0.564716  1.306521
    O   O5   0.603316  0.543470  0.448004  -0.682200
    O   O6   0.601670  0.648020  0.554445  -0.693359
    O   O7   0.417035  0.455923  0.351684  -0.574853
    O   O8   0.419997  0.563315  0.459785  -0.644135
    C   C3   0.632928  0.624802  0.503379  0.704528
    C   C4   0.392250  0.512662  0.377819  0.535830
    C   C5   0.723123  0.432839  0.635460  -0.265664
    H   H1   0.743585  0.453642  0.593574  0.047377
    H   H2   0.671156  0.363561  0.595993  0.043453
    C   C6   0.801518  0.443093  0.706225  0.009342
    H   H3   0.794366  0.378147  0.692535  -0.005883
    H   H4   0.861730  0.482506  0.707901  -0.005564
    H   H5   0.799396  0.602392  0.707580  -0.034307
    H   H6   0.895680  0.620559  0.829681  0.037966
    C   C7   0.765465  0.580464  0.740644  0.101095
    C   C8   0.652739  0.452203  0.725138  -0.074171
    C   C9   0.689783  0.488699  0.676940  0.457634
    H   H7   0.637054  0.497639  0.763388  -0.009473
    H   H8   0.592345  0.388373  0.678195  0.017875
    C   C10  0.807435  0.488346  0.792876  0.535536
    C   C11  0.828846  0.581169  0.816108  -0.224347
    C   C12  0.719885  0.440896  0.785815  -0.134912
    H   H9   0.698478  0.370610  0.759469  0.014906
    H   H10  0.724931  0.468084  0.850443  0.015509
    H   H11  0.742918  0.625797  0.765854  -0.021953
    H   H12  0.823418  0.611556  0.874116  0.007987
    H   H13  0.392053  0.280308  0.554446  0.159320
    C   C13  0.201190  0.332027  0.384858  -0.304307
    H   H14  0.251554  0.385640  0.389884  0.184156
    C   C14  0.115987  0.307939  0.332770  -0.057757
    H   H15  0.101685  0.342457  0.298936  0.067988
    C   C15  0.049158  0.238485  0.321769  -0.036643
    H   H16  0.982149  0.217903  0.278722  0.092010
    C   C16  0.067098  0.194300  0.364598  -0.205256
    H   H17  0.011962  0.137981  0.349953  0.102841
    C   C17  0.152882  0.219982  0.420683  0.171707
    C   C18  0.220415  0.287837  0.428189  0.141948
    C   C19  0.306553  0.309557  0.476946  0.007435
    C   C20  0.325039  0.263965  0.517467  -0.240500
    H   H18  0.276614  0.167144  0.548715  0.099022
    C   C21  0.259192  0.199297  0.513197  -0.011225
    C   C22  0.172950  0.177284  0.466507  -0.256711
    H   H19  0.245985  0.377834  0.243791  0.122229
    C   C23  0.411380  0.672246  0.377526  -0.242482
    H   H20  0.468227  0.676115  0.422880  0.181638
    C   C24  0.417433  0.749048  0.382697  -0.083241
    H   H21  0.476649  0.809915  0.432031  0.095999
    C   C25  0.347699  0.748558  0.326390  -0.045786
    H   H22  0.351532  0.809124  0.332041  0.085850
    C   C26  0.273227  0.671007  0.262132  -0.246038
    H   H23  0.219719  0.674610  0.221143  0.189758
    C   C27  0.267641  0.592398  0.253235  0.085828
    C   C28  0.335313  0.593544  0.314888  0.145092
    C   C29  0.326696  0.515787  0.311658  -0.030109
    C   C30  0.252970  0.438190  0.246007  -0.039284
    H   H24  0.130843  0.374918  0.131302  0.133430
    C   C31  0.187327  0.436703  0.183493  -0.146655
    C   C32  0.194597  0.512859  0.185489  -0.003430
    H   H25  0.619626  0.663681  0.379785  0.135217
    C   C33  0.807087  0.730708  0.649130  -0.232881
    H   H26  0.756953  0.689210  0.655543  0.151547
    C   C34  0.891616  0.773052  0.715762  -0.078886
    H   H27  0.905780  0.763978  0.771662  0.097028
    C   C35  0.958366  0.823818  0.709467  -0.086089
    H   H28  0.025272  0.853868  0.759911  0.104748
    C   C36  0.940606  0.835866  0.638666  -0.199640
    H   H29  0.996475  0.871717  0.635642  0.110993
    C   C37  0.854866  0.798599  0.573106  0.198794
    C   C38  0.788029  0.741392  0.576754  0.097278
    C   C39  0.703284  0.692624  0.506741  0.006075
    C   C40  0.685266  0.702588  0.434865  -0.194999
    H   H30  0.730690  0.772185  0.377290  0.118106
    C   C41  0.749099  0.763893  0.433592  -0.058188
    C   C42  0.834154  0.813730  0.502397  -0.208281
    O   O9   0.958648  0.354536  0.902358  -0.703631
    O   O10  0.058383  0.460612  0.896064  -0.704779
    C   C43  0.010370  0.379069  0.872113  0.756406
    O   O11  0.856023  0.439117  0.893512  -0.679879
    O   O12  0.958956  0.542991  0.887802  -0.650100
    C   C44  0.877820  0.489433  0.861206  0.399779
    Zn  Zn3  0.933882  0.426503  0.988040  1.309603
    Zn  Zn4  0.069072  0.566865  0.984749  1.309504
    O   O13  0.944065  0.532675  0.076292  -0.693189
    O   O14  0.044878  0.639042  0.070895  -0.726533
    O   O15  0.044016  0.450713  0.085382  -0.665528
    O   O16  0.146820  0.553947  0.078940  -0.676938
    C   C45  0.992796  0.614357  0.100784  0.770285
    C   C46  0.125109  0.505969  0.113379  0.611577
    O   O17  0.081433  0.117692  0.612214  -0.769029
    O   O18  0.933428  0.056155  0.537284  -0.701374
    C   C47  0.009137  0.116281  0.607157  0.983787
    O   O19  0.126276  0.053053  0.485320  -0.699965
    O   O20  0.036638  0.110977  0.465575  -0.649257
    C   C48  0.107506  0.109514  0.469139  0.871699
    Zn  Zn5  0.066822  0.000184  0.541669  1.206372
    Zn  Zn6  0.936911  0.995569  0.428083  1.198052
    O   O21  0.016000  0.881403  0.439251  -0.756278
    O   O22  0.976409  0.936000  0.350553  -0.749834
    O   O23  0.970888  0.946037  0.565711  -0.660312
    O   O24  0.873901  0.881047  0.422405  -0.699569
    C   C49  0.990892  0.875999  0.362702  0.961428
    C   C50  0.896864  0.881537  0.496722  0.809232
    H   H31  0.931581  0.321694  0.704570  0.185085
    C   C51  0.107220  0.294202  0.915687  -0.561566
    H   H32  0.111043  0.345187  0.967658  0.277736
    C   C52  0.152111  0.252635  0.937789  0.605138
    C   C53  0.146825  0.185209  0.873898  -0.293271
    H   H33  0.179814  0.150769  0.891126  0.140637
    C   C54  0.100151  0.161689  0.788123  -0.143805
    H   H34  0.097026  0.107334  0.740837  0.130678
    C   C55  0.058216  0.205970  0.764860  0.131037
    C   C56  0.059571  0.270974  0.829356  0.102524
    C   C57  0.013313  0.312173  0.807091  0.043440
    C   C58  0.967838  0.289748  0.721548  -0.379468
    C   C59  0.968030  0.227186  0.657482  0.496072
    C   C60  0.012529  0.184268  0.678138  -0.382631
    H   H35  0.113814  0.719924  0.265618  0.112694
    C   C61  0.847703  0.645373  0.059834  -0.258112
    H   H36  0.847072  0.597391  0.008103  0.195827
    C   C62  0.776223  0.657263  0.039260  -0.102149
    H   H37  0.722151  0.619029  0.973294  0.116894
    C   C63  0.772967  0.716687  0.102710  -0.061896
    H   H38  0.716026  0.724803  0.086725  0.094348
    C   C64  0.841854  0.765722  0.186676  -0.251673
    H   H39  0.834914  0.809742  0.234312  0.139438
    C   C65  0.915824  0.756534  0.208125  0.236442
    C   C66  0.917577  0.694081  0.144288  0.103834
    C   C67  0.989319  0.681237  0.165209  -0.053243
    C   C68  0.058285  0.730328  0.249156  -0.147430
    H   H40  0.111528  0.829959  0.378013  0.111540
    C   C69  0.056512  0.791701  0.312587  -0.070357
    C   C70  0.986605  0.806460  0.292812  -0.246550
    O   O25  0.198720  0.275741  0.022919  -0.539395
    C   C71  0.280129  0.346159  0.055760  0.356656
    H   H41  0.280296  0.407623  0.087806  -0.068369
    H   H42  0.293800  0.344216  0.002451  -0.060481
    C   C72  0.350290  0.341691  0.121085  0.202736
    H   H43  0.332494  0.335028  0.169938  -0.048304
    H   H44  0.355564  0.284434  0.087001  -0.044371
    C   C73  0.437307  0.423749  0.166433  -0.272559
    H   H45  0.455228  0.431219  0.117848  0.045607
    H   H46  0.488274  0.419289  0.213324  0.063124
    H   H47  0.432760  0.481006  0.201997  0.051928
    O   O26  0.922242  0.206653  0.572983  -0.474456
    C   C74  0.979205  0.265735  0.561349  0.246807
    H   H48  0.990887  0.229626  0.510699  0.016754
    H   H49  0.042615  0.311490  0.622619  -0.030297
    C   C75  0.938542  0.316076  0.532491  0.185677
    H   H50  0.874142  0.269829  0.472456  -0.021595
    H   H51  0.929500  0.354897  0.584209  -0.038067
    C   C76  0.997487  0.376422  0.514540  -0.303008
    H   H52  0.062175  0.422573  0.574252  0.060523
    H   H53  0.967497  0.413390  0.494104  0.067726
    H   H54  0.005784  0.337931  0.461921  0.066002
