# Generated by REPEAT Assigner based on pymatgen
data_DB0-m5_o16_o16_f0_bcu.sym.2
_audit_creation_date              2022-05-24
_audit_creation_method            REPEAT_Assigner
_cell_length_a                    25.459735
_cell_length_b                    20.050494
_cell_length_c                    17.998535
_cell_angle_alpha                 90.000000
_cell_angle_beta                  135.028595
_cell_angle_gamma                 90.000000
_cell_volume                      6493.580861
_symmetry_space_group_name_H-M    P1
_symmetry_Int_Tables_number       1
loop_
    _symmetry_equiv_pos_site_id
    _symmetry_equiv_pos_as_xyz
    1  x,y,z
loop_
    _atom_site_type_symbol
    _atom_site_label
    _atom_site_fract_x
    _atom_site_fract_y
    _atom_site_fract_z
    _atom_type_partial_charge
    O   O1    0.583569  0.072089  0.662845  -0.569960
    O   O2    0.583569  0.927911  0.662845  -0.569971
    O   O3    0.083569  0.572089  0.662845  -0.569862
    O   O4    0.083569  0.427911  0.662845  -0.569968
    O   O5    0.559952  0.083820  0.757609  -0.567602
    O   O6    0.559952  0.916180  0.757609  -0.567611
    O   O7    0.059952  0.583820  0.757609  -0.567600
    O   O8    0.059952  0.416180  0.757609  -0.567623
    C   C1    0.605723  0.097017  0.748048  0.486540
    C   C2    0.605723  0.902982  0.748048  0.486566
    C   C3    0.105723  0.597017  0.748048  0.486501
    C   C4    0.105723  0.402982  0.748048  0.486594
    O   O9    0.398951  0.072214  0.313441  -0.562603
    O   O10   0.398951  0.927786  0.313441  -0.562597
    O   O11   0.898951  0.572214  0.313441  -0.562621
    O   O12   0.898951  0.427786  0.313441  -0.562618
    O   O13   0.422253  0.083813  0.218027  -0.606690
    O   O14   0.422253  0.916187  0.218027  -0.606684
    O   O15   0.922253  0.583813  0.218027  -0.606716
    O   O16   0.922253  0.416187  0.218027  -0.606714
    C   C5    0.377931  0.098372  0.229745  0.474170
    C   C6    0.377931  0.901628  0.229745  0.474144
    C   C7    0.877931  0.598372  0.229745  0.474219
    C   C8    0.877931  0.401628  0.229745  0.474178
    O   O17   0.408692  0.072106  0.497853  -0.553667
    O   O18   0.408692  0.927894  0.497853  -0.553663
    O   O19   0.908692  0.572106  0.497853  -0.553655
    O   O20   0.908692  0.427894  0.497853  -0.553656
    O   O21   0.290265  0.083838  0.355635  -0.582031
    O   O22   0.290265  0.916162  0.355635  -0.582025
    O   O23   0.790265  0.583838  0.355635  -0.582032
    O   O24   0.790265  0.416162  0.355635  -0.582031
    C   C9    0.345623  0.097072  0.456815  0.470402
    C   C10   0.345623  0.902928  0.456815  0.470397
    C   C11   0.845623  0.597072  0.456815  0.470395
    C   C12   0.845623  0.402928  0.456815  0.470390
    O   O25   0.573498  0.072224  0.478132  -0.567617
    O   O26   0.573498  0.927776  0.478132  -0.567607
    O   O27   0.073498  0.572224  0.478132  -0.567669
    O   O28   0.073498  0.427776  0.478132  -0.567626
    O   O29   0.692243  0.083779  0.620307  -0.599112
    O   O30   0.692243  0.916221  0.620307  -0.599111
    O   O31   0.192243  0.583779  0.620307  -0.599116
    O   O32   0.192243  0.416221  0.620307  -0.599111
    C   C13   0.636245  0.098201  0.519849  0.466673
    C   C14   0.636245  0.901799  0.519849  0.466677
    C   C15   0.136245  0.598201  0.519849  0.466746
    C   C16   0.136245  0.401799  0.519849  0.466737
    Cd  Cd1   0.488520  0.000000  0.635196  1.158948
    Cd  Cd2   0.988520  0.500000  0.635196  1.158921
    Cd  Cd3   0.493703  0.000000  0.340687  1.188014
    Cd  Cd4   0.993703  0.500000  0.340687  1.188052
    Cd  Cd5   0.341294  0.000000  0.335378  1.175874
    Cd  Cd6   0.841294  0.500000  0.335378  1.175873
    Cd  Cd7   0.641069  0.000000  0.640554  1.188705
    Cd  Cd8   0.141069  0.500000  0.640554  1.188678
    C   C17   0.578221  0.750939  0.357160  -0.141255
    C   C18   0.578221  0.249061  0.357160  -0.141247
    C   C19   0.078221  0.250939  0.357160  -0.141144
    C   C20   0.078221  0.749061  0.357160  -0.141139
    H   H1    0.521861  0.825965  0.361429  0.283652
    H   H2    0.521861  0.174034  0.361429  0.283651
    H   H3    0.021861  0.325965  0.361429  0.283595
    H   H4    0.021861  0.674034  0.361429  0.283598
    H   H5    0.595762  0.638518  0.306400  0.138017
    H   H6    0.595762  0.361482  0.306400  0.138021
    H   H7    0.095762  0.138518  0.306400  0.138020
    H   H8    0.095762  0.861482  0.306400  0.138023
    H   H9    0.527634  0.723385  0.296201  0.102692
    H   H10   0.527634  0.276615  0.296201  0.102692
    H   H11   0.027634  0.223385  0.296201  0.102644
    H   H12   0.027634  0.776615  0.296201  0.102645
    C   C21   0.638985  0.843727  0.473205  -0.007000
    C   C22   0.638985  0.156273  0.473205  -0.006980
    C   C23   0.138985  0.343727  0.473205  -0.007118
    C   C24   0.138985  0.656273  0.473205  -0.007074
    C   C25   0.408804  0.186633  0.585811  -0.256443
    C   C26   0.408804  0.813367  0.585811  -0.256435
    C   C27   0.908804  0.686633  0.585811  -0.256504
    C   C28   0.908804  0.313367  0.585811  -0.256511
    C   C29   0.410139  0.242972  0.629982  -0.023473
    C   C30   0.410139  0.757028  0.629982  -0.023499
    C   C31   0.910139  0.742972  0.629982  -0.023351
    C   C32   0.910139  0.257028  0.629982  -0.023372
    C   C33   0.345799  0.268055  0.595356  -0.162312
    C   C34   0.345799  0.731944  0.595357  -0.162295
    C   C35   0.845799  0.768055  0.595356  -0.162407
    C   C36   0.845799  0.231944  0.595357  -0.162391
    C   C37   0.278063  0.235793  0.516644  -0.014146
    C   C38   0.278063  0.764207  0.516644  -0.014169
    C   C39   0.778063  0.735793  0.516644  -0.014072
    C   C40   0.778063  0.264207  0.516644  -0.014093
    C   C41   0.277544  0.176528  0.475019  0.315663
    C   C42   0.277544  0.823472  0.475019  0.315666
    C   C43   0.777544  0.676528  0.475019  0.315589
    C   C44   0.777544  0.323472  0.475019  0.315590
    C   C45   0.710898  0.761316  0.478087  0.004840
    C   C46   0.710898  0.238684  0.478087  0.004862
    C   C47   0.210898  0.261316  0.478087  0.004894
    C   C48   0.210898  0.738684  0.478087  0.004925
    C   C49   0.645503  0.726766  0.399637  0.224588
    C   C50   0.645503  0.273234  0.399637  0.224576
    C   C51   0.145503  0.226766  0.399637  0.224464
    C   C52   0.145503  0.773234  0.399637  0.224450
    C   C53   0.646528  0.666609  0.364384  -0.222538
    C   C54   0.646528  0.333391  0.364384  -0.222543
    C   C55   0.146528  0.166609  0.364384  -0.222505
    C   C56   0.146528  0.833391  0.364384  -0.222506
    C   C57   0.211755  0.141015  0.402858  -0.285596
    C   C58   0.211755  0.858984  0.402858  -0.285584
    C   C59   0.711755  0.641015  0.402858  -0.285577
    C   C60   0.711755  0.358984  0.402858  -0.285562
    C   C61   0.706511  0.820162  0.515260  -0.085191
    C   C62   0.706511  0.179837  0.515260  -0.085220
    C   C63   0.206511  0.320162  0.515260  -0.085190
    C   C64   0.206511  0.679837  0.515260  -0.085239
    C   C65   0.574772  0.809350  0.393175  -0.299687
    C   C66   0.574772  0.190650  0.393175  -0.299695
    C   C67   0.074772  0.309350  0.393175  -0.299570
    C   C68   0.074772  0.690650  0.393175  -0.299584
    C   C69   0.343128  0.153029  0.507665  -0.166245
    C   C70   0.343128  0.846971  0.507665  -0.166238
    C   C71   0.843128  0.653029  0.507665  -0.166203
    C   C72   0.843128  0.346971  0.507665  -0.166187
    H   H13   0.754218  0.849471  0.577582  0.114396
    H   H14   0.754218  0.150529  0.577582  0.114405
    H   H15   0.254218  0.349471  0.577582  0.114403
    H   H16   0.254218  0.650529  0.577582  0.114415
    H   H17   0.459809  0.170689  0.610934  0.266412
    H   H18   0.459809  0.829310  0.610934  0.266413
    H   H19   0.959809  0.670689  0.610934  0.266408
    H   H20   0.959809  0.329310  0.610934  0.266421
    H   H21   0.352077  0.313295  0.632899  0.123683
    H   H22   0.352077  0.686705  0.632899  0.123688
    H   H23   0.852077  0.813295  0.632899  0.123701
    H   H24   0.852077  0.186705  0.632899  0.123706
    H   H25   0.462005  0.269040  0.690536  0.089241
    H   H26   0.462005  0.730960  0.690537  0.089245
    H   H27   0.962005  0.769040  0.690536  0.089211
    H   H28   0.962005  0.230960  0.690537  0.089213
    H   H29   0.209154  0.092086  0.375823  0.178148
    H   H30   0.209154  0.907914  0.375823  0.178134
    H   H31   0.709154  0.592086  0.375823  0.178154
    H   H32   0.709154  0.407914  0.375823  0.178140
    C   C73   0.274717  0.750185  0.186476  0.418822
    C   C74   0.274717  0.249815  0.186476  0.418809
    C   C75   0.774717  0.250185  0.186476  0.418825
    C   C76   0.774717  0.749815  0.186476  0.418809
    H   H33   0.335246  0.827260  0.301233  0.296360
    H   H34   0.335246  0.172740  0.301233  0.296346
    H   H35   0.835246  0.327260  0.301233  0.296364
    H   H36   0.835246  0.672740  0.301233  0.296341
    H   H37   0.205542  0.633677  0.095487  0.132481
    H   H38   0.205542  0.366323  0.095487  0.132528
    H   H39   0.705542  0.133677  0.095487  0.132482
    H   H40   0.705542  0.866323  0.095487  0.132530
    C   C77   0.329058  0.843120  0.178517  0.048470
    C   C78   0.329058  0.156879  0.178517  0.048424
    C   C79   0.829058  0.343120  0.178517  0.048479
    C   C80   0.829058  0.656879  0.178517  0.048407
    C   C81   0.671396  0.186890  0.750999  -0.227819
    C   C82   0.671396  0.813110  0.750999  -0.227811
    C   C83   0.171396  0.686890  0.750999  -0.227796
    C   C84   0.171396  0.313110  0.750999  -0.227795
    C   C85   0.714227  0.243223  0.793010  -0.061748
    C   C86   0.714227  0.756777  0.793010  -0.061741
    C   C87   0.214227  0.743223  0.793010  -0.061743
    C   C88   0.214227  0.256777  0.793010  -0.061748
    C   C89   0.744157  0.267820  0.887468  -0.147409
    C   C90   0.744157  0.732180  0.887468  -0.147420
    C   C91   0.244157  0.767820  0.887468  -0.147420
    C   C92   0.244157  0.232180  0.887468  -0.147419
    C   C93   0.733558  0.235008  0.944398  -0.045954
    C   C94   0.733558  0.764992  0.944398  -0.045936
    C   C95   0.233558  0.735008  0.944398  -0.045962
    C   C96   0.233558  0.264992  0.944398  -0.045933
    C   C97   0.692573  0.175804  0.903175  0.422607
    C   C98   0.692573  0.824196  0.903175  0.422594
    C   C99   0.192573  0.675804  0.903175  0.422656
    C   C100  0.192573  0.324196  0.903175  0.422622
    C   C101  0.262317  0.759996  0.040697  0.095951
    C   C102  0.262317  0.240004  0.040697  0.095926
    C   C103  0.762317  0.259996  0.040697  0.095968
    C   C104  0.762317  0.740004  0.040697  0.095948
    C   C105  0.249671  0.725015  0.093679  -0.079330
    C   C106  0.249671  0.274985  0.093679  -0.079301
    C   C107  0.749671  0.225015  0.093679  -0.079329
    C   C108  0.749671  0.774985  0.093679  -0.079303
    C   C109  0.213571  0.664238  0.054896  -0.061393
    C   C110  0.213571  0.335762  0.054896  -0.061455
    C   C111  0.713571  0.164238  0.054896  -0.061400
    C   C112  0.713571  0.835762  0.054896  -0.061462
    C   C113  0.686835  0.139579  0.962523  -0.403243
    C   C114  0.686835  0.860421  0.962523  -0.403208
    C   C115  0.186835  0.639579  0.962523  -0.403275
    C   C116  0.186835  0.360421  0.962523  -0.403231
    C   C117  0.303585  0.819028  0.085982  -0.178113
    C   C118  0.303585  0.180972  0.085982  -0.178088
    C   C119  0.803585  0.319028  0.085982  -0.178146
    C   C120  0.803585  0.680972  0.085982  -0.178110
    C   C121  0.313668  0.809186  0.227525  -0.502535
    C   C122  0.313668  0.190814  0.227525  -0.502497
    C   C123  0.813668  0.309186  0.227525  -0.502540
    C   C124  0.813668  0.690814  0.227525  -0.502484
    C   C125  0.659231  0.152852  0.804201  -0.199225
    C   C126  0.659231  0.847148  0.804201  -0.199240
    C   C127  0.159231  0.652852  0.804201  -0.199258
    C   C128  0.159231  0.347148  0.804201  -0.199274
    H   H41   0.317989  0.848319  0.052687  0.133993
    H   H42   0.317989  0.151681  0.052687  0.133985
    H   H43   0.817989  0.348319  0.052687  0.134004
    H   H44   0.817989  0.651681  0.052687  0.133992
    H   H45   0.645287  0.171309  0.673828  0.266351
    H   H46   0.645287  0.828691  0.673828  0.266348
    H   H47   0.145287  0.671309  0.673828  0.266323
    H   H48   0.145287  0.328691  0.673828  0.266340
    H   H49   0.775263  0.313129  0.912370  0.122693
    H   H50   0.775263  0.686871  0.912370  0.122697
    H   H51   0.275263  0.813129  0.912370  0.122697
    H   H52   0.275263  0.186871  0.912370  0.122698
    H   H53   0.722714  0.269731  0.749901  0.097059
    H   H54   0.722714  0.730269  0.749901  0.097057
    H   H55   0.222714  0.769731  0.749901  0.097059
    H   H56   0.222714  0.230269  0.749901  0.097058
    H   H57   0.662767  0.090467  0.940253  0.178234
    H   H58   0.662767  0.909533  0.940253  0.178227
    H   H59   0.162767  0.590467  0.940253  0.178247
    H   H60   0.162767  0.409533  0.940253  0.178235
    C   C129  0.261350  0.714592  0.244949  -0.591438
    H   H61   0.200792  0.708385  0.193633  0.142785
    H   H62   0.289338  0.665287  0.272332  0.114151
    H   H63   0.284180  0.743665  0.314913  0.206513
    C   C130  0.261350  0.285408  0.244949  -0.591437
    H   H64   0.200792  0.291614  0.193633  0.142774
    H   H65   0.284180  0.256335  0.314913  0.206523
    H   H66   0.289338  0.334713  0.272332  0.114141
    C   C131  0.761350  0.214592  0.244949  -0.591450
    H   H67   0.700792  0.208385  0.193633  0.142789
    H   H68   0.789338  0.165287  0.272332  0.114153
    H   H69   0.784180  0.243665  0.314913  0.206517
    C   C132  0.761350  0.785408  0.244949  -0.591452
    H   H70   0.700792  0.791614  0.193633  0.142779
    H   H71   0.784180  0.756335  0.314913  0.206528
    H   H72   0.789338  0.834713  0.272332  0.114144
