data_DB0-m3_o11_o29_f0_pcu.sym.70_repeat
_audit_creation_date              2024-02-20
_audit_creation_method            'Materials Studio'
_symmetry_space_group_name_H-M    'P1'
_symmetry_Int_Tables_number       1
_symmetry_cell_setting            triclinic
loop_
_symmetry_equiv_pos_as_xyz
  x,y,z
_cell_length_a                    27.6503
_cell_length_b                    11.1360
_cell_length_c                    9.9183
_cell_angle_alpha                 89.9974
_cell_angle_beta                  89.9930
_cell_angle_gamma                 89.9936
loop_
_atom_site_label
_atom_site_type_symbol
_atom_site_fract_x
_atom_site_fract_y
_atom_site_fract_z
_atom_site_U_iso_or_equiv
_atom_site_adp_type
_atom_site_occupancy
O1     O     0.50564   0.31626   0.60139   0.00000  Uiso   1.00
O2     O     0.50416   0.31485   0.36917   0.00000  Uiso   1.00
C1     C     0.50547   0.25947   0.48601   0.00000  Uiso   1.00
O3     O     0.43152   0.49086   0.60717   0.00000  Uiso   1.00
O4     O     0.43047   0.48995   0.37520   0.00000  Uiso   1.00
C2     C     0.40831   0.48865   0.49196   0.00000  Uiso   1.00
Zn1    Zn    0.50375   0.49449   0.64135   0.00000  Uiso   1.00
Zn2    Zn    0.50226   0.49421   0.33479   0.00000  Uiso   1.00
O5     O     0.50161   0.67395   0.60722   0.00000  Uiso   1.00
O6     O     0.50064   0.67253   0.37452   0.00000  Uiso   1.00
O7     O     0.57557   0.50069   0.60152   0.00000  Uiso   1.00
O8     O     0.57452   0.49877   0.36855   0.00000  Uiso   1.00
C3     C     0.50060   0.72969   0.49014   0.00000  Uiso   1.00
C4     C     0.59767   0.50076   0.48426   0.00000  Uiso   1.00
C5     C     0.17865   0.39653   0.44808   0.00000  Uiso   1.00
O9     O     0.20282   0.29910   0.40502   0.00000  Uiso   1.00
N1     N     0.20340   0.49147   0.49537   0.00000  Uiso   1.00
C6     C     0.18008   0.58940   0.54142   0.00000  Uiso   1.00
C7     C     0.28039   0.49578   0.61463   0.00000  Uiso   1.00
C8     C     0.33028   0.49456   0.61401   0.00000  Uiso   1.00
C9     C     0.32972   0.48030   0.37373   0.00000  Uiso   1.00
C10    C     0.27986   0.48077   0.37473   0.00000  Uiso   1.00
C11    C     0.25500   0.48908   0.49501   0.00000  Uiso   1.00
C12    C     0.10372   0.49683   0.49240   0.00000  Uiso   1.00
C13    C     0.12871   0.39803   0.44596   0.00000  Uiso   1.00
C14    C     0.10377   0.29989   0.39906   0.00000  Uiso   1.00
C15    C     0.12964   0.59398   0.54082   0.00000  Uiso   1.00
C16    C     0.35525   0.48736   0.49340   0.00000  Uiso   1.00
H1     H     0.34824   0.47460   0.27802   0.00000  Uiso   1.00
H2     H     0.26033   0.47642   0.28043   0.00000  Uiso   1.00
H3     H     0.12239   0.22017   0.36505   0.00000  Uiso   1.00
C17    C     0.65073   0.50318   0.48283   0.00000  Uiso   1.00
C18    C     0.97761   0.40607   0.42650   0.00000  Uiso   1.00
C19    C     0.97788   0.59431   0.54589   0.00000  Uiso   1.00
C20    C     0.95279   0.50100   0.48507   0.00000  Uiso   1.00
C21    C     0.95104   0.31864   0.35842   0.00000  Uiso   1.00
C22    C     0.90144   0.32237   0.35511   0.00000  Uiso   1.00
C23    C     0.87689   0.41333   0.41890   0.00000  Uiso   1.00
C24    C     0.90246   0.50251   0.48317   0.00000  Uiso   1.00
C25    C     0.87712   0.59301   0.54585   0.00000  Uiso   1.00
C26    C     0.82707   0.59324   0.54369   0.00000  Uiso   1.00
N2     N     0.80269   0.50493   0.48036   0.00000  Uiso   1.00
C27    C     0.82683   0.41555   0.41820   0.00000  Uiso   1.00
C28    C     0.72615   0.50230   0.60162   0.00000  Uiso   1.00
C29    C     0.67630   0.50142   0.60269   0.00000  Uiso   1.00
C30    C     0.67569   0.50623   0.36199   0.00000  Uiso   1.00
C31    C     0.72558   0.50720   0.36121   0.00000  Uiso   1.00
C32    C     0.75104   0.50508   0.48099   0.00000  Uiso   1.00
O10    O     0.80204   0.32638   0.35854   0.00000  Uiso   1.00
C33    C     0.02812   0.40113   0.43631   0.00000  Uiso   1.00
C34    C     0.05333   0.49789   0.49021   0.00000  Uiso   1.00
C35    C     0.02850   0.59615   0.54071   0.00000  Uiso   1.00
C36    C     0.05424   0.30097   0.39440   0.00000  Uiso   1.00
H4     H     0.65783   0.49849   0.69863   0.00000  Uiso   1.00
H5     H     0.74563   0.49911   0.69606   0.00000  Uiso   1.00
H6     H     0.88245   0.25247   0.30124   0.00000  Uiso   1.00
H7     H     0.96720   0.24663   0.30212   0.00000  Uiso   1.00
H8     H     0.03779   0.21897   0.36045   0.00000  Uiso   1.00
O11    O     0.20644   0.68295   0.58521   0.00000  Uiso   1.00
C37    C     0.10483   0.69428   0.58644   0.00000  Uiso   1.00
H9     H     0.34929   0.50015   0.70898   0.00000  Uiso   1.00
H10    H     0.26125   0.50131   0.70948   0.00000  Uiso   1.00
C38    C     0.95152   0.68267   0.61304   0.00000  Uiso   1.00
C39    C     0.90188   0.68213   0.61221   0.00000  Uiso   1.00
O12    O     0.80254   0.68328   0.60258   0.00000  Uiso   1.00
C40    C     0.05493   0.69556   0.58274   0.00000  Uiso   1.00
H11    H     0.96790   0.75244   0.67245   0.00000  Uiso   1.00
H12    H     0.65667   0.50796   0.26685   0.00000  Uiso   1.00
H13    H     0.88304   0.75260   0.66558   0.00000  Uiso   1.00
H14    H     0.74463   0.51061   0.26608   0.00000  Uiso   1.00
H15    H     0.03769   0.77970   0.60488   0.00000  Uiso   1.00
C41    C     0.50382   0.92885   0.37787   0.00000  Uiso   1.00
C42    C     0.49855   0.86207   0.49030   0.00000  Uiso   1.00
H16    H     0.49191   0.90405   0.58679   0.00000  Uiso   1.00
C43    C     0.49996   0.06172   0.38089   0.00000  Uiso   1.00
C44    C     0.50829   0.12807   0.49055   0.00000  Uiso   1.00
H17    H     0.49051   0.10717   0.28795   0.00000  Uiso   1.00
H18    H     0.51831   0.08762   0.58564   0.00000  Uiso   1.00
C45    C     0.53210   0.56081   0.91516   0.00000  Uiso   1.00
N3     N     0.50514   0.49241   0.84296   0.00000  Uiso   1.00
H19    H     0.55476   0.62703   0.86598   0.00000  Uiso   1.00
H20    H     0.48955   0.42021   0.89035   0.00000  Uiso   1.00
C46    C     0.53518   0.54733   0.06367   0.00000  Uiso   1.00
N4     N     0.50127   0.49799   0.13316   0.00000  Uiso   1.00
H21    H     0.56627   0.58474   0.11519   0.00000  Uiso   1.00
H22    H     0.46948   0.47897   0.08418   0.00000  Uiso   1.00
O13    O     0.12912   0.79291   0.62761   0.00000  Uiso   1.00
C47    C     0.11536   0.86311   0.73198   0.00000  Uiso   1.00
O14    O     0.08614   0.82707   0.81475   0.00000  Uiso   1.00
C48    C     0.13911   0.98174   0.75227   0.00000  Uiso   1.00
H23    H     0.16553   0.99770   0.67007   0.00000  Uiso   1.00
H24    H     0.15815   0.98229   0.85067   0.00000  Uiso   1.00
H25    H     0.11134   0.05358   0.75118   0.00000  Uiso   1.00
O15    O     0.50975   0.87388   0.25738   0.00000  Uiso   1.00
C49    C     0.53387   0.92336   0.15267   0.00000  Uiso   1.00
O16    O     0.56380   0.00208   0.17128   0.00000  Uiso   1.00
C50    C     0.52647   0.87523   0.01424   0.00000  Uiso   1.00
H26    H     0.49855   0.80382   0.01688   0.00000  Uiso   1.00
H27    H     0.56102   0.83792   0.97595   0.00000  Uiso   1.00
H28    H     0.51424   0.94867   0.94686   0.00000  Uiso   1.00
