data_DB0-m29_o96_o1470_f0_pts.sym.127_repeat
_audit_creation_date              2024-02-24
_audit_creation_method            'Materials Studio'
_symmetry_space_group_name_H-M    'P1'
_symmetry_Int_Tables_number       1
_symmetry_cell_setting            triclinic
loop_
_symmetry_equiv_pos_as_xyz
  x,y,z
_cell_length_a                    17.2759
_cell_length_b                    12.0510
_cell_length_c                    19.1234
_cell_angle_alpha                 88.7694
_cell_angle_beta                  90.6123
_cell_angle_gamma                 108.5293
loop_
_atom_site_label
_atom_site_type_symbol
_atom_site_fract_x
_atom_site_fract_y
_atom_site_fract_z
_atom_site_U_iso_or_equiv
_atom_site_adp_type
_atom_site_occupancy
C1     C     0.22491   0.00441   0.11194   0.00000  Uiso   1.00
C2     C     0.16877   0.96483   0.16343   0.00000  Uiso   1.00
C3     C     0.09434   0.96358   0.13621   0.00000  Uiso   1.00
N1     N     0.10279   0.99752   0.06821   0.00000  Uiso   1.00
C4     C     0.18288   0.02172   0.05306   0.00000  Uiso   1.00
C5     C     0.02568   0.94096   0.17317   0.00000  Uiso   1.00
C6     C     0.95029   0.95936   0.14678   0.00000  Uiso   1.00
C7     C     0.89464   0.98733   0.18819   0.00000  Uiso   1.00
C8     C     0.83251   0.99485   0.14625   0.00000  Uiso   1.00
C9     C     0.85155   0.97218   0.07897   0.00000  Uiso   1.00
N2     N     0.92336   0.94905   0.07996   0.00000  Uiso   1.00
C10    C     0.80168   0.97421   0.01624   0.00000  Uiso   1.00
C11    C     0.83356   0.00194   0.95235   0.00000  Uiso   1.00
C12    C     0.79140   0.01808   0.89316   0.00000  Uiso   1.00
C13    C     0.84752   0.05616   0.84150   0.00000  Uiso   1.00
C14    C     0.92198   0.05796   0.86890   0.00000  Uiso   1.00
N3     N     0.91361   0.02559   0.93716   0.00000  Uiso   1.00
C15    C     0.99061   0.07998   0.83192   0.00000  Uiso   1.00
C16    C     0.06640   0.06314   0.85855   0.00000  Uiso   1.00
C17    C     0.12269   0.03614   0.81738   0.00000  Uiso   1.00
C18    C     0.18492   0.02968   0.85954   0.00000  Uiso   1.00
C19    C     0.16534   0.05220   0.92664   0.00000  Uiso   1.00
N4     N     0.09311   0.07406   0.92542   0.00000  Uiso   1.00
C20    C     0.21503   0.05059   0.98941   0.00000  Uiso   1.00
H1     H     0.02754   0.91999   0.22824   0.00000  Uiso   1.00
H2     H     0.73777   0.96398   0.02374   0.00000  Uiso   1.00
H3     H     0.98862   0.09984   0.77671   0.00000  Uiso   1.00
H4     H     0.27902   0.06131   0.98201   0.00000  Uiso   1.00
H5     H     0.95052   0.92119   0.03841   0.00000  Uiso   1.00
H6     H     0.06551   0.10139   0.96687   0.00000  Uiso   1.00
C21    C     0.12181   0.01538   0.74713   0.00000  Uiso   1.00
C22    C     0.18763   0.99000   0.71955   0.00000  Uiso   1.00
C23    C     0.25300   0.98548   0.76177   0.00000  Uiso   1.00
C24    C     0.25152   0.00421   0.83330   0.00000  Uiso   1.00
C25    C     0.30691   0.02311   0.12399   0.00000  Uiso   1.00
C26    C     0.32987   0.99586   0.19018   0.00000  Uiso   1.00
C27    C     0.27129   0.94984   0.24160   0.00000  Uiso   1.00
C28    C     0.19007   0.93577   0.22897   0.00000  Uiso   1.00
C29    C     0.89608   0.00811   0.25850   0.00000  Uiso   1.00
C30    C     0.83084   0.03458   0.28646   0.00000  Uiso   1.00
C31    C     0.76548   0.03984   0.24453   0.00000  Uiso   1.00
C32    C     0.76643   0.02106   0.17292   0.00000  Uiso   1.00
C33    C     0.70937   0.99938   0.88083   0.00000  Uiso   1.00
C34    C     0.68642   0.02471   0.81412   0.00000  Uiso   1.00
C35    C     0.74513   0.06906   0.76258   0.00000  Uiso   1.00
C36    C     0.82629   0.08343   0.77555   0.00000  Uiso   1.00
H7     H     0.07182   0.01885   0.71369   0.00000  Uiso   1.00
H8     H     0.30149   0.00111   0.86689   0.00000  Uiso   1.00
H9     H     0.35219   0.05880   0.08400   0.00000  Uiso   1.00
H10    H     0.28900   0.92961   0.29346   0.00000  Uiso   1.00
H11    H     0.14583   0.90312   0.27010   0.00000  Uiso   1.00
H12    H     0.94606   0.00380   0.29169   0.00000  Uiso   1.00
H13    H     0.71648   0.02482   0.13951   0.00000  Uiso   1.00
H14    H     0.66412   0.96500   0.92103   0.00000  Uiso   1.00
H15    H     0.72772   0.08793   0.71035   0.00000  Uiso   1.00
H16    H     0.87051   0.11484   0.73430   0.00000  Uiso   1.00
H17    H     0.18761   0.97528   0.66404   0.00000  Uiso   1.00
H18    H     0.83110   0.04911   0.34201   0.00000  Uiso   1.00
O1     O     0.62725   0.04995   0.24296   0.00000  Uiso   1.00
C37    C     0.69427   0.05724   0.27831   0.00000  Uiso   1.00
O2     O     0.56077   0.81291   0.32538   0.00000  Uiso   1.00
O3     O     0.69370   0.06565   0.34658   0.00000  Uiso   1.00
O4     O     0.52459   0.93664   0.39612   0.00000  Uiso   1.00
C38    C     0.53575   0.83530   0.38643   0.00000  Uiso   1.00
Fe1    Fe    0.53858   0.03618   0.31056   0.00000  Uiso   1.00
O5     O     0.43260   0.95934   0.26121   0.00000  Uiso   1.00
O6     O     0.47074   0.11671   0.18649   0.00000  Uiso   1.00
C39    C     0.41560   0.02094   0.20952   0.00000  Uiso   1.00
O7     O     0.56563   0.20191   0.34231   0.00000  Uiso   1.00
O8     O     0.42954   0.13492   0.36024   0.00000  Uiso   1.00
C40    C     0.49984   0.21668   0.36943   0.00000  Uiso   1.00
C41    C     0.51979   0.22859   0.49372   0.00000  Uiso   1.00
C42    C     0.51507   0.27348   0.55865   0.00000  Uiso   1.00
C43    C     0.50482   0.38374   0.56300   0.00000  Uiso   1.00
C44    C     0.50340   0.43903   0.63238   0.00000  Uiso   1.00
C45    C     0.46370   0.53471   0.62971   0.00000  Uiso   1.00
C46    C     0.50900   0.28491   0.43325   0.00000  Uiso   1.00
C47    C     0.49467   0.39135   0.43730   0.00000  Uiso   1.00
C48    C     0.49677   0.44304   0.50149   0.00000  Uiso   1.00
C49    C     0.49639   0.56433   0.50337   0.00000  Uiso   1.00
C50    C     0.49090   0.61316   0.56740   0.00000  Uiso   1.00
C51    C     0.50504   0.73282   0.57120   0.00000  Uiso   1.00
C52    C     0.46893   0.44692   0.37517   0.00000  Uiso   1.00
C53    C     0.51229   0.57723   0.37308   0.00000  Uiso   1.00
C54    C     0.50983   0.63266   0.44215   0.00000  Uiso   1.00
C55    C     0.52268   0.75273   0.44655   0.00000  Uiso   1.00
C56    C     0.52162   0.80012   0.51127   0.00000  Uiso   1.00
H19    H     0.46629   0.37294   0.66988   0.00000  Uiso   1.00
H20    H     0.40233   0.43209   0.37876   0.00000  Uiso   1.00
H21    H     0.47885   0.61205   0.33311   0.00000  Uiso   1.00
H22    H     0.52766   0.14363   0.48917   0.00000  Uiso   1.00
H23    H     0.53395   0.89319   0.51652   0.00000  Uiso   1.00
H24    H     0.56672   0.47511   0.65256   0.00000  Uiso   1.00
H25    H     0.48157   0.58600   0.67785   0.00000  Uiso   1.00
H26    H     0.48131   0.40995   0.32561   0.00000  Uiso   1.00
H27    H     0.57662   0.59496   0.35686   0.00000  Uiso   1.00
O9     O     0.58443   0.05627   0.73976   0.00000  Uiso   1.00
O10    O     0.54433   0.90876   0.82127   0.00000  Uiso   1.00
C57    C     0.60069   0.99966   0.79434   0.00000  Uiso   1.00
O11    O     0.44615   0.81521   0.66137   0.00000  Uiso   1.00
O12    O     0.58253   0.87841   0.64732   0.00000  Uiso   1.00
C58    C     0.51198   0.79842   0.63593   0.00000  Uiso   1.00
O13    O     0.53495   0.23252   0.68197   0.00000  Uiso   1.00
O14    O     0.39041   0.96972   0.76327   0.00000  Uiso   1.00
C59    C     0.32437   0.96842   0.72801   0.00000  Uiso   1.00
O15    O     0.48777   0.08077   0.60764   0.00000  Uiso   1.00
C60    C     0.51315   0.19399   0.61880   0.00000  Uiso   1.00
O16    O     0.32567   0.96393   0.65957   0.00000  Uiso   1.00
Fe2    Fe    0.47626   0.98141   0.69313   0.00000  Uiso   1.00
N5     N     0.37608   0.48234   0.62644   0.00000  Uiso   1.00
C61    C     0.33486   0.46908   0.68752   0.00000  Uiso   1.00
O17    O     0.36917   0.46516   0.74317   0.00000  Uiso   1.00
C62    C     0.24561   0.45351   0.68735   0.00000  Uiso   1.00
H28    H     0.34709   0.50274   0.58312   0.00000  Uiso   1.00
H29    H     0.22227   0.45491   0.63323   0.00000  Uiso   1.00
H30    H     0.23466   0.52509   0.71707   0.00000  Uiso   1.00
H31    H     0.21240   0.36836   0.71283   0.00000  Uiso   1.00
