# Generated by REPEAT Assigner based on pymatgen
data_DB0-m2_o16_o20_f0_pcu.sym.21
_audit_creation_date              2022-05-24
_audit_creation_method            REPEAT_Assigner
_cell_length_a                    12.166462
_cell_length_b                    13.420585
_cell_length_c                    14.439487
_cell_angle_alpha                 77.728319
_cell_angle_beta                  103.381047
_cell_angle_gamma                 116.302578
_cell_volume                      2039.794229
_symmetry_space_group_name_H-M    P1
_symmetry_Int_Tables_number       1
loop_
    _symmetry_equiv_pos_site_id
    _symmetry_equiv_pos_as_xyz
    1  x,y,z
loop_
    _atom_site_type_symbol
    _atom_site_label
    _atom_site_fract_x
    _atom_site_fract_y
    _atom_site_fract_z
    _atom_type_partial_charge
    O   O1   0.974871  0.320325  0.527471  -0.408585
    O   O2   0.805947  0.360560  0.491154  -0.513146
    C   C1   0.854149  0.287645  0.507760  0.548625
    O   O3   0.083394  0.476298  0.661674  -0.593100
    O   O4   0.915316  0.519375  0.622905  -0.636561
    C   C2   0.997524  0.494049  0.686019  0.910103
    Cu  Cu1  0.096805  0.475921  0.529444  0.675095
    Cu  Cu2  0.897557  0.523006  0.484488  0.830502
    O   O5   0.190210  0.638312  0.517997  -0.532615
    O   O6   0.018387  0.679413  0.477207  -0.540297
    O   O7   0.086959  0.489643  0.390815  -0.549065
    O   O8   0.913554  0.528195  0.351775  -0.600183
    C   C3   0.139385  0.710202  0.497314  0.658762
    C   C4   0.998806  0.507824  0.328124  0.862716
    C   C5   0.999721  0.495589  0.785537  -0.312165
    C   C6   0.000493  0.498279  0.868592  0.136393
    C   C7   0.000484  0.502228  0.965553  -0.031348
    C   C8   0.999999  0.505439  0.048231  -0.044640
    C   C9   0.999198  0.508269  0.145279  0.142301
    C   C10  0.998720  0.509217  0.228452  -0.326198
    C   C11  0.254663  0.017381  0.420432  -0.314153
    H   H1   0.076218  0.883241  0.422236  0.102749
    H   H2   0.417100  0.213870  0.366367  0.136351
    H   H3   0.216695  0.076972  0.383627  0.166049
    C   C12  0.222522  0.830053  0.484794  -0.129420
    C   C13  0.820188  0.086245  0.536423  0.118416
    C   C14  0.744631  0.977516  0.566064  -0.210304
    C   C15  0.619099  0.943087  0.557816  -0.084013
    C   C16  0.562826  0.014165  0.510257  -0.011148
    C   C17  0.639432  0.125915  0.482078  0.222036
    C   C18  0.432259  0.975946  0.488782  -0.016203
    C   C19  0.381594  0.050557  0.441246  0.278427
    C   C20  0.457048  0.157902  0.409062  -0.214404
    C   C21  0.583383  0.193701  0.425665  -0.203893
    C   C22  0.349959  0.864343  0.509627  -0.070446
    C   C23  0.175071  0.907747  0.442438  0.013495
    C   C24  0.770157  0.165511  0.505497  -0.207072
    H   H4   0.381586  0.800398  0.542840  0.078967
    H   H5   0.569246  0.857244  0.585404  0.134585
    H   H6   0.782739  0.916153  0.594323  0.140680
    H   H7   0.634606  0.273612  0.387667  0.145647
    C   C25  0.368502  0.354336  0.667817  -0.322214
    H   H8   0.559360  0.311592  0.692517  0.145339
    H   H9   0.380115  0.298917  0.731870  0.200143
    N   N1   0.246466  0.440385  0.563529  -0.030032
    C   C26  0.748602  0.638266  0.379896  0.041968
    C   C27  0.650535  0.668601  0.353168  -0.149669
    C   C28  0.549637  0.616245  0.400606  -0.110182
    C   C29  0.546791  0.532496  0.476630  0.056150
    C   C30  0.648580  0.503932  0.501543  0.210896
    C   C31  0.446922  0.477535  0.529844  -0.097917
    C   C32  0.456636  0.402079  0.609078  0.336967
    C   C33  0.554619  0.373313  0.631787  -0.278332
    C   C34  0.646857  0.420648  0.577382  -0.107938
    C   C35  0.337476  0.494590  0.507984  0.002091
    C   C36  0.265002  0.375377  0.646098  0.038512
    N   N2   0.746991  0.555829  0.452080  -0.143887
    H   H10  0.321623  0.550037  0.446140  0.128987
    H   H11  0.827054  0.681109  0.341784  0.127771
    H   H12  0.477111  0.645339  0.377049  0.127204
    H   H13  0.653125  0.734687  0.294763  0.125326
    H   H14  0.716691  0.389730  0.598956  0.169241
    N   N3   0.946435  0.111959  0.532654  0.653026
    O   O9   0.001266  0.054779  0.592857  -0.384342
    O   O10  0.991565  0.165076  0.454124  -0.415677
    N   N4   0.181891  0.329768  0.714589  0.733333
    O   O11  0.072878  0.250056  0.694393  -0.390651
    O   O12  0.228096  0.341607  0.804317  -0.419054
