# Generated by REPEAT Assigner based on pymatgen
data_DB0-m3_o16_o1510_f0_fsc.sym.14_sqe
_audit_creation_date              2022-05-24
_audit_creation_method            REPEAT_Assigner
_cell_length_a                    18.565195
_cell_length_b                    8.549497
_cell_length_c                    12.165339
_cell_angle_alpha                 90.000000
_cell_angle_beta                  74.530446
_cell_angle_gamma                 90.000000
_cell_volume                      1860.967153
_symmetry_space_group_name_H-M    P1
_symmetry_Int_Tables_number       1
loop_
    _symmetry_equiv_pos_site_id
    _symmetry_equiv_pos_as_xyz
    1  x,y,z
loop_
    _atom_site_type_symbol
    _atom_site_label
    _atom_site_fract_x
    _atom_site_fract_y
    _atom_site_fract_z
    _atom_type_partial_charge
    H   H1   0.548202  0.999580  0.386615  0.137530
    C   C1   0.466104  0.860443  0.499376  -0.036134
    C   C2   0.466530  0.138654  0.500099  -0.016626
    C   C3   0.399694  0.859325  0.583820  -0.246279
    C   C4   0.401750  0.139185  0.587672  -0.263029
    H   H2   0.375054  0.747610  0.613098  0.115484
    H   H3   0.380919  0.249715  0.626058  0.114466
    C   C5   0.365180  0.999622  0.625538  0.187826
    C   C6   0.496516  0.999595  0.453147  -0.132650
    C   C7   0.044869  0.130570  0.993796  -0.151156
    C   C8   0.025840  0.873048  0.932487  -0.163453
    H   H4   0.080710  0.230651  0.992150  0.101442
    H   H5   0.045678  0.772732  0.878895  0.127171
    C   C9   0.974154  0.129404  0.067286  -0.117709
    C   C10  0.953854  0.873964  0.002308  -0.142534
    H   H6   0.957504  0.228291  0.123368  0.108373
    H   H7   0.918858  0.774185  0.999641  0.104862
    C   C11  0.927557  0.001467  0.071878  0.019612
    C   C12  0.071289  0.001593  0.927645  0.083683
    C   C13  0.818129  0.859310  0.194862  -0.255038
    C   C14  0.816186  0.139305  0.191095  -0.268593
    H   H8   0.842962  0.747631  0.165935  0.125479
    H   H9   0.837310  0.249833  0.153036  0.115836
    C   C15  0.751319  0.860306  0.278453  -0.049932
    C   C16  0.750987  0.138901  0.277878  -0.029241
    C   C17  0.720641  0.999643  0.324250  -0.127900
    H   H10  0.668690  0.999637  0.390226  0.123934
    C   C18  0.852798  0.999649  0.153538  0.209210
    C   C19  0.192524  0.873011  0.847412  -0.125698
    C   C20  0.173461  0.130795  0.786628  -0.189019
    H   H11  0.172717  0.772541  0.900854  0.095812
    H   H12  0.137623  0.230948  0.788535  0.129028
    C   C21  0.264426  0.873917  0.777288  -0.173260
    C   C22  0.244078  0.129645  0.712859  -0.105772
    H   H13  0.299397  0.773966  0.779570  0.121931
    H   H14  0.260638  0.228638  0.656856  0.104146
    C   C23  0.290641  0.001545  0.707801  0.037488
    C   C24  0.147093  0.001671  0.852630  0.091406
    O   O1   0.520566  0.329892  0.360493  -0.747014
    O   O2   0.520427  0.669045  0.360469  -0.742688
    O   O3   0.547154  0.335742  0.535187  -0.687983
    O   O4   0.547165  0.663813  0.534985  -0.698074
    C   C25  0.510277  0.280446  0.465625  0.828836
    C   C26  0.509999  0.718579  0.465454  0.841953
    O   O5   0.697235  0.330861  0.417473  -0.736383
    O   O6   0.697311  0.668314  0.417428  -0.727992
    O   O7   0.670708  0.336695  0.242093  -0.696607
    O   O8   0.670647  0.662775  0.242212  -0.701408
    C   C27  0.707386  0.281173  0.312158  0.852332
    C   C28  0.707580  0.717968  0.312237  0.853868
    Zn  Zn1  0.628119  0.499700  0.500835  1.066999
    Zn  Zn2  0.589363  0.499606  0.277625  1.039986
    C   C29  0.463621  0.499930  0.065474  -0.250634
    H   H15  0.451885  0.499582  0.243489  0.155139
    H   H16  0.423782  0.500316  0.877559  0.152182
    H   H17  0.403926  0.500035  0.076094  0.149296
    N   N1   0.564677  0.499585  0.148178  0.144469
    C   C30  0.727195  0.499614  0.614031  0.149049
    C   C31  0.758445  0.499666  0.704156  -0.153383
    C   C32  0.713811  0.499821  0.813773  0.046976
    C   C33  0.636670  0.499854  0.833611  -0.064887
    C   C34  0.606793  0.499890  0.739208  0.202999
    C   C35  0.588692  0.499838  0.944963  0.101054
    C   C36  0.512344  0.500012  0.958465  0.249516
    C   C37  0.483586  0.500185  0.865811  -0.244574
    C   C38  0.529978  0.500042  0.757595  -0.168037
    C   C39  0.613895  0.499632  0.043945  -0.257832
    C   C40  0.490663  0.499669  0.159640  -0.072021
    N   N2   0.652469  0.499780  0.630888  -0.118472
    H   H18  0.672080  0.499501  0.041685  0.198885
    H   H19  0.763804  0.499488  0.528599  0.097358
    H   H20  0.742062  0.499912  0.880080  0.091905
    H   H21  0.503508  0.500041  0.689718  0.195417
    Br  Br1  0.864410  0.499552  0.676978  -0.010921
