# Generated by REPEAT Assigner based on pymatgen
data_DB0-m3_o6_unc_sqe
_audit_creation_date              2022-05-24
_audit_creation_method            REPEAT_Assigner
_cell_length_a                    21.282209
_cell_length_b                    32.528746
_cell_length_c                    32.535501
_cell_angle_alpha                 89.995963
_cell_angle_beta                  89.938972
_cell_angle_gamma                 90.043515
_cell_volume                      22523.773654
_symmetry_space_group_name_H-M    P1
_symmetry_Int_Tables_number       1
loop_
    _symmetry_equiv_pos_site_id
    _symmetry_equiv_pos_as_xyz
    1  x,y,z
loop_
    _atom_site_type_symbol
    _atom_site_label
    _atom_site_fract_x
    _atom_site_fract_y
    _atom_site_fract_z
    _atom_type_partial_charge
    O   O1   0.017618  0.460170  0.554809  -0.671201
    O   O2   0.086025  0.548158  0.498448  -0.671119
    O   O3   0.020621  0.548881  0.553680  -0.695337
    O   O4   0.084396  0.459439  0.500273  -0.692938
    C   C1   0.067406  0.445100  0.536566  0.775909
    C   C2   0.070766  0.563111  0.534472  0.774707
    O   O5   0.982561  0.460275  0.445026  -0.672079
    O   O6   0.914092  0.548035  0.501571  -0.670683
    O   O7   0.979498  0.548998  0.446346  -0.698309
    O   O8   0.915799  0.459313  0.499567  -0.695350
    Zn  Zn1  0.957108  0.504178  0.535647  1.298947
    Zn  Zn2  0.043016  0.504324  0.464296  1.299548
    C   C3   0.932799  0.445084  0.463243  0.788496
    C   C4   0.929341  0.563110  0.465587  0.787249
    O   O9   0.586187  0.812171  0.501536  -0.671308
    O   O10  0.517854  0.899970  0.445043  -0.669019
    O   O11  0.584524  0.900893  0.499540  -0.695758
    O   O12  0.520898  0.811234  0.446341  -0.700327
    C   C5   0.571008  0.797108  0.465558  0.796073
    C   C6   0.567591  0.915144  0.463232  0.784650
    O   O13  0.414248  0.812087  0.498498  -0.669413
    O   O14  0.482601  0.900042  0.554837  -0.670384
    O   O15  0.415934  0.900805  0.500337  -0.696658
    O   O16  0.479543  0.811329  0.553691  -0.695610
    Zn  Zn3  0.543117  0.856026  0.535635  1.302384
    Zn  Zn4  0.457365  0.855917  0.464336  1.301902
    C   C7   0.429428  0.797116  0.534509  0.776388
    C   C8   0.432861  0.915131  0.536621  0.788859
    O   O17  0.232766  0.235152  0.779936  -0.672595
    O   O18  0.164331  0.178730  0.867862  -0.669710
    O   O19  0.229686  0.233981  0.868624  -0.695147
    O   O20  0.166033  0.180595  0.779160  -0.697675
    C   C9   0.183008  0.216905  0.764848  0.797781
    C   C10  0.179545  0.214756  0.882833  0.774241
    O   O21  0.267895  0.125347  0.779981  -0.668085
    O   O22  0.336246  0.181872  0.867779  -0.673185
    O   O23  0.270889  0.126621  0.868700  -0.700778
    O   O24  0.334624  0.179905  0.779066  -0.691119
    Zn  Zn5  0.293247  0.215964  0.823933  1.301879
    Zn  Zn6  0.207406  0.144599  0.824029  1.300525
    C   C11  0.317658  0.143581  0.764814  0.761596
    C   C12  0.321014  0.145871  0.882830  0.796303
    O   O25  0.664019  0.181870  0.131878  -0.674971
    O   O26  0.732281  0.125342  0.219670  -0.668862
    O   O27  0.665649  0.179886  0.220584  -0.690504
    O   O28  0.729275  0.126635  0.130956  -0.703355
    C   C13  0.679183  0.145874  0.116827  0.806016
    C   C14  0.682552  0.143565  0.234838  0.764025
    O   O29  0.835933  0.178774  0.131795  -0.667697
    O   O30  0.767593  0.235157  0.219715  -0.675754
    O   O31  0.834228  0.180616  0.220497  -0.699854
    O   O32  0.770661  0.234003  0.131025  -0.691922
    Zn  Zn7  0.707071  0.215972  0.175719  1.301689
    Zn  Zn8  0.792800  0.144618  0.175624  1.300685
    C   C15  0.820774  0.214795  0.116819  0.760415
    C   C16  0.817313  0.216920  0.234809  0.805503
    H   H1   0.772361  0.751673  0.428458  0.153407
    C   C17  0.810356  0.691396  0.437148  -0.191670
    H   H2   0.857379  0.700516  0.428463  0.148630
    C   C18  0.798556  0.651041  0.448146  0.302240
    C   C19  0.738062  0.639996  0.459168  -0.201292
    H   H3   0.728082  0.608586  0.467848  0.153137
    C   C20  0.690084  0.668866  0.459163  -0.180124
    H   H4   0.643057  0.659745  0.467839  0.147054
    C   C21  0.701876  0.709215  0.448138  0.286128
    C   C22  0.762379  0.720264  0.437145  -0.197042
    C   C23  0.848834  0.620769  0.448101  -0.150093
    C   C24  0.651571  0.739468  0.448082  -0.140200
    C   C25  0.609500  0.764772  0.447828  -0.140123
    C   C26  0.890878  0.595445  0.447877  -0.135416
    H   H5   0.273652  0.719119  0.614946  0.147924
    C   C27  0.215446  0.673180  0.587226  -0.195767
    H   H6   0.188563  0.667934  0.614941  0.149388
    C   C28  0.201666  0.651028  0.552079  0.304830
    C   C29  0.236619  0.658202  0.516929  -0.189586
    H   H7   0.226426  0.641142  0.489215  0.154300
    C   C30  0.284638  0.687091  0.516932  -0.206264
    H   H8   0.311528  0.692341  0.489219  0.159967
    C   C31  0.298426  0.709236  0.552085  0.302406
    C   C32  0.263463  0.702065  0.587229  -0.188362
    C   C33  0.151339  0.620744  0.552087  -0.160858
    C   C34  0.348777  0.739502  0.552102  -0.157819
    C   C35  0.390922  0.764794  0.552320  -0.119372
    C   C36  0.109219  0.595434  0.552272  -0.119857
    H   H9   0.202332  0.331273  0.588413  0.151642
    C   C37  0.176192  0.298598  0.642914  -0.180409
    H   H10  0.216289  0.278269  0.641522  0.149058
    C   C38  0.133176  0.294558  0.674555  0.289964
    C   C39  0.082180  0.320866  0.675806  -0.201850
    H   H11  0.048162  0.318092  0.700343  0.152053
    C   C40  0.074306  0.350771  0.645844  -0.187033
    H   H12  0.034207  0.371100  0.647233  0.154351
    C   C41  0.117313  0.354802  0.614197  0.301394
    C   C42  0.168316  0.328501  0.612953  -0.205061
    C   C43  0.141409  0.263199  0.705934  -0.135534
    C   C44  0.109051  0.386132  0.582794  -0.151657
    C   C45  0.102213  0.412332  0.556507  -0.130053
    C   C46  0.148215  0.236868  0.732094  -0.144591
    H   H13  0.884887  0.342860  0.282288  0.149262
    C   C47  0.888450  0.364600  0.344328  -0.178729
    H   H14  0.898940  0.395868  0.335394  0.146671
    C   C48  0.883047  0.354759  0.385539  0.282195
    C   C49  0.869608  0.314580  0.396355  -0.194996
    H   H15  0.865241  0.306413  0.428435  0.149867
    C   C50  0.861685  0.284676  0.366398  -0.182231
    H   H16  0.851200  0.253408  0.375335  0.145935
    C   C51  0.867088  0.294514  0.325187  0.280438
    C   C52  0.880522  0.334695  0.314369  -0.190370
    C   C53  0.891330  0.386099  0.416936  -0.130503
    C   C54  0.858815  0.263168  0.293795  -0.125386
    C   C55  0.852107  0.236875  0.267585  -0.156129
    C   C56  0.898049  0.412295  0.443242  -0.148482
    H   H17  0.293751  0.983080  0.634130  0.151613
    C   C57  0.321931  0.036109  0.668426  -0.193402
    H   H18  0.279933  0.036219  0.687137  0.157177
    C   C58  0.367425  0.065871  0.674508  0.307928
    C   C59  0.420837  0.065215  0.650260  -0.208360
    H   H19  0.456812  0.088268  0.654648  0.152144
    C   C60  0.428636  0.035237  0.620358  -0.179826
    H   H20  0.470633  0.035130  0.601646  0.149671
    C   C61  0.383134  0.005482  0.614266  0.292132
    C   C62  0.329729  0.006131  0.638522  -0.198501
    C   C63  0.359242  0.097294  0.705835  -0.159684
    C   C64  0.391291  0.974086  0.582908  -0.142630
    C   C65  0.398046  0.947908  0.556585  -0.134963
    C   C66  0.352456  0.123597  0.732030  -0.117561
    H   H21  0.713651  0.031467  0.306982  0.154361
    C   C67  0.666850  0.003483  0.358094  -0.204026
    H   H22  0.699888  0.978337  0.360025  0.153068
    C   C68  0.617207  0.005495  0.385491  0.291981
    C   C69  0.575434  0.037906  0.382521  -0.177524
    H   H23  0.536401  0.039898  0.403709  0.147518
    C   C70  0.583201  0.067878  0.352598  -0.207368
    H   H24  0.550167  0.093025  0.350670  0.152111
    C   C71  0.632852  0.065872  0.325208  0.303655
    C   C72  0.674617  0.033455  0.328170  -0.186380
    C   C73  0.609088  0.974104  0.416870  -0.140813
    C   C74  0.641000  0.097286  0.293856  -0.155722
    C   C75  0.647735  0.123577  0.267633  -0.121277
    C   C76  0.602389  0.947933  0.443216  -0.134787
    H   H25  0.024009  0.295226  0.960830  0.147710
    C   C77  0.965680  0.267517  0.006761  -0.199160
    H   H26  0.938906  0.295251  0.012012  0.149894
    C   C78  0.951753  0.232364  0.028905  0.308513
    C   C79  0.986569  0.197192  0.021726  -0.189009
    H   H27  0.976260  0.169473  0.038780  0.154235
    C   C80  0.034595  0.197177  0.992838  -0.210291
    H   H28  0.061376  0.169446  0.987584  0.162026
    C   C81  0.048529  0.232336  0.970702  0.305444
    C   C82  0.013704  0.267503  0.977878  -0.187180
    C   C83  0.901419  0.232390  0.059188  -0.166939
    C   C84  0.098889  0.232336  0.940437  -0.160920
    C   C85  0.141044  0.232539  0.915149  -0.115966
    C   C86  0.859295  0.232589  0.084497  -0.110122
    H   H29  0.608817  0.142335  0.978343  0.147440
    C   C87  0.513131  0.136219  0.959086  -0.206612
    H   H30  0.523835  0.142332  0.927182  0.155405
    C   C88  0.451742  0.128443  0.970756  0.302083
    C   C89  0.439026  0.120700  0.011737  -0.189752
    H   H31  0.391298  0.114575  0.021350  0.147790
    C   C90  0.486979  0.120704  0.040607  -0.198804
    H   H32  0.476274  0.114583  0.072510  0.153068
    C   C91  0.548375  0.128449  0.028934  0.290293
    C   C92  0.561085  0.136221  0.987957  -0.180758
    C   C93  0.401485  0.128388  0.940485  -0.147282
    C   C94  0.598652  0.128398  0.059191  -0.139812
    C   C95  0.640698  0.128150  0.084500  -0.145414
    C   C96  0.359460  0.128152  0.915161  -0.140861
