# Generated by REPEAT Assigner based on pymatgen
data_DB0-m2_o6_o22_f0_pcu.sym.83
_audit_creation_date              2022-05-24
_audit_creation_method            REPEAT_Assigner
_cell_length_a                    16.044485
_cell_length_b                    14.619274
_cell_length_c                    10.668169
_cell_angle_alpha                 90.000000
_cell_angle_beta                  89.997026
_cell_angle_gamma                 90.000000
_cell_volume                      2502.312170
_symmetry_space_group_name_H-M    P1
_symmetry_Int_Tables_number       1
loop_
    _symmetry_equiv_pos_site_id
    _symmetry_equiv_pos_as_xyz
    1  x,y,z
loop_
    _atom_site_type_symbol
    _atom_site_label
    _atom_site_fract_x
    _atom_site_fract_y
    _atom_site_fract_z
    _atom_type_partial_charge
    O   O1   0.378635  0.578524  0.497851  -0.593974
    O   O2   0.378702  0.421316  0.497835  -0.604288
    C   C1   0.339829  0.499908  0.501313  0.800919
    O   O3   0.502365  0.578680  0.319710  -0.598429
    O   O4   0.502485  0.421253  0.319646  -0.607880
    C   C2   0.500271  0.500008  0.260950  0.478721
    Cu  Cu1  0.499739  0.591531  0.501853  1.012249
    Cu  Cu2  0.499820  0.408403  0.501844  0.993331
    O   O5   0.620877  0.578787  0.497848  -0.575181
    O   O6   0.620943  0.421239  0.497848  -0.586698
    O   O7   0.502350  0.578512  0.683967  -0.619506
    O   O8   0.502458  0.421397  0.684017  -0.624891
    C   C3   0.659699  0.500022  0.501337  0.828568
    C   C4   0.500251  0.499994  0.742792  0.427592
    C   C5   0.497312  0.597908  0.072741  -0.120635
    C   C6   0.424986  0.448378  0.072880  -0.093039
    H   H1   0.552540  0.636671  0.105840  0.019590
    H   H2   0.426665  0.376616  0.106507  0.012004
    H   H3   0.439697  0.632119  0.106119  0.020052
    H   H4   0.367221  0.481461  0.107584  0.016942
    C   C7   0.497411  0.597903  0.930971  -0.077029
    C   C8   0.424909  0.448487  0.930887  -0.050549
    H   H5   0.439909  0.632249  0.897428  0.005828
    H   H6   0.367183  0.481784  0.896428  -0.002106
    H   H7   0.552757  0.636528  0.898005  0.013101
    H   H8   0.426388  0.376776  0.897043  0.005331
    H   H9   0.634712  0.492244  0.107337  0.006953
    H   H10  0.582472  0.382875  0.106807  0.008787
    H   H11  0.634694  0.491899  0.896111  0.009661
    H   H12  0.582200  0.382676  0.897134  0.012317
    C   C9   0.579294  0.454490  0.072895  -0.048404
    C   C10  0.500524  0.500159  0.120854  0.345885
    C   C11  0.500508  0.500146  0.882880  0.424911
    C   C12  0.579223  0.454361  0.930814  -0.088738
    C   C13  0.956606  0.581858  0.497191  -0.102115
    C   C14  0.956705  0.417923  0.499617  -0.120621
    C   C15  0.913785  0.499869  0.498490  0.094691
    C   C16  0.042927  0.417999  0.497153  -0.135785
    C   C17  0.042824  0.581932  0.499609  -0.141474
    C   C18  0.085748  0.499991  0.498447  0.137593
    C   C19  0.824244  0.499898  0.499142  0.017854
    C   C20  0.175285  0.499982  0.499081  -0.030455
    C   C21  0.250395  0.499918  0.499922  -0.247225
    C   C22  0.749132  0.499994  0.499977  -0.301195
    H   H13  0.598338  0.084054  0.635681  0.177611
    H   H14  0.598255  0.915790  0.635708  0.156502
    C   C23  0.554991  0.952779  0.576851  -0.156557
    C   C24  0.555040  0.047106  0.576832  -0.198587
    C   C25  0.499756  0.905639  0.501786  0.215517
    C   C26  0.499854  0.094296  0.501746  0.254357
    C   C27  0.444571  0.952828  0.426695  -0.153975
    C   C28  0.444620  0.047157  0.426676  -0.200904
    H   H15  0.401269  0.915881  0.367852  0.155525
    H   H16  0.401352  0.084146  0.367825  0.178590
    C   C29  0.499720  0.807480  0.501804  0.106242
    C   C30  0.499877  0.192454  0.501768  0.067716
    N   N1   0.499881  0.271597  0.501794  -0.179154
    N   N2   0.499707  0.728337  0.501822  -0.218119
    C   C31  0.088925  0.668300  0.499354  0.357235
    C   C32  0.125258  0.700591  0.608214  -0.072346
    Cl  Cl1  0.115711  0.639291  0.748633  -0.052982
    C   C33  0.168667  0.782013  0.607053  -0.065478
    C   C34  0.176082  0.831230  0.497402  -0.173003
    C   C35  0.140078  0.799045  0.388711  -0.095541
    C   C36  0.096568  0.717715  0.389667  -0.221621
    H   H17  0.196857  0.807322  0.692300  0.098261
    H   H18  0.210164  0.895013  0.496643  0.128075
    H   H19  0.146046  0.837520  0.302646  0.108954
    H   H20  0.068931  0.692431  0.304041  0.113398
    C   C37  0.089225  0.331755  0.497574  0.365243
    C   C38  0.125920  0.299670  0.388871  -0.064170
    Cl  Cl2  0.116315  0.360901  0.248407  -0.059550
    C   C39  0.169817  0.218566  0.390250  -0.063342
    C   C40  0.177362  0.169461  0.499973  -0.175730
    C   C41  0.140996  0.201439  0.608513  -0.087884
    C   C42  0.097008  0.282459  0.607341  -0.247981
    H   H21  0.198313  0.193435  0.305130  0.092077
    H   H22  0.211844  0.105938  0.500911  0.125860
    H   H23  0.147089  0.163068  0.694643  0.110819
    H   H24  0.069171  0.307631  0.692883  0.123925
    C   C43  0.910321  0.668108  0.497659  0.329171
    C   C44  0.873637  0.700233  0.388979  -0.056004
    Cl  Cl3  0.883202  0.639016  0.248495  -0.055114
    C   C45  0.829790  0.781370  0.390393  -0.069663
    C   C46  0.822284  0.830465  0.500131  -0.174895
    C   C47  0.858638  0.798444  0.608652  -0.097416
    C   C48  0.902576  0.717393  0.607443  -0.218614
    H   H25  0.801306  0.806534  0.305288  0.098718
    H   H26  0.787845  0.894015  0.501098  0.130996
    H   H27  0.852577  0.836809  0.694794  0.109393
    H   H28  0.930412  0.692192  0.692966  0.115344
    C   C49  0.910606  0.331554  0.499419  0.371739
    C   C50  0.874318  0.299274  0.608319  -0.072280
    Cl  Cl4  0.883922  0.360589  0.748716  -0.060584
    C   C51  0.830912  0.217848  0.607226  -0.063624
    C   C52  0.823459  0.168615  0.497596  -0.175511
    C   C53  0.859421  0.200788  0.388859  -0.082739
    C   C54  0.902928  0.282122  0.389751  -0.250165
    H   H29  0.802758  0.192548  0.692508  0.094099
    H   H30  0.789383  0.104828  0.496891  0.124131
    H   H31  0.853425  0.162300  0.302812  0.109636
    H   H32  0.930538  0.307394  0.304094  0.121734
