# Generated by REPEAT Assigner based on pymatgen
data_DB0-m2_o24_o24_f0_nbo.sym.94
_audit_creation_date              2022-05-24
_audit_creation_method            REPEAT_Assigner
_cell_length_a                    30.087770
_cell_length_b                    21.412285
_cell_length_c                    21.355024
_cell_angle_alpha                 90.000000
_cell_angle_beta                  134.786443
_cell_angle_gamma                 90.000000
_cell_volume                      9764.518137
_symmetry_space_group_name_H-M    P1
_symmetry_Int_Tables_number       1
loop_
    _symmetry_equiv_pos_site_id
    _symmetry_equiv_pos_as_xyz
    1  x,y,z
loop_
    _atom_site_type_symbol
    _atom_site_label
    _atom_site_fract_x
    _atom_site_fract_y
    _atom_site_fract_z
    _atom_type_partial_charge
    C   C1    0.124088  0.498287  0.123838  0.603985
    C   C2    0.048033  0.263796  0.018568  0.626639
    C   C3    0.975571  0.949303  0.699637  -0.111295
    C   C4    0.940848  0.996689  0.705581  -0.007917
    C   C5    0.440848  0.496689  0.705581  -0.008286
    C   C6    0.996884  0.999602  0.804282  0.284669
    C   C7    0.496884  0.499602  0.804282  0.285040
    C   C8    0.014040  0.940991  0.238990  -0.210229
    C   C9    0.029971  0.041330  0.256947  -0.179514
    C   C10   0.514040  0.440991  0.238990  -0.210234
    C   C11   0.529971  0.541330  0.256947  -0.179493
    C   C12   0.551071  0.485718  0.315788  0.610922
    C   C13   0.547305  0.229462  0.015927  0.768321
    C   C14   0.051071  0.985718  0.315788  0.610918
    C   C15   0.497544  0.493309  0.307334  0.019024
    C   C16   0.997544  0.993309  0.307334  0.018995
    C   C17   0.458903  0.448524  0.229595  -0.130599
    C   C18   0.474524  0.549052  0.247007  -0.191101
    C   C19   0.958903  0.948524  0.229595  -0.130556
    C   C20   0.974524  0.049052  0.247007  -0.191058
    C   C21   0.937485  0.004061  0.170230  0.528128
    C   C22   0.437485  0.504061  0.170230  0.528178
    C   C23   0.991204  0.996671  0.178858  -0.033752
    C   C24   0.548033  0.763796  0.018568  0.626725
    C   C25   0.491204  0.496671  0.178858  -0.033776
    C   C26   0.182302  0.562596  0.321301  0.815215
    C   C27   0.162645  0.567873  0.368444  -0.521396
    C   C28   0.682302  0.062596  0.321301  0.815245
    C   C29   0.662645  0.067873  0.368444  -0.521435
    C   C30   0.690050  0.645308  0.740096  0.805826
    C   C31   0.670485  0.693272  0.767187  -0.484809
    C   C32   0.679504  0.383062  0.765165  0.831495
    C   C33   0.655116  0.320151  0.757793  -0.500072
    C   C34   0.190050  0.145308  0.740096  0.805862
    C   C35   0.995694  0.767756  0.935366  -0.237157
    C   C36   0.170485  0.193272  0.767187  -0.484815
    C   C37   0.179504  0.883062  0.765165  0.831498
    C   C38   0.155116  0.820151  0.757793  -0.500095
    C   C39   0.665326  0.515417  0.918561  0.860886
    C   C40   0.730607  0.527320  0.962217  -0.540884
    C   C41   0.165326  0.015417  0.918561  0.860902
    C   C42   0.230607  0.027320  0.962217  -0.540899
    C   C43   0.629487  0.419364  0.435446  0.801711
    C   C44   0.696949  0.402995  0.507371  -0.505890
    C   C45   0.129487  0.919364  0.435446  0.801689
    C   C46   0.999995  0.225612  0.935950  -0.197140
    C   C47   0.196949  0.902995  0.507371  -0.505856
    C   C48   0.139667  0.746906  0.048262  0.783487
    C   C49   0.195595  0.721435  0.070924  -0.406791
    C   C50   0.111692  0.306170  0.000477  0.851873
    C   C51   0.175255  0.316384  0.036825  -0.506656
    C   C52   0.639667  0.246906  0.048262  0.783413
    C   C53   0.695595  0.221435  0.070924  -0.406672
    C   C54   0.611692  0.806170  0.000477  0.851885
    C   C55   0.675255  0.816384  0.036825  -0.506666
    C   C56   0.854423  0.063363  0.042390  0.774927
    C   C57   0.495694  0.267756  0.935366  -0.237122
    C   C58   0.786409  0.069112  0.960927  -0.457553
    C   C59   0.354423  0.563363  0.042390  0.774923
    C   C60   0.286409  0.569112  0.960927  -0.457560
    C   C61   0.900627  0.820222  0.013832  0.805943
    C   C62   0.841897  0.843128  0.985247  -0.448979
    C   C63   0.838195  0.192508  0.845695  0.807518
    C   C64   0.775381  0.181554  0.811383  -0.487375
    C   C65   0.400627  0.320222  0.013832  0.805981
    C   C66   0.341897  0.343128  0.985247  -0.448981
    C   C67   0.338195  0.692508  0.845695  0.807491
    C   C68   0.499995  0.725612  0.935950  -0.197196
    C   C69   0.275381  0.681554  0.811383  -0.487357
    C   C70   0.318497  0.350244  0.373697  0.795382
    C   C71   0.337957  0.301332  0.438564  -0.455890
    C   C72   0.332478  0.608616  0.430800  0.809876
    C   C73   0.355266  0.670702  0.474927  -0.458598
    C   C74   0.818497  0.850244  0.373697  0.795479
    C   C75   0.837957  0.801332  0.438564  -0.455872
    C   C76   0.832478  0.108616  0.430800  0.809874
    C   C77   0.855266  0.170702  0.474927  -0.458603
    C   C78   0.997197  0.808399  0.995140  0.076884
    C   C79   0.991138  0.187160  0.986273  0.045022
    C   C80   0.497197  0.308399  0.995140  0.076788
    C   C81   0.624088  0.998287  0.123838  0.603794
    C   C82   0.491138  0.687160  0.986273  0.044976
    C   C83   0.050220  0.770352  0.076267  -0.225172
    C   C84   0.040737  0.224812  0.069782  -0.186860
    C   C85   0.550220  0.270352  0.076267  -0.225142
    C   C86   0.540737  0.724812  0.069782  -0.186854
    C   C87   0.002120  0.727478  0.060159  -0.156221
    C   C88   0.990086  0.269969  0.042261  -0.180811
    C   C89   0.502120  0.227478  0.060159  -0.156195
    C   C90   0.490086  0.769969  0.042261  -0.180817
    C   C91   0.950632  0.766141  0.979843  0.564841
    C   C92   0.003889  0.617837  0.002484  0.755507
    C   C93   0.941920  0.232125  0.959136  0.611138
    C   C94   0.450632  0.266141  0.979843  0.564906
    C   C95   0.441920  0.732125  0.959136  0.611173
    C   C96   0.947762  0.725045  0.919544  -0.175900
    C   C97   0.949494  0.271553  0.908462  -0.182077
    C   C98   0.447762  0.225045  0.919544  -0.175859
    C   C99   0.449494  0.771553  0.908462  -0.182009
    C   C100  0.000757  0.687162  0.000438  -0.155775
    C   C101  0.999118  0.308738  0.992375  -0.061678
    C   C102  0.500757  0.187162  0.000438  -0.156016
    C   C103  0.003120  0.378144  0.997258  0.642918
    C   C104  0.499118  0.808738  0.992375  -0.061811
    C   C105  0.232858  0.442552  0.212386  -0.234277
    C   C106  0.235825  0.542904  0.201633  -0.251462
    C   C107  0.732858  0.942552  0.212386  -0.234090
    C   C108  0.735825  0.042904  0.201633  -0.251477
    C   C109  0.276030  0.487802  0.219963  0.097645
    C   C110  0.776030  0.987802  0.219963  0.097430
    C   C111  0.316543  0.494516  0.318545  -0.319299
    C   C112  0.816543  0.994516  0.318545  -0.319051
    C   C113  0.273528  0.450492  0.310320  0.568961
    C   C114  0.503889  0.117837  0.002484  0.755720
    C   C115  0.276429  0.548281  0.300007  0.590847
    C   C116  0.773528  0.950492  0.310320  0.568791
    C   C117  0.776429  0.048281  0.300007  0.590878
    C   C118  0.234030  0.504494  0.292552  0.125918
    C   C119  0.734030  0.004494  0.292552  0.125602
    C   C120  0.193676  0.497647  0.195168  0.120295
    C   C121  0.693676  0.997647  0.195168  0.120577
    C   C122  0.775927  0.555549  0.748488  -0.277717
    C   C123  0.774251  0.456095  0.729593  -0.210468
    C   C124  0.275927  0.055549  0.748488  -0.277761
    C   C125  0.503120  0.878144  0.997258  0.643004
    C   C126  0.274251  0.956095  0.729593  -0.210501
    C   C127  0.733657  0.511390  0.669068  0.032599
    C   C128  0.233657  0.011390  0.669068  0.032601
    C   C129  0.692952  0.502067  0.686380  -0.218386
    C   C130  0.192952  0.002067  0.686380  -0.218359
    C   C131  0.735094  0.545004  0.764717  0.632852
    C   C132  0.733638  0.448352  0.746582  0.646754
    C   C133  0.235094  0.045004  0.764717  0.632895
    C   C134  0.233638  0.948352  0.746582  0.646768
    C   C135  0.775120  0.490735  0.826144  -0.369276
    C   C136  0.884142  0.499289  0.877544  0.552344
    C   C137  0.275120  0.990735  0.826144  -0.369314
    C   C138  0.814786  0.500128  0.807479  0.211977
    C   C139  0.314786  0.000128  0.807479  0.212092
    C   C140  0.994903  0.998132  0.872025  0.501008
    C   C141  0.494903  0.498132  0.872025  0.500916
    C   C142  0.995517  0.877852  0.992978  0.604416
    C   C143  0.990820  0.117618  0.988031  0.565060
    C   C144  0.495517  0.377852  0.992978  0.604487
    C   C145  0.490820  0.617618  0.988031  0.565119
    C   C146  0.991332  0.997603  0.109079  0.722882
    C   C147  0.384142  0.999289  0.877544  0.552227
    C   C148  0.491332  0.497603  0.109079  0.722917
    C   C149  0.502229  0.494185  0.381674  0.602512
    C   C150  0.002229  0.994185  0.381674  0.602511
    C   C151  0.386287  0.495605  0.387005  0.724190
    C   C152  0.886287  0.995605  0.387005  0.724141
    C   C153  0.506320  0.502189  0.622724  0.554023
    C   C154  0.006320  0.002189  0.622724  0.553913
    C   C155  0.623142  0.500826  0.617838  0.622930
    C   C156  0.123142  0.000826  0.617838  0.622920
    C   C157  0.024188  0.053325  0.794304  -0.285101
    C   C158  0.047305  0.729462  0.015927  0.768286
    C   C159  0.031656  0.951984  0.799577  -0.238828
    C   C160  0.524188  0.553325  0.794304  -0.285286
    C   C161  0.531656  0.451984  0.799577  -0.239069
    C   C162  0.557366  0.505647  0.787426  0.500795
    C   C163  0.057366  0.005647  0.787426  0.500570
    C   C164  0.503064  0.502700  0.689379  0.151785
    C   C165  0.003064  0.002700  0.689379  0.152028
    C   C166  0.468318  0.550119  0.694414  -0.061649
    C   C167  0.475571  0.449303  0.699637  -0.111060
    C   C168  0.968318  0.050119  0.694414  -0.061799
    Cu  Cu1   0.002162  0.496868  0.060996  0.961630
    Cu  Cu2   0.506069  0.437390  0.506021  0.900053
    Cu  Cu3   0.003324  0.059020  0.499115  0.926416
    Cu  Cu4   0.006069  0.937390  0.506021  0.900031
    Cu  Cu5   0.502162  0.996868  0.060996  0.961457
    Cu  Cu6   0.005927  0.499146  0.939975  0.977503
    Cu  Cu7   0.505927  0.999146  0.939975  0.977674
    Cu  Cu8   0.930739  0.996706  0.927429  0.906831
    Cu  Cu9   0.430739  0.496706  0.927429  0.906826
    Cu  Cu10  0.055454  0.998679  0.053533  0.995175
    Cu  Cu11  0.555454  0.498679  0.053533  0.995222
    Cu  Cu12  0.503324  0.559020  0.499115  0.926421
    H   H1    0.994709  0.784671  0.885317  0.092698
    H   H2    0.984310  0.287872  0.084909  0.098304
    H   H3    0.776397  0.193879  0.862822  0.139848
    H   H4    0.762481  0.131745  0.792881  0.145158
    H   H5    0.740353  0.210969  0.752175  0.138794
    H   H6    0.311981  0.302764  0.968372  0.125727
    H   H7    0.316423  0.373552  0.926537  0.135589
    H   H8    0.353612  0.370226  0.039558  0.141018
    H   H9    0.276397  0.693879  0.862822  0.139846
    H   H10   0.262481  0.631745  0.792881  0.145153
    H   H11   0.240353  0.710969  0.752175  0.138791
    H   H12   0.326094  0.316739  0.474930  0.129198
    H   H13   0.503070  0.210532  0.110164  0.097952
    H   H14   0.389210  0.293782  0.485834  0.146450
    H   H15   0.313084  0.257116  0.403269  0.136225
    H   H16   0.339145  0.707260  0.425865  0.117276
    H   H17   0.407169  0.670520  0.528085  0.150841
    H   H18   0.336424  0.680550  0.503599  0.142968
    H   H19   0.826094  0.816739  0.474930  0.129183
    H   H20   0.889210  0.793782  0.485834  0.146442
    H   H21   0.813084  0.757116  0.403269  0.136214
    H   H22   0.839145  0.207260  0.425865  0.117278
    H   H23   0.907169  0.170520  0.528085  0.150849
    H   H24   0.484310  0.787872  0.084909  0.098308
    H   H25   0.836424  0.180550  0.503599  0.142965
    H   H26   0.904305  0.705795  0.855545  0.106008
    H   H27   0.911071  0.291784  0.841880  0.109862
    H   H28   0.404305  0.205795  0.855545  0.105999
    H   H29   0.411071  0.791784  0.841880  0.109848
    H   H30   0.294028  0.480686  0.189644  0.032145
    H   H31   0.794028  0.980686  0.189644  0.032191
    H   H32   0.213944  0.397702  0.176173  0.104158
    H   H33   0.005153  0.206535  0.893063  0.118045
    H   H34   0.219684  0.582243  0.156017  0.097755
    H   H35   0.713944  0.897702  0.176173  0.104107
    H   H36   0.719684  0.082243  0.156017  0.097753
    H   H37   0.715896  0.520556  0.603552  0.074384
    H   H38   0.215896  0.020556  0.603552  0.074384
    H   H39   0.795183  0.600885  0.751480  0.122932
    H   H40   0.792614  0.417773  0.718159  0.096423
    H   H41   0.295183  0.100885  0.751480  0.122945
    H   H42   0.292614  0.917773  0.718159  0.096426
    H   H43   0.792547  0.481701  0.891483  0.124592
    H   H44   0.494709  0.284671  0.885317  0.092690
    H   H45   0.292547  0.981701  0.891483  0.124595
    H   H46   0.045367  0.096157  0.835425  0.100915
    H   H47   0.058750  0.911682  0.844633  0.117968
    H   H48   0.545367  0.596157  0.835425  0.100933
    H   H49   0.558750  0.411682  0.844633  0.118004
    H   H50   0.442011  0.591036  0.650519  0.055895
    H   H51   0.454816  0.406350  0.658754  0.058561
    H   H52   0.942011  0.091036  0.650519  0.055888
    H   H53   0.954816  0.906350  0.658754  0.058591
    H   H54   0.891393  0.992738  0.671825  0.029686
    H   H55   0.505153  0.706535  0.893063  0.118060
    H   H56   0.391393  0.492738  0.671825  0.029773
    H   H57   0.032579  0.896786  0.237768  0.135082
    H   H58   0.060916  0.078944  0.269885  0.100160
    H   H59   0.532579  0.396786  0.237768  0.135093
    H   H60   0.560916  0.578944  0.269885  0.100158
    H   H61   0.427955  0.410837  0.216497  0.084964
    H   H62   0.456540  0.593525  0.248773  0.097756
    H   H63   0.927955  0.910837  0.216497  0.084950
    H   H64   0.956540  0.093525  0.248773  0.097747
    H   H65   0.178175  0.525799  0.409853  0.138635
    H   H66   0.093690  0.789207  0.140615  0.100240
    H   H67   0.110916  0.571714  0.319619  0.164802
    H   H68   0.184241  0.610022  0.410960  0.155426
    H   H69   0.678175  0.025799  0.409853  0.138646
    H   H70   0.610916  0.071714  0.319619  0.164806
    H   H71   0.684241  0.110022  0.410960  0.155433
    H   H72   0.680965  0.676236  0.825506  0.129305
    H   H73   0.619482  0.701929  0.712052  0.145831
    H   H74   0.696455  0.737275  0.784230  0.145514
    H   H75   0.667728  0.286346  0.733103  0.142014
    H   H76   0.603429  0.322296  0.711075  0.147635
    H   H77   0.079822  0.205677  0.136871  0.105240
    H   H78   0.675911  0.305034  0.823539  0.134868
    H   H79   0.180965  0.176236  0.825506  0.129304
    H   H80   0.119482  0.201929  0.712052  0.145832
    H   H81   0.196455  0.237275  0.784230  0.145518
    H   H82   0.167728  0.786346  0.733103  0.142019
    H   H83   0.103429  0.822296  0.711075  0.147640
    H   H84   0.175911  0.805034  0.823539  0.134876
    H   H85   0.731008  0.533619  0.911224  0.169895
    H   H86   0.760708  0.487124  0.004979  0.155966
    H   H87   0.748543  0.570307  0.002757  0.137013
    H   H88   0.593690  0.289207  0.140615  0.100234
    H   H89   0.231008  0.033619  0.911224  0.169900
    H   H90   0.260708  0.987124  0.004979  0.155969
    H   H91   0.248543  0.070307  0.002757  0.137016
    H   H92   0.725990  0.443434  0.521754  0.128980
    H   H93   0.707119  0.362639  0.486552  0.161065
    H   H94   0.707544  0.389946  0.566888  0.149890
    H   H95   0.225990  0.943434  0.521754  0.128968
    H   H96   0.207119  0.862639  0.486552  0.161060
    H   H97   0.207544  0.889946  0.566888  0.149886
    H   H98   0.180339  0.688879  0.018385  0.120316
    H   H99   0.579822  0.705677  0.136871  0.105240
    H   H100  0.225561  0.696220  0.134690  0.125581
    H   H101  0.222614  0.760376  0.076714  0.128460
    H   H102  0.211132  0.299996  0.106192  0.158887
    H   H103  0.182092  0.366828  0.034016  0.152557
    H   H104  0.179820  0.289762  0.997047  0.139489
    H   H105  0.680339  0.188879  0.018385  0.120282
    H   H106  0.725561  0.196220  0.134690  0.125558
    H   H107  0.722614  0.260376  0.076714  0.128439
    H   H108  0.711132  0.799996  0.106192  0.158900
    H   H109  0.682092  0.866828  0.034016  0.152554
    H   H110  0.003070  0.710532  0.110164  0.097958
    H   H111  0.679820  0.789762  0.997047  0.139490
    H   H112  0.761221  0.028461  0.955952  0.112586
    H   H113  0.779404  0.069879  0.902616  0.151197
    H   H114  0.767982  0.112799  0.963577  0.130692
    H   H115  0.261221  0.528461  0.955952  0.112587
    H   H116  0.279404  0.569879  0.902616  0.151204
    H   H117  0.267982  0.612799  0.963577  0.130692
    H   H118  0.811981  0.802764  0.968372  0.125730
    H   H119  0.816423  0.873552  0.926537  0.135590
    H   H120  0.853612  0.870226  0.039558  0.141020
    O   O1    0.093379  0.494321  0.146244  -0.551209
    O   O2    0.002532  0.408228  0.943160  -0.524087
    O   O3    0.503468  0.089761  0.947569  -0.645234
    O   O4    0.502532  0.908228  0.943160  -0.524071
    O   O5    0.911518  0.495089  0.959400  -0.592862
    O   O6    0.411518  0.995089  0.959400  -0.592871
    O   O7    0.914631  0.497269  0.854542  -0.597039
    O   O8    0.414631  0.997269  0.854542  -0.597003
    O   O9    0.940312  0.999721  0.845998  -0.583531
    O   O10   0.440312  0.499721  0.845998  -0.583527
    O   O11   0.048294  0.995972  0.955291  -0.504977
    O   O12   0.593379  0.994321  0.146244  -0.551168
    O   O13   0.548294  0.495972  0.955291  -0.504993
    O   O14   0.941122  0.906096  0.935027  -0.595313
    O   O15   0.937317  0.087679  0.931761  -0.480482
    O   O16   0.441122  0.406096  0.935027  -0.595335
    O   O17   0.437317  0.587679  0.931761  -0.480491
    O   O18   0.048917  0.907763  0.049600  -0.553022
    O   O19   0.045093  0.089254  0.045538  -0.618064
    O   O20   0.548917  0.407763  0.049600  -0.553038
    O   O21   0.545093  0.589254  0.045538  -0.618090
    O   O22   0.937861  0.999131  0.025699  -0.597743
    O   O23   0.096611  0.496143  0.041661  -0.614476
    O   O24   0.437861  0.499131  0.025699  -0.597766
    O   O25   0.045799  0.996012  0.134844  -0.637682
    O   O26   0.545799  0.496012  0.134844  -0.637707
    O   O27   0.519953  0.546771  0.426487  -0.602606
    O   O28   0.486217  0.443428  0.397191  -0.547118
    O   O29   0.019953  0.046771  0.426487  -0.602599
    O   O30   0.986217  0.943428  0.397191  -0.547099
    O   O31   0.414102  0.546928  0.394435  -0.613598
    O   O32   0.417033  0.445682  0.436947  -0.527014
    O   O33   0.914102  0.046928  0.394435  -0.613607
    O   O34   0.596611  0.996143  0.041661  -0.614468
    O   O35   0.917033  0.945682  0.436947  -0.527010
    O   O36   0.487014  0.552179  0.572715  -0.593519
    O   O37   0.525363  0.450410  0.613673  -0.560147
    O   O38   0.987014  0.052179  0.572715  -0.593490
    O   O39   0.025363  0.950410  0.613673  -0.560112
    O   O40   0.592970  0.551968  0.604807  -0.496283
    O   O41   0.594686  0.448236  0.573972  -0.537115
    O   O42   0.092970  0.051968  0.604807  -0.496283
    O   O43   0.094686  0.948236  0.573972  -0.537122
    O   O44   0.214023  0.511589  0.333458  -0.451311
    O   O45   0.005245  0.587790  0.057309  -0.617665
    O   O46   0.169576  0.604332  0.271968  -0.562740
    O   O47   0.714023  0.011589  0.333458  -0.451229
    O   O48   0.669576  0.104332  0.271968  -0.562745
    O   O49   0.716198  0.591517  0.786081  -0.567937
    O   O50   0.682327  0.654969  0.676696  -0.565001
    O   O51   0.712327  0.390833  0.744373  -0.599125
    O   O52   0.669426  0.427261  0.789603  -0.532526
    O   O53   0.216198  0.091517  0.786081  -0.567972
    O   O54   0.182327  0.154969  0.676696  -0.565029
    O   O55   0.212327  0.890833  0.744373  -0.599124
    O   O56   0.004571  0.406239  0.053318  -0.604738
    O   O57   0.169426  0.927261  0.789603  -0.532532
    O   O58   0.618576  0.511971  0.829748  -0.522106
    O   O59   0.654441  0.509327  0.963455  -0.587367
    O   O60   0.118576  0.011971  0.829748  -0.522077
    O   O61   0.154441  0.009327  0.963455  -0.587364
    O   O62   0.612204  0.474442  0.392812  -0.568830
    O   O63   0.590141  0.381614  0.413082  -0.554675
    O   O64   0.112204  0.974442  0.392812  -0.568817
    O   O65   0.090141  0.881614  0.413082  -0.554680
    O   O66   0.098890  0.707627  0.035650  -0.600759
    O   O67   0.505245  0.087790  0.057309  -0.617700
    O   O68   0.131022  0.803170  0.041141  -0.554106
    O   O69   0.105491  0.279556  0.051311  -0.612758
    O   O70   0.065649  0.320204  0.924110  -0.574083
    O   O71   0.598890  0.207627  0.035650  -0.600719
    O   O72   0.631022  0.303170  0.041141  -0.554105
    O   O73   0.605491  0.779556  0.051311  -0.612788
    O   O74   0.565649  0.820204  0.924110  -0.574086
    O   O75   0.875692  0.011941  0.093041  -0.528981
    O   O76   0.890350  0.104853  0.062598  -0.540947
    O   O77   0.375692  0.511941  0.093041  -0.528987
    O   O78   0.504571  0.906239  0.053318  -0.604758
    O   O79   0.390350  0.604853  0.062598  -0.540944
    O   O80   0.897712  0.785982  0.958012  -0.574496
    O   O81   0.951039  0.832732  0.087441  -0.551358
    O   O82   0.884718  0.216491  0.927313  -0.580390
    O   O83   0.846740  0.180967  0.798924  -0.566798
    O   O84   0.397712  0.285982  0.958012  -0.574533
    O   O85   0.451039  0.332732  0.087441  -0.551371
    O   O86   0.384718  0.716491  0.927313  -0.580396
    O   O87   0.346740  0.680967  0.798924  -0.566791
    O   O88   0.291093  0.403072  0.367371  -0.528190
    O   O89   0.003468  0.589761  0.947569  -0.645207
    O   O90   0.327513  0.342276  0.326835  -0.573226
    O   O91   0.298252  0.604415  0.343909  -0.528419
    O   O92   0.344600  0.562006  0.473284  -0.530673
    O   O93   0.791093  0.903072  0.367371  -0.528200
    O   O94   0.827513  0.842276  0.326835  -0.573267
    O   O95   0.798252  0.104415  0.343909  -0.528425
    O   O96   0.844600  0.062006  0.473284  -0.530647
