# Generated by REPEAT Assigner based on pymatgen
data_DB0-m3_o160_o143_f0_fsc.sym.9_sqe
_audit_creation_date              2022-05-24
_audit_creation_method            REPEAT_Assigner
_cell_length_a                    6.605928
_cell_length_b                    13.358560
_cell_length_c                    16.073384
_cell_angle_alpha                 96.159926
_cell_angle_beta                  81.528445
_cell_angle_gamma                 89.915353
_cell_volume                      1394.615000
_symmetry_space_group_name_H-M    P1
_symmetry_Int_Tables_number       1
loop_
    _symmetry_equiv_pos_site_id
    _symmetry_equiv_pos_as_xyz
    1  x,y,z
loop_
    _atom_site_type_symbol
    _atom_site_label
    _atom_site_fract_x
    _atom_site_fract_y
    _atom_site_fract_z
    _atom_type_partial_charge
    C   C1   0.314528  0.011353  0.690449  -0.151485
    C   C2   0.185329  0.005031  0.765307  -0.278680
    H   H1   0.025230  0.992512  0.762997  0.191872
    C   C3   0.257820  0.017422  0.841949  0.137570
    C   C4   0.462124  0.037576  0.843189  -0.179221
    H   H2   0.523651  0.046769  0.902057  0.150918
    C   C5   0.592363  0.041703  0.768378  -0.227804
    H   H3   0.753084  0.054457  0.769749  0.109190
    C   C6   0.520607  0.027130  0.691722  0.268220
    C   C7   0.174543  0.046879  0.997766  -0.112058
    C   C8   0.043853  0.039461  0.072031  -0.076493
    C   C9   0.855739  0.994811  0.070505  -0.046529
    C   C10  0.799872  0.957792  0.993744  -0.077596
    C   C11  0.930564  0.965212  0.919476  -0.116381
    C   C12  0.118693  0.009848  0.921005  0.011608
    C   C13  0.512350  0.967055  0.148354  -0.211845
    H   H4   0.450786  0.957864  0.089493  0.146794
    C   C14  0.382167  0.962918  0.223180  -0.059662
    H   H5   0.221439  0.950163  0.221828  0.084872
    C   C15  0.453978  0.977484  0.299826  -0.079532
    C   C16  0.660079  0.993258  0.301066  -0.085030
    C   C17  0.789215  0.999587  0.226195  -0.235337
    H   H6   0.949322  0.012099  0.228487  0.181804
    C   C18  0.716659  0.987215  0.149568  0.172933
    H   H7   0.318981  0.083743  0.000537  0.076196
    H   H8   0.089299  0.070924  0.131001  0.073647
    H   H9   0.655422  0.920936  0.990977  0.075069
    H   H10  0.885117  0.933758  0.860504  0.091799
    O   O1   0.743517  0.928101  0.584979  -0.697028
    O   O2   0.748518  0.101002  0.587387  -0.296671
    C   C19  0.669964  0.018327  0.614604  0.473160
    O   O3   0.168355  0.093381  0.589098  -0.648692
    O   O4   0.164694  0.919820  0.580905  -0.702430
    C   C20  0.223154  0.007581  0.612942  0.824640
    O   O5   0.231144  0.076639  0.406551  -0.599690
    O   O6   0.226124  0.903480  0.404135  -0.621191
    C   C21  0.304633  0.986288  0.376957  0.672832
    O   O7   0.806297  0.911286  0.402432  -0.721717
    O   O8   0.809954  0.084731  0.410622  -0.723975
    C   C22  0.751552  0.997026  0.378546  0.881569
    Zn  Zn1  0.994595  0.114288  0.499131  0.874722
    Zn  Zn2  0.979995  0.890327  0.492407  1.047456
    C   C23  0.147863  0.704925  0.464352  -0.351184
    N   N1   0.972973  0.758800  0.489063  0.194249
    C   C24  0.798275  0.713482  0.517070  -0.182620
    C   C25  0.795423  0.610791  0.520562  -0.182409
    C   C26  0.973622  0.554011  0.495705  -0.134020
    C   C27  0.150797  0.602101  0.466998  0.627728
    C   C28  0.807727  0.398235  0.527514  -0.014180
    C   C29  0.979416  0.450802  0.499170  0.175011
    C   C30  0.161755  0.398592  0.473188  -0.103940
    C   C31  0.335313  0.449279  0.444625  0.378698
    N   N2   0.327379  0.549552  0.442181  -0.648780
    C   C32  0.821394  0.295510  0.528454  0.056258
    N   N3   0.000765  0.245840  0.502599  0.255026
    C   C33  0.170296  0.295545  0.474966  -0.388698
    H   H11  0.659738  0.757960  0.538004  0.182401
    H   H12  0.312765  0.254588  0.453065  0.236695
    H   H13  0.478375  0.408344  0.424181  0.041192
    H   H14  0.652773  0.577382  0.543656  0.204038
    H   H15  0.661107  0.434926  0.548437  -0.011885
    H   H16  0.287718  0.742665  0.443244  0.198304
    S   S1   0.597662  0.227325  0.562765  -0.122989
    C   C34  0.645333  0.242443  0.671664  -0.238637
    H   H17  0.546043  0.190823  0.708449  0.136698
    H   H18  0.610531  0.321285  0.699471  0.053914
    H   H19  0.807728  0.223193  0.673772  0.041306
