# Generated by REPEAT Assigner based on pymatgen
data_DB0-m2_o2_o12_f0_pcu.sym.23_sqe
_audit_creation_date              2022-05-24
_audit_creation_method            REPEAT_Assigner
_cell_length_a                    11.317250
_cell_length_b                    15.089969
_cell_length_c                    13.638323
_cell_angle_alpha                 89.996812
_cell_angle_beta                  102.428823
_cell_angle_gamma                 89.993364
_cell_volume                      2274.526653
_symmetry_space_group_name_H-M    P1
_symmetry_Int_Tables_number       1
loop_
    _symmetry_equiv_pos_site_id
    _symmetry_equiv_pos_as_xyz
    1  x,y,z
loop_
    _atom_site_type_symbol
    _atom_site_label
    _atom_site_fract_x
    _atom_site_fract_y
    _atom_site_fract_z
    _atom_type_partial_charge
    O   O1   0.533640  0.369079  0.584695  -0.519633
    O   O2   0.513070  0.630305  0.421475  -0.541210
    O   O3   0.513987  0.372854  0.413711  -0.514826
    O   O4   0.525197  0.626451  0.591964  -0.520615
    C   C1   0.523429  0.329295  0.498033  0.730068
    C   C2   0.517728  0.669976  0.507661  0.757859
    O   O5   0.349497  0.497722  0.561280  -0.560528
    O   O6   0.693304  0.499166  0.444764  -0.578098
    O   O7   0.341902  0.497867  0.391652  -0.602323
    O   O8   0.700860  0.503783  0.614336  -0.611205
    C   C3   0.288665  0.497867  0.468108  0.798982
    C   C4   0.754106  0.502170  0.537844  0.750594
    Cu  Cu1  0.525796  0.497308  0.601706  0.763097
    Cu  Cu2  0.517088  0.501938  0.404278  0.792826
    C   C5   0.155361  0.495605  0.446276  -0.422446
    C   C6   0.887384  0.505307  0.559390  -0.371723
    C   C7   0.088630  0.505266  0.516417  0.302454
    C   C8   0.953843  0.500425  0.488485  0.187938
    H   H1   0.930837  0.511900  0.637757  0.099370
    H   H2   0.112151  0.485540  0.368350  0.122151
    C   C9   0.587140  0.095059  0.578686  -0.232859
    C   C10  0.571549  0.903643  0.441018  -0.236621
    H   H3   0.641401  0.060042  0.641756  0.137737
    H   H4   0.615765  0.938161  0.389413  0.140146
    C   C11  0.588378  0.186285  0.577431  -0.074766
    C   C12  0.570618  0.812444  0.441887  -0.079486
    H   H5   0.643468  0.221537  0.639863  0.121360
    H   H6   0.614255  0.776782  0.390741  0.128302
    C   C13  0.522227  0.232081  0.496362  -0.361620
    C   C14  0.517493  0.767191  0.509063  -0.368890
    C   C15  0.452454  0.185585  0.416885  0.457261
    C   C16  0.462949  0.814273  0.574591  0.460916
    C   C17  0.449095  0.093893  0.419053  0.243845
    C   C18  0.461429  0.906047  0.572214  0.242421
    C   C19  0.516813  0.048284  0.500509  -0.033159
    C   C20  0.516090  0.951057  0.504970  -0.024002
    C   C21  0.442345  0.562139  0.091744  0.286860
    C   C22  0.459587  0.437741  0.888476  0.324019
    C   C23  0.438617  0.560823  0.192676  0.390339
    C   C24  0.463383  0.435235  0.787873  0.331213
    N   N1   0.510792  0.505033  0.256495  -0.143412
    N   N2   0.532308  0.493512  0.749538  -0.134467
    C   C25  0.590376  0.452659  0.223248  -0.146845
    C   C26  0.596808  0.555716  0.809098  -0.089381
    H   H7   0.649513  0.409297  0.274731  0.165449
    H   H8   0.650470  0.603035  0.778145  0.161818
    C   C27  0.596191  0.452235  0.123518  -0.151270
    C   C28  0.594085  0.560483  0.909652  -0.182338
    H   H9   0.658867  0.408576  0.097683  0.131464
    H   H10  0.645981  0.610763  0.956582  0.136178
    C   C29  0.521285  0.506501  0.056643  -0.055118
    C   C30  0.524333  0.501760  0.949895  -0.084477
    N   N3   0.894408  0.490108  0.385401  -0.472721
    H   H11  0.917641  0.543212  0.344201  0.230925
    H   H12  0.921339  0.430254  0.358583  0.226953
    N   N4   0.147674  0.522709  0.618253  -0.607993
    H   H13  0.127893  0.471557  0.663684  0.276226
    H   H14  0.116320  0.583037  0.640269  0.258711
    N   N5   0.378954  0.231879  0.334784  -0.759718
    H   H15  0.403711  0.211485  0.268845  0.298301
    H   H16  0.288796  0.214484  0.331060  0.295422
    N   N6   0.403199  0.768589  0.641558  -0.773879
    H   H17  0.312199  0.787209  0.625061  0.309885
    H   H18  0.442282  0.788372  0.714722  0.298885
    N   N7   0.371491  0.047730  0.338925  -0.952921
    H   H19  0.423849  0.008488  0.301756  0.359386
    H   H20  0.312742  0.007733  0.368878  0.362807
    N   N8   0.398945  0.952990  0.636506  -0.967927
    H   H21  0.460726  0.991464  0.686652  0.366663
    H   H22  0.334000  0.993856  0.592538  0.364615
    N   N9   0.363851  0.620081  0.024911  -0.948597
    H   H23  0.416650  0.662802  0.991991  0.366894
    H   H24  0.309139  0.582086  0.969042  0.353986
    N   N10  0.386905  0.375095  0.927247  -0.958302
    H   H25  0.442639  0.337898  0.983290  0.368421
    H   H26  0.323316  0.409393  0.957884  0.355187
    N   N11  0.356768  0.617667  0.228628  -0.673391
    H   H27  0.376849  0.683014  0.212980  0.286642
    H   H28  0.269123  0.602875  0.189538  0.287994
    N   N12  0.393777  0.370341  0.724738  -0.634457
    H   H29  0.303338  0.377833  0.728886  0.275785
    H   H30  0.423223  0.307779  0.752423  0.282873
