# Generated by REPEAT Assigner based on pymatgen
data_DB0-m3_o1490_o23_f0_fsc.sym.11_sqe
_audit_creation_date              2022-05-24
_audit_creation_method            REPEAT_Assigner
_cell_length_a                    8.512925
_cell_length_b                    10.746844
_cell_length_c                    14.251587
_cell_angle_alpha                 97.843871
_cell_angle_beta                  90.102562
_cell_angle_gamma                 90.008352
_cell_volume                      1291.634644
_symmetry_space_group_name_H-M    P1
_symmetry_Int_Tables_number       1
loop_
    _symmetry_equiv_pos_site_id
    _symmetry_equiv_pos_as_xyz
    1  x,y,z
loop_
    _atom_site_type_symbol
    _atom_site_label
    _atom_site_fract_x
    _atom_site_fract_y
    _atom_site_fract_z
    _atom_type_partial_charge
    C   C1   0.996510  0.690222  0.050276  -0.051451
    C   C2   0.136940  0.743792  0.032240  -0.100043
    C   C3   0.142073  0.860703  0.005394  -0.188151
    C   C4   0.859135  0.751389  0.035770  -0.331226
    C   C5   0.863488  0.874943  0.016045  0.559423
    C   C6   0.006851  0.933400  0.003415  -0.115195
    C   C7   0.008629  0.059928  0.986696  0.114087
    C   C8   0.146759  0.129606  0.978262  0.298295
    C   C9   0.138398  0.253412  0.966191  -0.257572
    N   N1   0.728118  0.937989  0.010540  -0.598355
    C   C10  0.726521  0.058955  0.995620  0.237053
    C   C11  0.864932  0.122487  0.984026  -0.106859
    C   C12  0.860149  0.248372  0.969282  -0.235704
    C   C13  0.997175  0.310984  0.957894  -0.070552
    H   H1   0.993254  0.593852  0.063890  0.124568
    H   H2   0.993794  0.409790  0.951134  0.116583
    H   H3   0.256357  0.884673  0.984527  0.142428
    H   H4   0.615025  0.106113  0.993267  0.065639
    O   O1   0.330567  0.632506  0.936630  -0.695340
    O   O2   0.333315  0.624986  0.098209  -0.718694
    C   C14  0.277794  0.667127  0.022671  0.824616
    O   O3   0.330364  0.365331  0.063808  -0.755049
    O   O4   0.335845  0.372982  0.902301  -0.738420
    C   C15  0.279568  0.330043  0.977208  1.007611
    O   O5   0.668327  0.365537  0.065264  -0.734568
    O   O6   0.665348  0.372821  0.904553  -0.755336
    C   C16  0.718206  0.326531  0.979273  0.989326
    O   O7   0.668352  0.634464  0.939134  -0.681526
    O   O8   0.662886  0.627069  0.099754  -0.712223
    C   C17  0.716682  0.673789  0.025522  0.877039
    Zn  Zn1  0.498933  0.492697  0.105194  1.078072
    Zn  Zn2  0.500859  0.506216  0.897216  1.066847
    C   C18  0.573477  0.618918  0.454419  -0.074158
    C   C19  0.595523  0.386655  0.440551  -0.168050
    C   C20  0.591750  0.390444  0.547248  -0.138413
    H   H5   0.708532  0.609623  0.577044  -0.033901
    H   H6   0.695664  0.621685  0.427932  0.012833
    H   H7   0.545146  0.296384  0.406621  0.067771
    H   H8   0.718845  0.393791  0.416906  0.053427
    H   H9   0.713477  0.393311  0.575329  0.042090
    H   H10  0.533434  0.304479  0.565147  0.057585
    N   N2   0.502495  0.514648  0.775112  0.029645
    C   C21  0.500314  0.495028  0.412052  0.486159
    C   C22  0.581951  0.621360  0.562134  0.308375
    C   C23  0.501323  0.505647  0.590493  0.578884
    C   C24  0.333703  0.492321  0.554257  -0.103957
    C   C25  0.332986  0.487731  0.447458  -0.136222
    C   C26  0.502177  0.511792  0.693666  -0.267612
    C   C27  0.499135  0.487805  0.308806  -0.184932
    N   N3   0.498435  0.484305  0.227308  0.008341
    H   H11  0.263085  0.566846  0.427062  0.048499
    H   H12  0.278879  0.398211  0.414943  0.055026
    H   H13  0.259059  0.569506  0.588793  0.057306
    H   H14  0.510563  0.695360  0.425836  0.042431
    H   H15  0.283971  0.403137  0.572133  0.028116
    O   O9   0.535748  0.732096  0.621006  -0.390331
    C   C28  0.423148  0.801285  0.578435  0.043123
    H   H16  0.334691  0.741064  0.537949  -0.008352
    H   H17  0.481970  0.864050  0.533699  0.040182
    H   H18  0.359206  0.861877  0.635061  0.070466
    O   O10  0.294617  0.082726  0.983496  -0.338321
    C   C29  0.344999  0.060601  0.889307  0.102830
    H   H19  0.418381  0.139707  0.872493  -0.003940
    H   H20  0.241393  0.049660  0.841598  -0.005790
    H   H21  0.415850  0.973272  0.877843  0.065561
