# Generated by REPEAT Assigner based on pymatgen
data_DB0-m2_o24_o25_f0_pcu.sym.131
_audit_creation_date              2022-05-24
_audit_creation_method            REPEAT_Assigner
_cell_length_a                    15.899779
_cell_length_b                    10.722351
_cell_length_c                    9.350355
_cell_angle_alpha                 90.003100
_cell_angle_beta                  90.019716
_cell_angle_gamma                 89.994234
_cell_volume                      1594.076572
_symmetry_space_group_name_H-M    P1
_symmetry_Int_Tables_number       1
loop_
    _symmetry_equiv_pos_site_id
    _symmetry_equiv_pos_as_xyz
    1  x,y,z
loop_
    _atom_site_type_symbol
    _atom_site_label
    _atom_site_fract_x
    _atom_site_fract_y
    _atom_site_fract_z
    _atom_type_partial_charge
    O   O1   0.496115  0.318059  0.622117  -0.593409
    O   O2   0.503886  0.681941  0.377883  -0.593453
    O   O3   0.503119  0.319448  0.376170  -0.571245
    O   O4   0.496881  0.680552  0.623830  -0.571205
    C   C1   0.499488  0.260574  0.498669  0.601786
    C   C2   0.500513  0.739426  0.501332  0.601808
    O   O5   0.377228  0.495507  0.621895  -0.628230
    O   O6   0.622772  0.504493  0.378105  -0.628283
    O   O7   0.378333  0.505644  0.375895  -0.577310
    O   O8   0.621667  0.494356  0.624105  -0.577258
    C   C3   0.338612  0.500772  0.498419  0.820596
    C   C4   0.661388  0.499228  0.501581  0.820592
    Cu  Cu1  0.499384  0.499219  0.643124  0.816133
    Cu  Cu2  0.500616  0.500781  0.356877  0.815921
    C   C5   0.973156  0.399128  0.567058  -0.154411
    C   C6   0.026844  0.600872  0.432942  -0.154544
    C   C7   0.027255  0.399396  0.432885  -0.130116
    C   C8   0.972746  0.600604  0.567115  -0.129910
    H   H1   0.052157  0.315924  0.377104  0.065115
    H   H2   0.947843  0.684076  0.622896  0.065066
    H   H3   0.948601  0.315412  0.622779  0.074483
    H   H4   0.051399  0.684588  0.377222  0.074495
    H   H5   0.946281  0.499807  0.256726  0.074713
    H   H6   0.053719  0.500193  0.743274  0.074759
    C   C9   0.248360  0.500828  0.497567  -0.165403
    C   C10  0.751640  0.499172  0.502433  -0.165379
    C   C11  0.028098  0.500095  0.632945  -0.179115
    C   C12  0.971902  0.499905  0.367055  -0.178902
    C   C13  0.080562  0.500357  0.498787  0.658610
    C   C14  0.919438  0.499643  0.501213  0.658487
    C   C15  0.172573  0.500690  0.497761  -0.346670
    C   C16  0.827427  0.499310  0.502239  -0.346697
    C   C17  0.563726  0.042213  0.572119  0.084353
    C   C18  0.436274  0.957787  0.427881  0.084535
    C   C19  0.571603  0.958545  0.441368  -0.241699
    C   C20  0.428397  0.041455  0.558632  -0.241934
    H   H7   0.631117  0.924810  0.393137  0.141848
    H   H8   0.368883  0.075190  0.606863  0.141898
    C   C21  0.501189  0.878263  0.501908  0.076987
    C   C22  0.498811  0.121737  0.498092  0.077199
    C   C23  0.494646  0.961383  0.631628  0.241842
    C   C24  0.505354  0.038617  0.368372  0.241643
    C   C25  0.480528  0.606912  0.049702  -0.028658
    C   C26  0.519472  0.393088  0.950298  -0.028630
    C   C27  0.427563  0.527697  0.950875  -0.089269
    C   C28  0.572438  0.472303  0.049125  -0.089288
    H   H9   0.364340  0.549477  0.907482  0.097496
    H   H10  0.635660  0.450523  0.092518  0.097501
    H   H11  0.464691  0.699697  0.094412  0.081108
    H   H12  0.535309  0.300303  0.905588  0.081090
    N   N1   0.498597  0.498299  0.857083  0.174515
    N   N2   0.501403  0.501700  0.142917  0.174524
    C   C29  0.550531  0.575996  0.948941  0.111551
    C   C30  0.449469  0.424004  0.051059  0.111516
    C   C31  0.634188  0.090938  0.655838  0.264675
    N   N3   0.689914  0.129472  0.722045  -0.389632
    C   C32  0.365812  0.909062  0.344162  0.264687
    N   N4   0.310087  0.870528  0.277955  -0.389660
    C   C33  0.490766  0.919979  0.780459  0.132944
    N   N5   0.487649  0.887638  0.898334  -0.297087
    C   C34  0.509234  0.080021  0.219541  0.132966
    N   N6   0.512351  0.112361  0.101666  -0.297092
    C   C35  0.610250  0.665109  0.887957  0.255767
    N   N7   0.657478  0.735585  0.839729  -0.382246
    C   C36  0.389750  0.334891  0.112043  0.255790
    N   N8   0.342522  0.264415  0.160271  -0.382263
