data_DB0-m2_o11_o29_f0_pcu.sym.63_repeat
_audit_creation_date              2024-02-23
_audit_creation_method            'Materials Studio'
_symmetry_space_group_name_H-M    'P1'
_symmetry_Int_Tables_number       1
_symmetry_cell_setting            triclinic
loop_
_symmetry_equiv_pos_as_xyz
  x,y,z
_cell_length_a                    27.5315
_cell_length_b                    11.0326
_cell_length_c                    9.5313
_cell_angle_alpha                 90.0206
_cell_angle_beta                  90.0156
_cell_angle_gamma                 89.9936
loop_
_atom_site_label
_atom_site_type_symbol
_atom_site_fract_x
_atom_site_fract_y
_atom_site_fract_z
_atom_site_U_iso_or_equiv
_atom_site_adp_type
_atom_site_occupancy
O1     O     0.50084   0.32375   0.62106   0.00000  Uiso   1.00
O2     O     0.50099   0.32234   0.37906   0.00000  Uiso   1.00
C1     C     0.50256   0.26655   0.50055   0.00000  Uiso   1.00
O3     O     0.42980   0.49884   0.61638   0.00000  Uiso   1.00
O4     O     0.43090   0.49134   0.37450   0.00000  Uiso   1.00
C2     C     0.40760   0.49210   0.49481   0.00000  Uiso   1.00
Cu1    Cu    0.50028   0.50004   0.63916   0.00000  Uiso   1.00
Cu2    Cu    0.50158   0.49850   0.35847   0.00000  Uiso   1.00
O5     O     0.49663   0.67569   0.61757   0.00000  Uiso   1.00
O6     O     0.49869   0.67475   0.37713   0.00000  Uiso   1.00
O7     O     0.57089   0.50934   0.62220   0.00000  Uiso   1.00
O8     O     0.57202   0.49712   0.38213   0.00000  Uiso   1.00
C3     C     0.49840   0.73204   0.49744   0.00000  Uiso   1.00
C4     C     0.59429   0.50435   0.50291   0.00000  Uiso   1.00
C5     C     0.17704   0.39011   0.45745   0.00000  Uiso   1.00
O9     O     0.20137   0.28588   0.43771   0.00000  Uiso   1.00
N1     N     0.20191   0.49413   0.47466   0.00000  Uiso   1.00
C6     C     0.17825   0.59982   0.49238   0.00000  Uiso   1.00
C7     C     0.28053   0.55356   0.38067   0.00000  Uiso   1.00
C8     C     0.33054   0.55095   0.38615   0.00000  Uiso   1.00
C9     C     0.32713   0.42554   0.59117   0.00000  Uiso   1.00
C10    C     0.27699   0.42707   0.58309   0.00000  Uiso   1.00
C11    C     0.25365   0.49160   0.47921   0.00000  Uiso   1.00
C12    C     0.10184   0.49721   0.47819   0.00000  Uiso   1.00
C13    C     0.12680   0.39053   0.45795   0.00000  Uiso   1.00
C14    C     0.10146   0.28431   0.44064   0.00000  Uiso   1.00
C15    C     0.12799   0.60250   0.49536   0.00000  Uiso   1.00
C16    C     0.35427   0.48909   0.49207   0.00000  Uiso   1.00
H1     H     0.25547   0.37885   0.65975   0.00000  Uiso   1.00
H2     H     0.12003   0.19880   0.42735   0.00000  Uiso   1.00
C17    C     0.64755   0.50597   0.50389   0.00000  Uiso   1.00
C18    C     0.97483   0.39519   0.45378   0.00000  Uiso   1.00
C19    C     0.97631   0.60506   0.52395   0.00000  Uiso   1.00
C20    C     0.95054   0.50061   0.49136   0.00000  Uiso   1.00
C21    C     0.94748   0.29536   0.41160   0.00000  Uiso   1.00
C22    C     0.89766   0.29851   0.41356   0.00000  Uiso   1.00
C23    C     0.87373   0.40096   0.45752   0.00000  Uiso   1.00
C24    C     0.90004   0.50161   0.49621   0.00000  Uiso   1.00
C25    C     0.87526   0.60331   0.53953   0.00000  Uiso   1.00
C26    C     0.82500   0.60307   0.54378   0.00000  Uiso   1.00
N2     N     0.79997   0.50397   0.50396   0.00000  Uiso   1.00
C27    C     0.82352   0.40356   0.46115   0.00000  Uiso   1.00
C28    C     0.72294   0.52473   0.62745   0.00000  Uiso   1.00
C29    C     0.67282   0.52414   0.62758   0.00000  Uiso   1.00
C30    C     0.67296   0.48846   0.38037   0.00000  Uiso   1.00
C31    C     0.72299   0.48784   0.38082   0.00000  Uiso   1.00
C32    C     0.74817   0.50585   0.50419   0.00000  Uiso   1.00
O10    O     0.79794   0.30475   0.42453   0.00000  Uiso   1.00
C33    C     0.02564   0.39216   0.45805   0.00000  Uiso   1.00
C34    C     0.05133   0.49847   0.48198   0.00000  Uiso   1.00
C35    C     0.02695   0.60591   0.51022   0.00000  Uiso   1.00
C36    C     0.05162   0.28480   0.44053   0.00000  Uiso   1.00
H3     H     0.65382   0.53818   0.72544   0.00000  Uiso   1.00
H4     H     0.74236   0.53794   0.72485   0.00000  Uiso   1.00
H5     H     0.87800   0.21900   0.37959   0.00000  Uiso   1.00
H6     H     0.96316   0.21326   0.37119   0.00000  Uiso   1.00
H7     H     0.03481   0.19725   0.43137   0.00000  Uiso   1.00
O11    O     0.20376   0.70229   0.51181   0.00000  Uiso   1.00
C37    C     0.10383   0.71007   0.51550   0.00000  Uiso   1.00
H8     H     0.35107   0.60051   0.30841   0.00000  Uiso   1.00
H9     H     0.26252   0.60345   0.29807   0.00000  Uiso   1.00
H10    H     0.12330   0.79458   0.52628   0.00000  Uiso   1.00
C38    C     0.95060   0.70598   0.57113   0.00000  Uiso   1.00
C39    C     0.90081   0.70477   0.57882   0.00000  Uiso   1.00
O12    O     0.80084   0.70311   0.58380   0.00000  Uiso   1.00
C40    C     0.05404   0.71206   0.52300   0.00000  Uiso   1.00
H11    H     0.96771   0.78754   0.60804   0.00000  Uiso   1.00
H12    H     0.65419   0.47401   0.28221   0.00000  Uiso   1.00
H13    H     0.88245   0.78512   0.61611   0.00000  Uiso   1.00
H14    H     0.74241   0.47422   0.28351   0.00000  Uiso   1.00
H15    H     0.03806   0.80036   0.53471   0.00000  Uiso   1.00
C41    C     0.50141   0.93258   0.38596   0.00000  Uiso   1.00
C42    C     0.49679   0.86472   0.50150   0.00000  Uiso   1.00
H16    H     0.50533   0.88840   0.28506   0.00000  Uiso   1.00
H17    H     0.49183   0.90465   0.60384   0.00000  Uiso   1.00
C43    C     0.50106   0.06686   0.38724   0.00000  Uiso   1.00
C44    C     0.50302   0.13375   0.50452   0.00000  Uiso   1.00
H18    H     0.50000   0.11192   0.28633   0.00000  Uiso   1.00
H19    H     0.50543   0.09317   0.60728   0.00000  Uiso   1.00
C45    C     0.47940   0.41713   0.92245   0.00000  Uiso   1.00
N3     N     0.49883   0.50200   0.84903   0.00000  Uiso   1.00
H20    H     0.46492   0.33737   0.87106   0.00000  Uiso   1.00
H21    H     0.50366   0.58371   0.89886   0.00000  Uiso   1.00
C46    C     0.47437   0.42830   0.07666   0.00000  Uiso   1.00
N4     N     0.50284   0.49670   0.14860   0.00000  Uiso   1.00
H22    H     0.44699   0.37468   0.12967   0.00000  Uiso   1.00
H23    H     0.53331   0.52798   0.09803   0.00000  Uiso   1.00
C47    C     0.35036   0.35040   0.70330   0.00000  Uiso   1.00
O13    O     0.38172   0.26584   0.64306   0.00000  Uiso   1.00
H24    H     0.32223   0.30110   0.76375   0.00000  Uiso   1.00
H25    H     0.37038   0.40845   0.77853   0.00000  Uiso   1.00
H26    H     0.36224   0.19061   0.63667   0.00000  Uiso   1.00
