# Generated by REPEAT Assigner based on pymatgen
data_DB0-m2_o17_o22_f0_nbo.sym.100_sqe
_audit_creation_date              2022-05-24
_audit_creation_method            REPEAT_Assigner
_cell_length_a                    36.652146
_cell_length_b                    29.797380
_cell_length_c                    21.190063
_cell_angle_alpha                 90.000000
_cell_angle_beta                  54.451517
_cell_angle_gamma                 90.000000
_cell_volume                      18829.266083
_symmetry_space_group_name_H-M    P1
_symmetry_Int_Tables_number       1
loop_
    _symmetry_equiv_pos_site_id
    _symmetry_equiv_pos_as_xyz
    1  x,y,z
loop_
    _atom_site_type_symbol
    _atom_site_label
    _atom_site_fract_x
    _atom_site_fract_y
    _atom_site_fract_z
    _atom_type_partial_charge
    C   C1    0.914891  0.495286  0.587489  0.835101
    C   C2    0.012636  0.543158  0.700297  -0.470112
    C   C3    0.634218  0.995449  0.362391  -0.235599
    C   C4    0.841886  0.458688  0.683065  0.286416
    C   C5    0.158114  0.458688  0.316935  0.286443
    C   C6    0.341886  0.958688  0.683065  0.286491
    C   C7    0.658115  0.958688  0.316935  0.286385
    C   C8    0.000000  0.584014  0.000000  0.718759
    C   C9    0.500000  0.084014  0.000000  0.718617
    C   C10   0.001382  0.498739  0.118149  0.672374
    C   C11   0.998618  0.498739  0.881851  0.671885
    C   C12   0.501382  0.998739  0.118149  0.672514
    C   C13   0.487364  0.043158  0.299703  -0.470137
    C   C14   0.498618  0.998739  0.881851  0.671859
    C   C15   0.000000  0.414023  0.000000  0.760875
    C   C16   0.500000  0.914023  0.000000  0.760841
    C   C17   0.500000  0.414211  0.000000  0.766540
    C   C18   0.000000  0.914211  0.000000  0.766527
    C   C19   0.584887  0.499668  0.914966  0.859465
    C   C20   0.415113  0.499668  0.085034  0.859558
    C   C21   0.084887  0.999668  0.914966  0.859408
    C   C22   0.915113  0.999668  0.085034  0.859537
    C   C23   0.500000  0.584261  0.000000  0.588069
    C   C24   0.512636  0.043158  0.700297  -0.470374
    C   C25   0.000000  0.084261  0.000000  0.587965
    C   C26   0.539083  0.341999  0.948377  0.431589
    C   C27   0.460917  0.341999  0.051623  0.431907
    C   C28   0.039083  0.841999  0.948377  0.431804
    C   C29   0.960917  0.841999  0.051623  0.432086
    C   C30   0.500000  0.365179  0.000000  -0.454290
    C   C31   0.000000  0.865179  0.000000  -0.454456
    C   C32   0.460599  0.295545  0.049915  -0.076483
    C   C33   0.539401  0.295545  0.950085  -0.076389
    C   C34   0.960599  0.795545  0.049915  -0.076690
    C   C35   0.984837  0.542494  0.230868  0.813961
    C   C36   0.039401  0.795545  0.950085  -0.076474
    C   C37   0.500000  0.272358  0.000000  -0.021935
    C   C38   0.000000  0.772358  0.000000  -0.021895
    C   C39   0.421033  0.272212  0.098550  -0.223660
    C   C40   0.578967  0.272212  0.901450  -0.223691
    C   C41   0.921033  0.772212  0.098550  -0.223540
    C   C42   0.078967  0.772212  0.901449  -0.223830
    C   C43   0.920525  0.725843  0.096506  0.257059
    C   C44   0.079475  0.725843  0.903494  0.257300
    C   C45   0.420525  0.225843  0.096505  0.257093
    C   C46   0.015163  0.542494  0.769132  0.814049
    C   C47   0.579475  0.225843  0.903494  0.257080
    C   C48   0.960313  0.702736  0.048166  0.000969
    C   C49   0.039687  0.702736  0.951834  0.000813
    C   C50   0.460313  0.202736  0.048166  0.001170
    C   C51   0.539687  0.202736  0.951834  0.001143
    C   C52   0.000000  0.725971  0.000000  0.062480
    C   C53   0.500000  0.225971  0.000000  0.062205
    C   C54   0.960377  0.656316  0.047368  -0.059217
    C   C55   0.039623  0.656316  0.952632  -0.059182
    C   C56   0.460377  0.156316  0.047368  -0.059335
    C   C57   0.484837  0.042494  0.230868  0.814011
    C   C58   0.539623  0.156316  0.952632  -0.059327
    C   C59   0.000000  0.633116  0.000000  -0.094349
    C   C60   0.500000  0.133116  0.000000  -0.094267
    C   C61   0.478233  0.656759  0.069097  -0.324248
    C   C62   0.521768  0.656759  0.930903  -0.324014
    C   C63   0.978233  0.156759  0.069097  -0.324227
    C   C64   0.021767  0.156759  0.930903  -0.324168
    C   C65   0.500000  0.633416  0.000000  0.131747
    C   C66   0.000000  0.133416  0.000000  0.131794
    C   C67   0.522628  0.703023  0.930832  0.213895
    C   C68   0.515163  0.042494  0.769132  0.814245
    C   C69   0.477372  0.703023  0.069168  0.214240
    C   C70   0.022628  0.203023  0.930832  0.213979
    C   C71   0.977372  0.203023  0.069168  0.214021
    C   C72   0.500000  0.726172  0.000000  -0.024649
    C   C73   0.000000  0.226172  0.000000  -0.024417
    C   C74   0.546104  0.726165  0.861537  -0.198372
    C   C75   0.453896  0.726165  0.138463  -0.198536
    C   C76   0.046104  0.226165  0.861537  -0.198380
    C   C77   0.953896  0.226165  0.138463  -0.198406
    C   C78   0.047168  0.272384  0.861510  -0.230762
    C   C79   0.046913  0.485153  0.239389  -0.184893
    C   C80   0.952832  0.272384  0.138490  -0.230667
    C   C81   0.547169  0.772384  0.861510  -0.230697
    C   C82   0.452832  0.772384  0.138490  -0.230589
    C   C83   0.023991  0.295570  0.930761  0.197218
    C   C84   0.976009  0.295570  0.069239  0.197109
    C   C85   0.523991  0.795570  0.930761  0.197151
    C   C86   0.476009  0.795570  0.069239  0.197031
    C   C87   0.000000  0.272442  0.000000  -0.018589
    C   C88   0.500000  0.772442  0.000000  -0.018389
    C   C89   0.024752  0.341846  0.930791  -0.230877
    C   C90   0.953087  0.485153  0.760611  -0.184971
    C   C91   0.975248  0.341846  0.069209  -0.230834
    C   C92   0.524752  0.841846  0.930791  -0.230846
    C   C93   0.475248  0.841846  0.069209  -0.230790
    C   C94   0.000000  0.365036  0.000000  -0.035703
    C   C95   0.500000  0.865035  0.000000  -0.035745
    C   C96   0.623983  0.432349  0.996534  0.817842
    C   C97   0.597349  0.395418  0.052156  -0.515975
    C   C98   0.376017  0.432348  0.003466  0.817879
    C   C99   0.402651  0.395418  0.947844  -0.515895
    C   C100  0.123983  0.932348  0.996534  0.817782
    C   C101  0.546913  0.985153  0.239389  -0.184786
    C   C102  0.097349  0.895418  0.052156  -0.515861
    C   C103  0.876017  0.932348  0.003466  0.817773
    C   C104  0.902651  0.895418  0.947844  -0.515846
    C   C105  0.628223  0.558353  0.747180  0.929939
    C   C106  0.610083  0.595674  0.726411  -0.538779
    C   C107  0.371777  0.558353  0.252820  0.930098
    C   C108  0.389917  0.595674  0.273589  -0.538790
    C   C109  0.128224  0.058353  0.747180  0.929745
    C   C110  0.110083  0.095674  0.726411  -0.538609
    C   C111  0.871777  0.058353  0.252820  0.929931
    C   C112  0.085109  0.495286  0.412511  0.835001
    C   C113  0.453087  0.985153  0.760611  -0.184984
    C   C114  0.889917  0.095674  0.273589  -0.538724
    C   C115  0.723125  0.632190  0.656837  0.771194
    C   C116  0.702630  0.676909  0.665281  -0.506220
    C   C117  0.276875  0.632190  0.343163  0.771234
    C   C118  0.297370  0.676909  0.334719  -0.505963
    C   C119  0.223125  0.132190  0.656837  0.771058
    C   C120  0.202630  0.176909  0.665281  -0.505974
    C   C121  0.776875  0.132190  0.343163  0.770964
    C   C122  0.797370  0.176910  0.334719  -0.505845
    C   C123  0.865914  0.384154  0.647073  0.842469
    C   C124  0.967050  0.462251  0.317103  -0.221968
    C   C125  0.889783  0.344424  0.649182  -0.514475
    C   C126  0.134086  0.384154  0.352927  0.842470
    C   C127  0.110217  0.344424  0.350818  -0.514500
    C   C128  0.365914  0.884154  0.647073  0.842495
    C   C129  0.389783  0.844424  0.649182  -0.514430
    C   C130  0.634086  0.884154  0.352927  0.842600
    C   C131  0.610217  0.844424  0.350818  -0.514625
    C   C132  0.585435  0.376600  0.827571  0.816286
    C   C133  0.629948  0.395669  0.765791  -0.539841
    C   C134  0.414565  0.376600  0.172429  0.816509
    C   C135  0.032950  0.462251  0.682897  -0.221699
    C   C136  0.370052  0.395669  0.234209  -0.539840
    C   C137  0.085435  0.876600  0.827571  0.816243
    C   C138  0.129948  0.895669  0.765791  -0.539527
    C   C139  0.914565  0.876600  0.172429  0.816495
    C   C140  0.870053  0.895669  0.234209  -0.539516
    C   C141  0.841655  0.715937  0.162510  0.839265
    C   C142  0.800377  0.693323  0.227423  -0.577431
    C   C143  0.158345  0.715937  0.837490  0.839229
    C   C144  0.199623  0.693323  0.772577  -0.577371
    C   C145  0.341655  0.215937  0.162509  0.839287
    C   C146  0.467050  0.962251  0.317103  -0.221842
    C   C147  0.300377  0.193323  0.227423  -0.577224
    C   C148  0.658345  0.215937  0.837491  0.839163
    C   C149  0.699623  0.193323  0.772577  -0.577169
    C   C150  0.044914  0.598084  0.148990  0.859212
    C   C151  0.056642  0.639011  0.100530  -0.488017
    C   C152  0.955086  0.598084  0.851010  0.859198
    C   C153  0.943358  0.639011  0.899470  -0.488003
    C   C154  0.544914  0.098084  0.148990  0.859130
    C   C155  0.556642  0.139011  0.100530  -0.487957
    C   C156  0.455086  0.098084  0.851010  0.859118
    C   C157  0.532950  0.962251  0.682897  -0.221649
    C   C158  0.443358  0.139011  0.899470  -0.487923
    C   C159  0.000131  0.496472  0.309753  0.500942
    C   C160  0.999869  0.496472  0.690247  0.500871
    C   C161  0.500131  0.996472  0.309753  0.500900
    C   C162  0.499869  0.996472  0.690247  0.500790
    C   C163  0.001419  0.497591  0.188464  -0.039567
    C   C164  0.414891  0.995286  0.587489  0.835064
    C   C165  0.998581  0.497591  0.811535  -0.039089
    C   C166  0.501419  0.997591  0.188464  -0.039716
    C   C167  0.498581  0.997591  0.811535  -0.039088
    C   C168  0.047422  0.484507  0.167325  0.001654
    C   C169  0.952578  0.484507  0.832675  0.001597
    C   C170  0.547422  0.984507  0.167325  0.001619
    C   C171  0.452578  0.984507  0.832675  0.001620
    C   C172  0.968716  0.461938  0.243786  0.008820
    C   C173  0.031284  0.461938  0.756214  0.008530
    C   C174  0.468716  0.961938  0.243786  0.008824
    C   C175  0.585109  0.995286  0.412511  0.834988
    C   C176  0.531284  0.961938  0.756214  0.008756
    C   C177  0.655981  0.465243  0.874633  0.429899
    C   C178  0.344019  0.465243  0.125367  0.429791
    C   C179  0.155981  0.965243  0.874633  0.429678
    C   C180  0.844019  0.965243  0.125367  0.429868
    C   C181  0.633855  0.499441  0.866504  -0.475173
    C   C182  0.366145  0.499441  0.133496  -0.475176
    C   C183  0.133855  0.999441  0.866504  -0.475068
    C   C184  0.866145  0.999441  0.133496  -0.475305
    C   C185  0.657610  0.533211  0.813232  0.501718
    C   C186  0.999385  0.495614  0.380894  0.460002
    C   C187  0.342390  0.533211  0.186768  0.501856
    C   C188  0.157610  0.033211  0.813232  0.501753
    C   C189  0.842390  0.033211  0.186768  0.501961
    C   C190  0.704256  0.534279  0.770523  -0.361999
    C   C191  0.295745  0.534279  0.229477  -0.361908
    C   C192  0.204256  0.034279  0.770523  -0.361848
    C   C193  0.795745  0.034279  0.229477  -0.362019
    C   C194  0.726482  0.498431  0.775955  0.144792
    C   C195  0.273518  0.498431  0.224045  0.144647
    C   C196  0.226482  0.998431  0.775955  0.144644
    C   C197  0.000615  0.495614  0.619106  0.460078
    C   C198  0.773518  0.998431  0.224045  0.144727
    C   C199  0.702355  0.463684  0.827088  -0.068591
    C   C200  0.297645  0.463684  0.172912  -0.068466
    C   C201  0.202355  0.963684  0.827088  -0.068411
    C   C202  0.797645  0.963684  0.172912  -0.068555
    C   C203  0.729012  0.570271  0.722068  0.511028
    C   C204  0.270988  0.570271  0.277932  0.510872
    C   C205  0.229012  0.070271  0.722068  0.510881
    C   C206  0.770988  0.070271  0.277932  0.510969
    C   C207  0.775256  0.569552  0.679931  -0.472685
    C   C208  0.499385  0.995614  0.380894  0.460065
    C   C209  0.224744  0.569552  0.320069  -0.472618
    C   C210  0.275256  0.069552  0.679931  -0.472692
    C   C211  0.724744  0.069552  0.320069  -0.472685
    C   C212  0.797059  0.532910  0.682689  0.226993
    C   C213  0.202941  0.532910  0.317311  0.227033
    C   C214  0.297059  0.032910  0.682689  0.227033
    C   C215  0.702941  0.032910  0.317311  0.227109
    C   C216  0.772909  0.497096  0.729922  -0.029608
    C   C217  0.227091  0.497096  0.270078  -0.029599
    C   C218  0.272909  0.997096  0.729922  -0.029548
    C   C219  0.500615  0.995614  0.619106  0.460160
    C   C220  0.727091  0.997096  0.270078  -0.029691
    C   C221  0.795285  0.460245  0.731576  0.049780
    C   C222  0.204715  0.460245  0.268424  0.049729
    C   C223  0.295285  0.960245  0.731576  0.049695
    C   C224  0.704715  0.960245  0.268424  0.049903
    C   C225  0.770833  0.425647  0.782692  -0.186023
    C   C226  0.229167  0.425647  0.217308  -0.185980
    C   C227  0.270833  0.925647  0.782692  -0.185919
    C   C228  0.729167  0.925647  0.217308  -0.186098
    C   C229  0.724794  0.427474  0.830246  -0.080428
    C   C230  0.987364  0.543158  0.299703  -0.470062
    C   C231  0.275206  0.427474  0.169754  -0.080480
    C   C232  0.224794  0.927474  0.830246  -0.080553
    C   C233  0.775206  0.927474  0.169754  -0.080392
    C   C234  0.843231  0.532696  0.638689  -0.176537
    C   C235  0.156769  0.532696  0.361310  -0.176628
    C   C236  0.343231  0.032696  0.638690  -0.176614
    C   C237  0.656769  0.032696  0.361310  -0.176710
    C   C238  0.865782  0.495449  0.637609  -0.235821
    C   C239  0.134218  0.495449  0.362391  -0.235659
    C   C240  0.365782  0.995449  0.637609  -0.235776
    Cu  Cu1   -0.000000  0.539372  0.500000  0.965037
    Cu  Cu2   0.499811  0.499192  0.061852  0.899418
    Cu  Cu3   0.000189  0.999192  0.938148  0.899454
    Cu  Cu4   0.999811  0.999192  0.061852  0.899442
    Cu  Cu5   0.500000  0.039372  0.500000  0.965058
    Cu  Cu6   -0.000000  0.451560  0.500000  0.938275
    Cu  Cu7   0.500000  0.951560  0.500000  0.938298
    Cu  Cu8   0.956190  0.498980  0.045207  0.986370
    Cu  Cu9   0.043810  0.498980  0.954793  0.986407
    Cu  Cu10  0.456190  0.998980  0.045207  0.986384
    Cu  Cu11  0.543810  0.998980  0.954793  0.986369
    Cu  Cu12  0.500189  0.499192  0.938148  0.899528
    H   H1    0.011308  0.568412  0.293631  0.131173
    H   H2    0.051459  0.543930  0.743701  -0.079817
    H   H3    0.392331  0.626398  0.241946  0.135147
    H   H4    0.423505  0.586397  0.258086  0.154373
    H   H5    0.366892  0.602152  0.336809  0.163143
    H   H6    0.107669  0.126398  0.758054  0.135142
    H   H7    0.076495  0.086397  0.741914  0.154352
    H   H8    0.133108  0.102153  0.663191  0.163091
    H   H9    0.892331  0.126398  0.241946  0.135124
    H   H10   0.923505  0.086397  0.258086  0.154370
    H   H11   0.866892  0.102153  0.336809  0.163139
    H   H12   0.677070  0.684037  0.727661  0.117605
    H   H13   0.448541  0.043930  0.256298  -0.079782
    H   H14   0.686460  0.676854  0.634418  0.162086
    H   H15   0.729038  0.703089  0.640135  0.160308
    H   H16   0.322930  0.684037  0.272339  0.117432
    H   H17   0.313540  0.676854  0.365582  0.162080
    H   H18   0.270962  0.703089  0.359865  0.160214
    H   H19   0.177070  0.184037  0.727662  0.117465
    H   H20   0.186460  0.176854  0.634419  0.162035
    H   H21   0.229038  0.203089  0.640135  0.160256
    H   H22   0.822930  0.184037  0.272338  0.117464
    H   H23   0.813540  0.176854  0.365581  0.162044
    H   H24   0.551459  0.043930  0.743701  -0.079873
    H   H25   0.770962  0.203089  0.359865  0.160244
    H   H26   0.903543  0.352852  0.682499  0.127974
    H   H27   0.917588  0.334919  0.589143  0.156244
    H   H28   0.865994  0.315991  0.677497  0.152136
    H   H29   0.096457  0.352851  0.317501  0.127983
    H   H30   0.082412  0.334919  0.410857  0.156245
    H   H31   0.134006  0.315991  0.322503  0.152154
    H   H32   0.403543  0.852851  0.682499  0.127956
    H   H33   0.417588  0.834919  0.589143  0.156236
    H   H34   0.365994  0.815991  0.677497  0.152130
    H   H35   0.071160  0.510334  0.232800  0.062160
    H   H36   0.596457  0.852851  0.317501  0.128027
    H   H37   0.582412  0.834919  0.410857  0.156260
    H   H38   0.634006  0.815991  0.322503  0.152180
    H   H39   0.651984  0.395653  0.785701  0.114215
    H   H40   0.625681  0.430437  0.752502  0.218865
    H   H41   0.645481  0.374753  0.712821  0.154252
    H   H42   0.348016  0.395653  0.214299  0.114207
    H   H43   0.374319  0.430437  0.247498  0.218854
    H   H44   0.354519  0.374753  0.287179  0.154238
    H   H45   0.151984  0.895653  0.785701  0.114136
    H   H46   0.928840  0.510334  0.767200  0.062169
    H   H47   0.125681  0.930437  0.752502  0.218741
    H   H48   0.145481  0.874753  0.712821  0.154190
    H   H49   0.848016  0.895653  0.214299  0.114019
    H   H50   0.874319  0.930437  0.247498  0.218773
    H   H51   0.854519  0.874753  0.287179  0.154179
    H   H52   0.809601  0.668078  0.254344  0.145203
    H   H53   0.783219  0.676425  0.204789  0.184193
    H   H54   0.777611  0.718624  0.271449  0.168439
    H   H55   0.190399  0.668078  0.745656  0.145189
    H   H56   0.216781  0.676425  0.795211  0.184183
    H   H57   0.571160  0.010334  0.232800  0.062127
    H   H58   0.222389  0.718624  0.728551  0.168432
    H   H59   0.309601  0.168078  0.254344  0.145136
    H   H60   0.283219  0.176425  0.204789  0.184150
    H   H61   0.277611  0.218624  0.271448  0.168359
    H   H62   0.690399  0.168078  0.745656  0.145111
    H   H63   0.716781  0.176425  0.795211  0.184161
    H   H64   0.722390  0.218624  0.728552  0.168365
    H   H65   0.027078  0.649870  0.102546  0.115359
    H   H66   0.084990  0.631538  0.039818  0.151724
    H   H67   0.066353  0.666249  0.123691  0.144961
    H   H68   0.428840  0.010334  0.767200  0.062193
    H   H69   0.972922  0.649870  0.897454  0.115367
    H   H70   0.915010  0.631538  0.960182  0.151720
    H   H71   0.933647  0.666249  0.876309  0.144959
    H   H72   0.527078  0.149870  0.102546  0.115347
    H   H73   0.584990  0.131538  0.039818  0.151731
    H   H74   0.566353  0.166249  0.123691  0.144949
    H   H75   0.472922  0.149870  0.897454  0.115354
    H   H76   0.415010  0.131538  0.960182  0.151728
    H   H77   0.433647  0.166249  0.876309  0.144940
    H   H78   0.074151  0.506567  0.122022  0.038528
    H   H79   0.925849  0.506567  0.877978  0.038556
    H   H80   0.574151  0.006567  0.122022  0.038545
    H   H81   0.988692  0.568412  0.706370  0.131182
    H   H82   0.425849  0.006567  0.877978  0.038546
    H   H83   0.975590  0.428287  0.326180  0.058093
    H   H84   0.024410  0.428287  0.673820  0.058037
    H   H85   0.475590  0.928287  0.326180  0.058050
    H   H86   0.524410  0.928287  0.673820  0.058003
    H   H87   0.932674  0.470962  0.367431  0.049152
    H   H88   0.067326  0.470962  0.632569  0.049100
    H   H89   0.432674  0.970962  0.367431  0.049134
    H   H90   0.567326  0.970962  0.632569  0.049110
    H   H91   0.934638  0.468342  0.259171  0.007241
    H   H92   0.511308  0.068412  0.293631  0.131216
    H   H93   0.065362  0.468342  0.740829  0.007276
    H   H94   0.434638  0.968342  0.259171  0.007231
    H   H95   0.565362  0.968342  0.740829  0.007198
    H   H96   0.979779  0.428433  0.216036  0.022879
    H   H97   0.020221  0.428433  0.783964  0.022922
    H   H98   0.479779  0.928433  0.216036  0.022880
    H   H99   0.520221  0.928433  0.783964  0.022812
    H   H100  0.057010  0.451573  0.246726  0.030571
    H   H101  0.942991  0.451573  0.753273  0.030566
    H   H102  0.557010  0.951573  0.246726  0.030543
    H   H103  0.488692  0.068412  0.706370  0.131252
    H   H104  0.442991  0.951573  0.753273  0.030571
    H   H105  0.055421  0.449844  0.143892  0.017874
    H   H106  0.944579  0.449844  0.856109  0.017877
    H   H107  0.555421  0.949844  0.143892  0.017884
    H   H108  0.444579  0.949844  0.856109  0.017859
    H   H109  0.794912  0.598129  0.645394  0.213889
    H   H110  0.205088  0.598129  0.354606  0.213754
    H   H111  0.294912  0.098129  0.645394  0.213898
    H   H112  0.705088  0.098129  0.354606  0.213787
    H   H113  0.861926  0.561138  0.602297  0.139641
    H   H114  0.953504  0.551957  0.351557  0.067836
    H   H115  0.138074  0.561138  0.397703  0.139675
    H   H116  0.361926  0.061138  0.602297  0.139659
    H   H117  0.638074  0.061138  0.397703  0.139707
    H   H118  0.787057  0.396923  0.787381  0.121752
    H   H119  0.212943  0.396923  0.212619  0.121751
    H   H120  0.287057  0.896923  0.787380  0.121718
    H   H121  0.712943  0.896923  0.212619  0.121760
    H   H122  0.706839  0.399720  0.869149  0.111750
    H   H123  0.293161  0.399720  0.130851  0.111756
    H   H124  0.206839  0.899720  0.869149  0.111795
    H   H125  0.046496  0.551957  0.648443  0.067815
    H   H126  0.793161  0.899720  0.130851  0.111762
    H   H127  0.390405  0.290167  0.139262  0.144244
    H   H128  0.609595  0.290167  0.860738  0.144286
    H   H129  0.890405  0.790167  0.139262  0.144253
    H   H130  0.109595  0.790167  0.860738  0.144365
    H   H131  0.929617  0.637743  0.084590  0.093285
    H   H132  0.070383  0.637743  0.915410  0.093297
    H   H133  0.429617  0.137743  0.084590  0.093304
    H   H134  0.570383  0.137743  0.915410  0.093315
    H   H135  0.461142  0.639006  0.123466  0.160873
    H   H136  0.453504  0.051957  0.351557  0.067819
    H   H137  0.538859  0.639006  0.876534  0.160754
    H   H138  0.961142  0.139006  0.123466  0.160885
    H   H139  0.038858  0.139006  0.876534  0.160849
    H   H140  0.564085  0.708237  0.807036  0.129282
    H   H141  0.435915  0.708237  0.192964  0.129349
    H   H142  0.064085  0.208237  0.807036  0.129320
    H   H143  0.935915  0.208237  0.192964  0.129323
    H   H144  0.065932  0.290289  0.806996  0.146360
    H   H145  0.934068  0.290289  0.193003  0.146309
    H   H146  0.565932  0.790289  0.806996  0.146340
    H   H147  0.546496  0.051957  0.648443  0.067862
    H   H148  0.434068  0.790289  0.193003  0.146295
    H   H149  0.043692  0.359886  0.876421  0.137433
    H   H150  0.956308  0.359886  0.123579  0.137480
    H   H151  0.543692  0.859886  0.876421  0.137451
    H   H152  0.456308  0.859886  0.123579  0.137476
    H   H153  0.587379  0.371198  0.025012  0.137430
    H   H154  0.566884  0.409538  0.105292  0.180508
    H   H155  0.617938  0.378010  0.067499  0.155371
    H   H156  0.412621  0.371198  0.974988  0.137401
    H   H157  0.433116  0.409538  0.894708  0.180480
    H   H158  0.948541  0.543930  0.256299  -0.079778
    H   H159  0.382062  0.378010  0.932501  0.155362
    H   H160  0.087380  0.871198  0.025012  0.137385
    H   H161  0.066884  0.909538  0.105292  0.180473
    H   H162  0.117938  0.878010  0.067499  0.155371
    H   H163  0.912621  0.871198  0.974988  0.137393
    H   H164  0.933116  0.909538  0.894708  0.180473
    H   H165  0.882062  0.878010  0.932501  0.155356
    H   H166  0.607669  0.626398  0.758054  0.135232
    H   H167  0.576495  0.586397  0.741914  0.154392
    H   H168  0.633108  0.602152  0.663190  0.163118
    O   O1    0.936054  0.532597  0.581947  -0.604834
    O   O2    0.012568  0.532586  0.577280  -0.577590
    O   O3    0.928145  0.583231  0.840307  -0.590392
    O   O4    0.503714  0.079610  0.182892  -0.671493
    O   O5    0.571855  0.083231  0.159693  -0.590372
    O   O6    0.496286  0.079610  0.817108  -0.671521
    O   O7    0.428145  0.083231  0.840307  -0.590392
    O   O8    0.487432  0.032586  0.422720  -0.577599
    O   O9    0.512568  0.032586  0.577280  -0.577603
    O   O10   0.011266  0.458349  0.398334  -0.610444
    O   O11   0.988734  0.458349  0.601666  -0.610407
    O   O12   0.511266  0.958349  0.398334  -0.610459
    O   O13   0.488734  0.958349  0.601666  -0.610411
    O   O14   0.962775  0.562981  0.020928  -0.585644
    O   O15   0.037225  0.562981  0.979072  -0.585714
    O   O16   0.462775  0.062981  0.020928  -0.585632
    O   O17   0.063946  0.532597  0.418053  -0.604813
    O   O18   0.537225  0.062981  0.979072  -0.585668
    O   O19   0.964131  0.511398  0.127014  -0.654350
    O   O20   0.035869  0.511398  0.872986  -0.654297
    O   O21   0.464131  0.011398  0.127014  -0.654333
    O   O22   0.535869  0.011398  0.872986  -0.654279
    O   O23   0.038061  0.486520  0.050734  -0.651309
    O   O24   0.961939  0.486520  0.949266  -0.651273
    O   O25   0.538061  0.986520  0.050734  -0.651341
    O   O26   0.461939  0.986520  0.949266  -0.651269
    O   O27   0.963288  0.434998  0.055495  -0.614395
    O   O28   0.436054  0.032597  0.581947  -0.604819
    O   O29   0.036713  0.434998  0.944505  -0.614204
    O   O30   0.463288  0.934998  0.055495  -0.614437
    O   O31   0.536713  0.934998  0.944505  -0.614145
    O   O32   0.487724  0.435179  0.960187  -0.523641
    O   O33   0.512276  0.435179  0.039813  -0.523591
    O   O34   0.987724  0.935179  0.960187  -0.523587
    O   O35   0.012276  0.935179  0.039813  -0.523579
    O   O36   0.564136  0.486861  0.883792  -0.581212
    O   O37   0.435864  0.486861  0.116208  -0.581234
    O   O38   0.064136  0.986861  0.883792  -0.581160
    O   O39   0.563946  0.032597  0.418053  -0.604844
    O   O40   0.935864  0.986861  0.116208  -0.581191
    O   O41   0.563726  0.511623  0.988371  -0.554984
    O   O42   0.436274  0.511623  0.011629  -0.555085
    O   O43   0.063726  0.011623  0.988371  -0.555019
    O   O44   0.936274  0.011623  0.011629  -0.555035
    O   O45   0.512602  0.563186  0.935419  -0.577900
    O   O46   0.487398  0.563186  0.064581  -0.577781
    O   O47   0.012602  0.063186  0.935419  -0.577798
    O   O48   0.987398  0.063186  0.064581  -0.577763
    O   O49   0.631882  0.432315  0.925980  -0.431803
    O   O50   0.935808  0.458339  0.548700  -0.578134
    O   O51   0.638302  0.462697  0.015039  -0.578728
    O   O52   0.368118  0.432315  0.074020  -0.431768
    O   O53   0.361698  0.462697  0.984961  -0.578772
    O   O54   0.131882  0.932315  0.925980  -0.431651
    O   O55   0.138302  0.962697  0.015039  -0.578744
    O   O56   0.868118  0.932315  0.074020  -0.431695
    O   O57   0.861698  0.962697  0.984961  -0.578750
    O   O58   0.634984  0.564282  0.802769  -0.467021
    O   O59   0.638398  0.522923  0.712008  -0.600237
    O   O60   0.365016  0.564282  0.197231  -0.467268
    O   O61   0.064193  0.458339  0.451300  -0.578095
    O   O62   0.361602  0.522923  0.287992  -0.600246
    O   O63   0.134984  0.064282  0.802769  -0.467116
    O   O64   0.138398  0.022923  0.712008  -0.600192
    O   O65   0.865016  0.064282  0.197231  -0.467217
    O   O66   0.861602  0.022923  0.287992  -0.600214
    O   O67   0.708052  0.607125  0.720718  -0.412450
    O   O68   0.750706  0.617216  0.592185  -0.537260
    O   O69   0.291948  0.607125  0.279282  -0.412318
    O   O70   0.249295  0.617216  0.407815  -0.537286
    O   O71   0.208052  0.107125  0.720719  -0.412180
    O   O72   0.435808  0.958339  0.548700  -0.578166
    O   O73   0.250706  0.117216  0.592185  -0.537280
    O   O74   0.791948  0.107125  0.279281  -0.412218
    O   O75   0.749295  0.117216  0.407815  -0.537262
    O   O76   0.864226  0.422594  0.682335  -0.402460
    O   O77   0.848567  0.382111  0.612492  -0.571616
    O   O78   0.135774  0.422594  0.317665  -0.402509
    O   O79   0.151433  0.382111  0.387508  -0.571602
    O   O80   0.364226  0.922594  0.682335  -0.402510
    O   O81   0.348567  0.882111  0.612492  -0.571639
    O   O82   0.635774  0.922594  0.317665  -0.402610
    O   O83   0.564193  0.958339  0.451300  -0.578106
    O   O84   0.651433  0.882111  0.387508  -0.571615
    O   O85   0.576799  0.364618  0.896391  -0.388782
    O   O86   0.557349  0.370484  0.814902  -0.578980
    O   O87   0.423202  0.364618  0.103609  -0.389112
    O   O88   0.442651  0.370484  0.185098  -0.579028
    O   O89   0.076799  0.864618  0.896391  -0.388905
    O   O90   0.057349  0.870484  0.814902  -0.578970
    O   O91   0.923202  0.864618  0.103609  -0.389206
    O   O92   0.942651  0.870484  0.185098  -0.579001
    O   O93   0.882092  0.702690  0.143754  -0.387546
    O   O94   0.987432  0.532586  0.422720  -0.577560
    O   O95   0.838781  0.743823  0.123459  -0.550263
    O   O96   0.117908  0.702690  0.856246  -0.387587
    O   O97   0.161219  0.743823  0.876541  -0.550277
    O   O98   0.382092  0.202690  0.143754  -0.387647
    O   O99   0.338781  0.243823  0.123459  -0.550224
    O   O100  0.617908  0.202690  0.856246  -0.387574
    O   O101  0.661219  0.243823  0.876541  -0.550209
    O   O102  0.003714  0.579610  0.182892  -0.671532
    O   O103  0.071855  0.583231  0.159693  -0.590381
    O   O104  0.996286  0.579610  0.817108  -0.671535
