# Generated by REPEAT Assigner based on pymatgen
data_DB0-m2_o2_o16_f0_pcu.sym.74_sqe
_audit_creation_date              2022-05-24
_audit_creation_method            REPEAT_Assigner
_cell_length_a                    13.702473
_cell_length_b                    13.683096
_cell_length_c                    15.122694
_cell_angle_alpha                 89.996609
_cell_angle_beta                  89.987299
_cell_angle_gamma                 73.674362
_cell_volume                      2721.063902
_symmetry_space_group_name_H-M    P1
_symmetry_Int_Tables_number       1
loop_
    _symmetry_equiv_pos_site_id
    _symmetry_equiv_pos_as_xyz
    1  x,y,z
loop_
    _atom_site_type_symbol
    _atom_site_label
    _atom_site_fract_x
    _atom_site_fract_y
    _atom_site_fract_z
    _atom_type_partial_charge
    O   O1   0.517211  0.407990  0.632059  -0.555284
    O   O2   0.514446  0.576200  0.630850  -0.627254
    C   C1   0.514104  0.493173  0.672811  0.712789
    O   O3   0.667893  0.371698  0.499136  -0.570506
    O   O4   0.660337  0.540548  0.507058  -0.569631
    C   C2   0.712945  0.445068  0.500293  0.675487
    Cu  Cu1  0.520916  0.391856  0.503664  0.763147
    Cu  Cu2  0.512403  0.589380  0.501908  0.952121
    O   O5   0.516028  0.405544  0.375114  -0.529086
    O   O6   0.518423  0.572642  0.373854  -0.625196
    O   O7   0.372422  0.440424  0.501068  -0.717057
    O   O8   0.365325  0.610510  0.503700  -0.686580
    C   C3   0.516288  0.488591  0.332316  0.675312
    C   C4   0.321045  0.537300  0.501706  0.893803
    C   C5   0.055338  0.695913  0.468009  0.031502
    H   H1   0.197353  0.725892  0.475320  0.153040
    H   H2   0.020015  0.775543  0.455749  0.023244
    C   C6   0.209467  0.566693  0.494426  -0.109746
    C   C7   0.875858  0.314618  0.506096  -0.053605
    C   C8   0.979808  0.280744  0.509945  0.095978
    C   C9   0.037394  0.347937  0.505650  0.092516
    C   C10  0.991787  0.452005  0.493533  -0.288650
    C   C11  0.885626  0.485599  0.484656  0.277680
    C   C12  0.049581  0.522897  0.488312  0.228204
    C   C13  0.000533  0.624973  0.472621  -0.089629
    C   C14  0.896688  0.655957  0.459956  0.238158
    C   C15  0.841835  0.586680  0.461681  -0.304488
    C   C16  0.155360  0.495184  0.499429  -0.211144
    C   C17  0.158341  0.667341  0.479342  -0.194440
    C   C18  0.826479  0.416831  0.496066  -0.223830
    H   H3   0.198834  0.418603  0.513427  0.173275
    H   H4   0.833804  0.259357  0.512104  0.097561
    H   H5   0.118005  0.313406  0.510419  -0.001042
    H   H6   0.764950  0.615946  0.439731  0.135677
    C   C19  0.435595  0.473058  0.907785  -0.364683
    H   H7   0.374837  0.454861  0.943747  0.166499
    C   C20  0.436974  0.467922  0.816565  0.196647
    C   C21  0.511751  0.495977  0.769802  -0.046495
    C   C22  0.582126  0.532285  0.815009  -0.155593
    H   H8   0.639725  0.556001  0.779045  0.131608
    C   C23  0.582123  0.534560  0.906261  -0.218162
    H   H9   0.640725  0.558607  0.940191  0.130801
    C   C24  0.509871  0.503079  0.952999  0.244236
    C   C25  0.533960  0.575279  0.099893  -0.187598
    H   H10  0.548346  0.640992  0.068459  0.117037
    C   C26  0.534302  0.570133  0.190914  -0.114602
    H   H11  0.550397  0.631561  0.227546  0.137742
    C   C27  0.514977  0.488706  0.234594  -0.113559
    C   C28  0.493832  0.411541  0.184168  0.291642
    C   C29  0.492699  0.417974  0.093262  -0.239843
    H   H12  0.477383  0.356403  0.056135  0.092488
    C   C30  0.512365  0.499283  0.050109  0.064623
    C   C31  0.481321  0.895362  0.426488  -0.267290
    H   H13  0.463782  0.937939  0.365742  0.153701
    C   C32  0.478432  0.794863  0.427774  0.026241
    H   H14  0.455827  0.762257  0.368917  0.112041
    N   N1   0.505416  0.737618  0.501341  -0.079149
    C   C33  0.535388  0.778543  0.573867  0.038460
    H   H15  0.560121  0.733816  0.632574  0.117732
    C   C34  0.536138  0.878543  0.575496  -0.202077
    H   H16  0.557957  0.909132  0.635896  0.100946
    C   C35  0.510651  0.938322  0.501108  0.199835
    C   C36  0.589403  0.071435  0.551608  -0.152772
    H   H17  0.644604  0.015319  0.589324  0.119022
    C   C37  0.592861  0.171428  0.554788  0.158651
    N   N2   0.528167  0.243565  0.504984  -0.022547
    C   C38  0.457643  0.217389  0.455346  0.008536
    H   H18  0.405115  0.273926  0.415565  0.192627
    C   C39  0.449317  0.119213  0.454345  -0.216390
    H   H19  0.388325  0.103029  0.417285  0.111712
    C   C40  0.516703  0.044186  0.501765  0.078033
    S   S1   0.334801  0.436473  0.759661  -0.194032
    C   C41  0.361133  0.311026  0.809600  0.079308
    H   H20  0.350608  0.255487  0.759656  0.046919
    H   H21  0.308811  0.313505  0.866023  -0.006914
    H   H22  0.440766  0.286544  0.833224  -0.001912
    S   S2   0.465167  0.302160  0.229635  -0.231420
    C   C42  0.329062  0.360935  0.222103  -0.015550
    H   H23  0.289234  0.319434  0.265743  0.052886
    H   H24  0.303515  0.357266  0.152918  0.033291
    H   H25  0.310763  0.441311  0.244302  0.015405
    S   S3   0.827876  0.785649  0.438637  -0.252410
    C   C43  0.819337  0.817398  0.555668  0.276581
    H   H26  0.815969  0.898790  0.563809  -0.064414
    H   H27  0.887326  0.770997  0.591154  -0.041470
    H   H28  0.750576  0.802640  0.584444  -0.045030
    S   S4   0.685179  0.201312  0.625148  -0.090379
    C   C44  0.621613  0.177979  0.724686  -0.088080
    H   H29  0.625961  0.234775  0.775688  0.104909
    H   H30  0.658668  0.100034  0.749150  0.012804
    H   H31  0.540601  0.185872  0.709925  0.041691
    S   S5   0.041754  0.147817  0.521574  -0.190531
    C   C45  0.031682  0.153301  0.641234  -0.123424
    H   H32  0.080620  0.081241  0.669217  0.093661
    H   H33  0.951692  0.162637  0.661156  0.057545
    H   H34  0.058062  0.217483  0.666820  0.058139
