# Generated by REPEAT Assigner based on pymatgen
data_DB0-m2_o1_o14_f0_nbo.sym.24
_audit_creation_date              2022-05-24
_audit_creation_method            REPEAT_Assigner
_cell_length_a                    18.641217
_cell_length_b                    18.744501
_cell_length_c                    18.664856
_cell_angle_alpha                 109.663893
_cell_angle_beta                  109.447486
_cell_angle_gamma                 109.360190
_cell_volume                      5016.926168
_symmetry_space_group_name_H-M    P1
_symmetry_Int_Tables_number       1
loop_
    _symmetry_equiv_pos_site_id
    _symmetry_equiv_pos_as_xyz
    1  x,y,z
loop_
    _atom_site_type_symbol
    _atom_site_label
    _atom_site_fract_x
    _atom_site_fract_y
    _atom_site_fract_z
    _atom_type_partial_charge
    O   O1   0.098104  0.141348  0.560725  -0.551160
    O   O2   0.091913  0.037876  0.445091  -0.581148
    C   C1   0.122879  0.119489  0.502518  0.582201
    O   O3   0.099158  0.048074  0.646917  -0.606578
    O   O4   0.100553  0.945578  0.537148  -0.646914
    C   C2   0.132789  0.000563  0.620148  0.799882
    Cu  Cu1  0.008150  0.057161  0.566983  0.923037
    Cu  Cu2  0.008555  0.937406  0.440099  0.949188
    O   O5   0.923421  0.956665  0.560830  -0.526361
    O   O6   0.919715  0.853064  0.447241  -0.526596
    O   O7   0.912935  0.045405  0.469957  -0.470736
    O   O8   0.911943  0.940645  0.360236  -0.573598
    C   C3   0.893386  0.874957  0.503974  0.680045
    C   C4   0.885065  0.995536  0.386888  0.605180
    H   H1   0.116200  0.878012  0.662909  0.136557
    C   C5   0.309611  0.141080  0.719795  -0.551699
    H   H2   0.264229  0.138548  0.663675  0.199833
    C   C6   0.393228  0.212267  0.771015  0.640538
    C   C7   0.452264  0.220597  0.845333  -0.298985
    H   H3   0.516334  0.278716  0.888343  0.154074
    C   C8   0.430507  0.154612  0.864643  -0.205180
    H   H4   0.478334  0.165992  0.925234  0.162779
    C   C9   0.349510  0.078071  0.808479  0.132820
    C   C10  0.287000  0.073840  0.738450  0.228831
    C   C11  0.202792  0.001995  0.686852  -0.120018
    C   C12  0.182108  0.933554  0.702849  -0.143148
    H   H5   0.227634  0.880607  0.780291  0.134576
    C   C13  0.244636  0.935920  0.770046  -0.083006
    C   C14  0.328582  0.007153  0.822716  -0.199877
    C   C15  0.209172  0.168957  0.435915  -0.224430
    H   H6   0.176731  0.102361  0.383310  0.145803
    C   C16  0.271074  0.234159  0.435595  -0.031381
    H   H7   0.286676  0.217760  0.383564  0.096248
    C   C17  0.315130  0.319570  0.502641  -0.198051
    C   C18  0.295130  0.340380  0.569195  0.471923
    C   C19  0.230783  0.275318  0.567809  -0.356236
    H   H8   0.214034  0.292591  0.618844  0.169593
    C   C20  0.188754  0.189086  0.502179  0.125777
    C   C21  0.750307  0.916811  0.243731  -0.114159
    H   H9   0.751090  0.856751  0.232886  0.142352
    C   C22  0.683833  0.914941  0.180443  -0.165313
    H   H10  0.634126  0.853834  0.120354  0.130135
    C   C23  0.683902  0.991591  0.192063  0.054341
    C   C24  0.748432  0.069298  0.268466  -0.394633
    H   H11  0.748932  0.129574  0.277587  0.197031
    C   C25  0.811625  0.070618  0.334468  0.471716
    C   C26  0.814261  0.994393  0.320968  -0.110568
    C   C27  0.829002  0.731974  0.497076  0.139265
    C   C28  0.761058  0.665596  0.491564  0.298480
    C   C29  0.689605  0.674092  0.491803  -0.251142
    C   C30  0.683372  0.744908  0.490237  -0.315938
    H   H12  0.626721  0.750510  0.487191  0.208184
    C   C31  0.750274  0.810743  0.495641  0.354959
    C   C32  0.823528  0.804946  0.499797  -0.195982
    O   O9   0.437529  0.858604  0.895147  -0.562443
    O   O10  0.578463  0.960614  0.938333  -0.576224
    C   C33  0.508508  0.881268  0.887370  0.658343
    O   O11  0.367602  0.965182  0.931595  -0.631045
    O   O12  0.474062  0.032583  0.901406  -0.592162
    C   C34  0.393690  0.002998  0.889574  0.773944
    Cu  Cu3  0.442912  0.934285  0.001027  0.931142
    Cu  Cu4  0.568326  0.057010  0.008656  0.914465
    O   O13  0.468158  0.029472  0.108123  -0.487658
    O   O14  0.538307  0.133909  0.077724  -0.572606
    O   O15  0.538154  0.923076  0.071977  -0.601989
    O   O16  0.642670  0.062332  0.114960  -0.579563
    C   C35  0.502691  0.110285  0.122343  0.644611
    C   C36  0.618168  0.992134  0.123043  0.703814
    O   O17  0.437281  0.573928  0.538278  -0.595018
    O   O18  0.574279  0.606672  0.639037  -0.592450
    C   C37  0.506842  0.620241  0.617979  0.674936
    O   O19  0.361528  0.396598  0.432801  -0.623128
    O   O20  0.463550  0.432102  0.570513  -0.588252
    C   C38  0.382992  0.386885  0.502543  0.766520
    Cu  Cu5  0.442449  0.499971  0.439524  0.950373
    Cu  Cu6  0.561701  0.497917  0.559926  0.912170
    O   O21  0.466401  0.425666  0.359790  -0.506496
    O   O22  0.530330  0.389518  0.461767  -0.609971
    O   O23  0.542197  0.602904  0.465078  -0.624616
    O   O24  0.641060  0.564038  0.530409  -0.554058
    C   C39  0.497383  0.377444  0.381161  0.727072
    C   C40  0.621033  0.610531  0.495827  0.815330
    C   C41  0.587083  0.821442  0.824757  -0.085233
    H   H13  0.649126  0.875320  0.881385  0.117836
    C   C42  0.586600  0.757462  0.760127  -0.138563
    H   H14  0.648311  0.762872  0.766798  0.124117
    C   C43  0.508015  0.688393  0.686873  0.002984
    C   C44  0.429970  0.682964  0.679553  -0.074686
    H   H15  0.367807  0.628869  0.623295  0.116451
    C   C45  0.430362  0.745126  0.745559  -0.112117
    H   H16  0.368491  0.739194  0.738855  0.116673
    C   C46  0.508877  0.815006  0.818134  -0.020837
    C   C47  0.493600  0.243893  0.176479  -0.381344
    H   H17  0.491593  0.246462  0.118899  0.201827
    C   C48  0.488563  0.307191  0.235967  0.415673
    C   C49  0.495679  0.307483  0.312636  -0.110012
    C   C50  0.503304  0.241322  0.325618  -0.385862
    H   H18  0.509576  0.240763  0.385066  0.212559
    C   C51  0.501830  0.174445  0.262813  0.398202
    C   C52  0.498960  0.176728  0.188459  -0.072018
    O   O25  0.875196  0.148675  0.409705  -0.446313
    C   C53  0.834619  0.167559  0.458751  0.465710
    H   H19  0.789485  0.106678  0.452400  -0.094390
    H   H20  0.797391  0.198083  0.435331  -0.060461
    C   C54  0.903890  0.231096  0.554586  -0.254545
    H   H21  0.949088  0.292177  0.561317  0.078030
    H   H22  0.871630  0.246270  0.593321  0.045908
    H   H23  0.941691  0.201720  0.579555  0.046677
    O   O26  0.907367  0.732994  0.515379  -0.331281
    C   C55  0.898531  0.679664  0.435856  0.393281
    H   H24  0.851228  0.679427  0.380625  -0.019775
    H   H25  0.876536  0.612588  0.424717  -0.000757
    C   C56  0.987087  0.711742  0.440914  -0.408160
    H   H26  0.035501  0.717844  0.500071  0.110270
    H   H27  0.981166  0.664027  0.381423  0.073796
    H   H28  0.009774  0.775881  0.444437  0.130427
    O   O27  0.766973  0.594088  0.490115  -0.403764
    C   C57  0.713117  0.526065  0.402210  0.511657
    H   H29  0.725091  0.549120  0.357782  -0.126696
    H   H30  0.643002  0.500871  0.382372  -0.077130
    C   C58  0.731442  0.451321  0.391761  -0.361979
    H   H31  0.712950  0.424258  0.431397  0.114928
    H   H32  0.692123  0.399365  0.321618  0.100758
    H   H33  0.802183  0.475018  0.414587  0.073817
    O   O28  0.741437  0.879325  0.491809  -0.410632
    C   C59  0.754857  0.932340  0.573979  0.398318
    H   H34  0.807609  0.934706  0.626507  -0.044366
    H   H35  0.693266  0.906467  0.576118  -0.052447
    C   C60  0.781334  0.024037  0.589109  -0.289575
    H   H36  0.728964  0.021821  0.536358  0.106524
    H   H37  0.790736  0.065818  0.653678  0.053201
    H   H38  0.843466  0.051895  0.588422  0.091366
    O   O29  0.483226  0.372444  0.220980  -0.399668
    C   C61  0.395625  0.335380  0.157696  0.406729
    H   H39  0.351544  0.293326  0.172130  -0.074763
    H   H40  0.384369  0.296012  0.091403  -0.058659
    C   C62  0.375195  0.407422  0.159039  -0.206973
    H   H41  0.419626  0.450072  0.145353  0.060350
    H   H42  0.306089  0.378057  0.108005  0.050430
    H   H43  0.384754  0.446918  0.224412  0.039955
    O   O30  0.510935  0.110822  0.278654  -0.422976
    C   C63  0.428837  0.054672  0.262642  0.453902
    H   H44  0.376005  0.044746  0.203856  -0.081552
    H   H45  0.421179  0.082609  0.320418  -0.063286
    C   C64  0.421824  0.967277  0.246746  -0.249962
    H   H46  0.474508  0.976942  0.305449  0.065964
    H   H47  0.356897  0.922836  0.234471  0.054070
    H   H48  0.428913  0.937918  0.188924  0.058401
    O   O31  0.416576  0.276183  0.749844  -0.556179
    C   C65  0.447667  0.249362  0.693071  0.496184
    H   H49  0.409017  0.244475  0.630059  -0.091440
    H   H50  0.440836  0.184478  0.679689  -0.070509
    C   C66  0.543711  0.315067  0.734380  -0.288192
    H   H51  0.582921  0.317274  0.795460  0.067017
    H   H52  0.567022  0.295211  0.687637  0.057811
    H   H53  0.551993  0.380823  0.750270  0.069511
    O   O32  0.333423  0.425991  0.632111  -0.452996
    C   C67  0.392612  0.435678  0.709059  0.454312
    H   H54  0.423471  0.396043  0.692921  0.004502
    H   H55  0.357996  0.414698  0.742605  -0.040884
    C   C68  0.463527  0.530756  0.770162  -0.381106
    H   H56  0.432944  0.571821  0.782546  0.106984
    H   H57  0.507520  0.539113  0.833197  0.067530
    H   H58  0.502334  0.550911  0.739714  0.119890
