# Generated by REPEAT Assigner based on pymatgen
data_DB0-m3_o160_o1530_f0_fsc.sym.65_sqe
_audit_creation_date              2022-05-24
_audit_creation_method            REPEAT_Assigner
_cell_length_a                    8.586378
_cell_length_b                    13.026256
_cell_length_c                    13.449479
_cell_angle_alpha                 90.935841
_cell_angle_beta                  90.074506
_cell_angle_gamma                 95.353370
_cell_volume                      1497.534874
_symmetry_space_group_name_H-M    P1
_symmetry_Int_Tables_number       1
loop_
    _symmetry_equiv_pos_site_id
    _symmetry_equiv_pos_as_xyz
    1  x,y,z
loop_
    _atom_site_type_symbol
    _atom_site_label
    _atom_site_fract_x
    _atom_site_fract_y
    _atom_site_fract_z
    _atom_type_partial_charge
    C   C1   0.022872  0.133961  0.994125  0.138533
    C   C2   0.890926  0.189467  0.996051  0.145689
    C   C3   0.745445  0.137427  0.998986  -0.122684
    C   C4   0.728615  0.032128  0.999335  -0.506896
    C   C5   0.856405  0.974816  0.996315  0.287191
    C   C6   0.005158  0.025292  0.991989  -0.011236
    C   C7   0.835727  0.867592  0.997533  -0.368273
    C   C8   0.963426  0.810116  0.997930  0.143864
    C   C9   0.111403  0.858927  0.987760  0.227269
    C   C10  0.131356  0.965508  0.982157  -0.332438
    C   C11  0.946670  0.704285  0.010468  -0.198694
    C   C12  0.076721  0.651516  0.023842  -0.147350
    C   C13  0.223777  0.697302  0.004870  0.015693
    C   C14  0.239293  0.800474  0.982652  -0.293250
    C   C15  0.169379  0.189127  0.996573  -0.267601
    C   C16  0.181645  0.294332  0.988186  0.021813
    C   C17  0.050819  0.346385  0.979912  -0.185556
    C   C18  0.904568  0.296582  0.991159  -0.209573
    H   H1   0.641302  0.177932  0.998307  0.120628
    H   H2   0.061353  0.571646  0.042932  0.083327
    H   H3   0.353349  0.833871  0.964681  0.149749
    H   H4   0.247642  0.999541  0.970606  0.214669
    H   H5   0.719883  0.828271  0.003199  0.093364
    H   H6   0.276988  0.154167  0.005040  0.122115
    H   H7   0.064075  0.427922  0.968529  0.155136
    O   O1   0.741903  0.602070  0.088699  -0.756802
    O   O2   0.740322  0.613784  0.918176  -0.759453
    C   C19  0.796320  0.642645  0.006100  1.003689
    O   O3   0.724635  0.399639  0.911305  -0.794034
    O   O4   0.716517  0.388544  0.082213  -0.711655
    C   C20  0.770331  0.360714  0.994880  0.982168
    O   O5   0.387114  0.394104  0.908829  -0.691537
    O   O6   0.389492  0.382042  0.080154  -0.562883
    C   C21  0.332497  0.354469  0.992100  0.726858
    O   O7   0.403963  0.595476  0.086331  -0.747424
    O   O8   0.414243  0.608007  0.915679  -0.790326
    C   C22  0.358083  0.633946  0.002556  0.922784
    Zn  Zn1  0.566924  0.502337  0.888308  1.067400
    Zn  Zn2  0.562662  0.493582  0.109915  0.970598
    C   C23  0.527206  0.405646  0.296080  -0.180896
    N   N1   0.560581  0.491798  0.240844  0.099840
    C   C24  0.591803  0.583710  0.290236  -0.151203
    C   C25  0.597890  0.589826  0.392133  -0.085187
    C   C26  0.566637  0.503624  0.448815  -0.155051
    C   C27  0.530401  0.411095  0.399268  0.487523
    C   C28  0.597970  0.597613  0.608446  -0.219885
    C   C29  0.568221  0.507048  0.552692  0.225172
    C   C30  0.537411  0.416196  0.603075  0.055887
    C   C31  0.503817  0.324865  0.550913  0.127358
    N   N2   0.500231  0.323936  0.450980  -0.468120
    C   C32  0.596679  0.594918  0.710829  -0.130963
    N   N3   0.569257  0.504954  0.757996  0.202107
    C   C33  0.539447  0.416237  0.705756  -0.199513
    H   H8   0.516721  0.344423  0.744548  0.160885
    H   H9   0.479224  0.253475  0.590218  0.118701
    H   H10  0.624966  0.665651  0.423596  0.127949
    H   H11  0.621136  0.672352  0.576199  0.162626
    H   H12  0.618017  0.666040  0.753211  0.194566
    C   C34  0.477174  0.304182  0.251384  0.697700
    O   O9   0.556376  0.265481  0.188657  -0.439564
    N   N4   0.341985  0.245636  0.289090  -0.855732
    H   H13  0.265503  0.228361  0.229471  0.321731
    H   H14  0.377454  0.176370  0.315056  0.340633
    C   C35  0.570820  0.984428  0.991748  1.055517
    O   O10  0.508498  0.977377  0.910135  -0.564941
    N   N5   0.482395  0.963163  0.080034  -0.729475
    H   H15  0.539788  0.910686  0.121084  0.270926
    H   H16  0.484946  0.031782  0.121468  0.246239
    C   C36  0.614779  0.683398  0.240957  0.797278
    O   O11  0.501497  0.726807  0.216218  -0.478972
    N   N6   0.763404  0.741852  0.249403  -0.812568
    H   H17  0.792433  0.772761  0.180037  0.333754
    H   H18  0.845626  0.691065  0.267901  0.310805
