# Generated by REPEAT Assigner based on pymatgen
data_DB0-m3_o4_o27_f0_nbo.sym.58
_audit_creation_date              2022-05-24
_audit_creation_method            REPEAT_Assigner
_cell_length_a                    30.812090
_cell_length_b                    30.952591
_cell_length_c                    24.684623
_cell_angle_alpha                 90.000000
_cell_angle_beta                  128.611813
_cell_angle_gamma                 90.000000
_cell_volume                      18395.582171
_symmetry_space_group_name_H-M    P1
_symmetry_Int_Tables_number       1
loop_
    _symmetry_equiv_pos_site_id
    _symmetry_equiv_pos_as_xyz
    1  x,y,z
loop_
    _atom_site_type_symbol
    _atom_site_label
    _atom_site_fract_x
    _atom_site_fract_y
    _atom_site_fract_z
    _atom_type_partial_charge
    O   O1    0.826999  0.771852  0.506653  -0.619532
    O   O2    0.173001  0.771852  0.493347  -0.619542
    O   O3    0.326999  0.271852  0.506653  -0.619550
    O   O4    0.673001  0.271852  0.493347  -0.619538
    O   O5    0.770971  0.824301  0.501070  -0.641565
    O   O6    0.229029  0.824302  0.498930  -0.641577
    O   O7    0.270971  0.324301  0.501070  -0.641580
    O   O8    0.729029  0.324302  0.498930  -0.641570
    C   C1    0.813702  0.812320  0.505074  0.622223
    C   C2    0.186298  0.812321  0.494927  0.622248
    C   C3    0.313702  0.312320  0.505074  0.622262
    C   C4    0.686298  0.312321  0.494927  0.622238
    O   O9    0.728068  0.729893  0.397743  -0.698450
    O   O10   0.271933  0.729893  0.602257  -0.698439
    O   O11   0.228068  0.229893  0.397743  -0.698428
    O   O12   0.771933  0.229893  0.602257  -0.698394
    O   O13   0.672571  0.781330  0.395230  -0.661227
    O   O14   0.327428  0.781330  0.604770  -0.661247
    O   O15   0.172571  0.281330  0.395230  -0.661245
    O   O16   0.827428  0.281330  0.604770  -0.661235
    C   C5    0.685004  0.755945  0.364194  0.573629
    C   C6    0.314996  0.755945  0.635805  0.573651
    C   C7    0.185004  0.255945  0.364194  0.573631
    C   C8    0.814996  0.255945  0.635805  0.573702
    Zn  Zn1   0.785658  0.718893  0.500879  1.279618
    Zn  Zn2   0.214343  0.718893  0.499122  1.279594
    Zn  Zn3   0.285658  0.218893  0.500879  1.279599
    Zn  Zn4   0.714343  0.218893  0.499122  1.279552
    Zn  Zn5   0.715051  0.788048  0.498598  1.267662
    Zn  Zn6   0.284949  0.788048  0.501401  1.267691
    Zn  Zn7   0.215051  0.288048  0.498598  1.267686
    Zn  Zn8   0.784949  0.288048  0.501401  1.267697
    O   O17   0.729910  0.682625  0.498830  -0.646885
    O   O18   0.270090  0.682624  0.501170  -0.646850
    O   O19   0.229910  0.182625  0.498830  -0.646909
    O   O20   0.770090  0.182624  0.501170  -0.646816
    O   O21   0.673461  0.735118  0.492216  -0.641279
    O   O22   0.326539  0.735119  0.507784  -0.641276
    O   O23   0.173461  0.235118  0.492216  -0.641299
    O   O24   0.826539  0.235119  0.507784  -0.641237
    O   O25   0.828528  0.725961  0.604293  -0.728073
    O   O26   0.171473  0.725961  0.395708  -0.728092
    O   O27   0.328528  0.225961  0.604293  -0.728043
    O   O28   0.671473  0.225961  0.395708  -0.728044
    O   O29   0.772420  0.776759  0.601717  -0.677310
    O   O30   0.227579  0.776758  0.398283  -0.677358
    O   O31   0.272420  0.276759  0.601717  -0.677313
    O   O32   0.727579  0.276758  0.398283  -0.677327
    C   C9    0.686801  0.694645  0.494076  0.708927
    C   C10   0.313199  0.694645  0.505924  0.708937
    C   C11   0.186801  0.194645  0.494076  0.709016
    C   C12   0.813199  0.194645  0.505924  0.708593
    C   C13   0.815574  0.750804  0.635287  0.641374
    C   C14   0.184426  0.750804  0.364713  0.641432
    C   C15   0.315574  0.250804  0.635287  0.641332
    C   C16   0.684426  0.250804  0.364713  0.641256
    C   C17   0.614513  0.791557  0.252643  -0.250861
    C   C18   0.385487  0.791557  0.747357  -0.250789
    C   C19   0.114513  0.291557  0.252643  -0.250794
    C   C20   0.885487  0.291557  0.747357  -0.250749
    H   H1    0.615975  0.819475  0.280018  0.146858
    H   H2    0.384025  0.819475  0.719982  0.146857
    H   H3    0.115975  0.319475  0.280018  0.146858
    H   H4    0.884025  0.319475  0.719982  0.146840
    C   C21   0.578908  0.791788  0.181264  0.138256
    C   C22   0.421092  0.791788  0.818736  0.138215
    C   C23   0.078908  0.291788  0.181264  0.138225
    C   C24   0.921092  0.291788  0.818736  0.138219
    H   H5    0.552761  0.819678  0.154354  0.039013
    H   H6    0.447239  0.819678  0.845646  0.039006
    H   H7    0.052761  0.319678  0.154354  0.039011
    H   H8    0.947239  0.319678  0.845646  0.039005
    C   C25   0.575456  0.756201  0.145017  -0.537937
    C   C26   0.424543  0.756201  0.854983  -0.537911
    C   C27   0.075456  0.256201  0.145017  -0.537921
    C   C28   0.924543  0.256201  0.854983  -0.537903
    C   C29   0.609025  0.720815  0.180802  0.135395
    C   C30   0.390975  0.720815  0.819198  0.135351
    C   C31   0.109025  0.220815  0.180802  0.135359
    C   C32   0.890975  0.220815  0.819198  0.135343
    H   H9    0.607281  0.692796  0.153391  0.039574
    H   H10   0.392719  0.692795  0.846609  0.039590
    H   H11   0.107281  0.192796  0.153391  0.039580
    H   H12   0.892719  0.192795  0.846609  0.039589
    C   C33   0.645995  0.721178  0.252271  -0.234824
    C   C34   0.354005  0.721178  0.747729  -0.234755
    C   C35   0.145995  0.221178  0.252271  -0.234767
    C   C36   0.854005  0.221178  0.747729  -0.234725
    H   H13   0.671854  0.693201  0.279462  0.142959
    H   H14   0.328145  0.693201  0.720537  0.142935
    H   H15   0.171854  0.193201  0.279462  0.142946
    H   H16   0.828145  0.193201  0.720537  0.142929
    C   C37   0.648316  0.756333  0.288436  0.227916
    C   C38   0.351684  0.756333  0.711564  0.227829
    C   C39   0.148316  0.256333  0.288436  0.227842
    C   C40   0.851684  0.256333  0.711564  0.227736
    N   N1    0.518019  0.718468  0.034235  -0.365053
    N   N2    0.481981  0.718468  0.965765  -0.365060
    N   N3    0.018019  0.218468  0.034235  -0.365053
    N   N4    0.981981  0.218468  0.965765  -0.365054
    C   C41   0.463813  0.756067  0.930800  0.979897
    C   C42   0.536187  0.756067  0.069200  0.979911
    C   C43   0.963813  0.256067  0.930800  0.979886
    C   C44   0.036187  0.256067  0.069200  0.979913
    N   N5    0.482249  0.793641  0.965771  -0.366879
    N   N6    0.517751  0.793641  0.034229  -0.366911
    N   N7    0.982249  0.293641  0.965771  -0.366880
    N   N8    0.017751  0.293641  0.034229  -0.366907
    C   C45   0.903266  0.842666  0.542893  -0.097380
    C   C46   0.096734  0.842665  0.457108  -0.097393
    C   C47   0.403266  0.342666  0.542893  -0.097337
    C   C48   0.596734  0.342665  0.457108  -0.097299
    C   C49   0.846910  0.846120  0.505888  0.083601
    C   C50   0.153091  0.846120  0.494113  0.083593
    C   C51   0.346910  0.346120  0.505888  0.083563
    C   C52   0.653091  0.346120  0.494113  0.083554
    C   C53   0.821965  0.883742  0.468267  -0.182390
    C   C54   0.178035  0.883742  0.531733  -0.182382
    C   C55   0.321965  0.383742  0.468267  -0.182376
    C   C56   0.678035  0.383742  0.531733  -0.182355
    H   H17   0.777534  0.887884  0.437081  0.133369
    H   H18   0.222466  0.887884  0.562919  0.133368
    H   H19   0.277534  0.387884  0.437081  0.133364
    H   H20   0.722466  0.387884  0.562919  0.133355
    C   C57   0.853393  0.915658  0.467668  -0.164796
    C   C58   0.146607  0.915658  0.532332  -0.164733
    C   C59   0.353393  0.415658  0.467668  -0.164774
    C   C60   0.646607  0.415658  0.532332  -0.164730
    H   H21   0.832974  0.944100  0.436017  0.130025
    H   H22   0.167027  0.944100  0.563983  0.129976
    H   H23   0.332974  0.444100  0.436017  0.130011
    H   H24   0.667027  0.444100  0.563983  0.129953
    C   C61   0.910542  0.911641  0.508343  0.033859
    C   C62   0.089457  0.911641  0.491657  0.033824
    C   C63   0.410542  0.411641  0.508343  0.033825
    C   C64   0.589457  0.411641  0.491657  0.033822
    C   C65   0.933721  0.874504  0.546176  0.164655
    C   C66   0.066279  0.874503  0.453824  0.164650
    C   C67   0.433721  0.374504  0.546176  0.164658
    C   C68   0.566279  0.374503  0.453824  0.164607
    C   C69   0.986853  0.850262  0.590178  -0.328067
    C   C70   0.013147  0.850262  0.409822  -0.328064
    C   C71   0.486853  0.350262  0.590178  -0.328062
    C   C72   0.513147  0.350262  0.409822  -0.328037
    C   C73   0.951008  0.812882  0.586532  0.045825
    C   C74   0.048992  0.812882  0.413468  0.045851
    C   C75   0.451008  0.312882  0.586532  0.045751
    C   C76   0.548992  0.312882  0.413468  0.045778
    H   H25   0.004293  0.843205  0.563142  0.137451
    H   H26   0.995707  0.843205  0.436858  0.137449
    H   H27   0.504293  0.343205  0.563142  0.137461
    H   H28   0.495707  0.343205  0.436858  0.137458
    H   H29   0.016050  0.864523  0.642694  0.107436
    H   H30   0.983950  0.864523  0.357306  0.107437
    H   H31   0.516050  0.364523  0.642694  0.107440
    H   H32   0.483950  0.364523  0.357306  0.107436
    H   H33   0.960563  0.805693  0.636976  0.068414
    H   H34   0.039436  0.805693  0.363024  0.068410
    H   H35   0.460563  0.305693  0.636976  0.068432
    H   H36   0.539436  0.305693  0.363024  0.068418
    C   C77   0.832498  0.752446  0.747919  -0.197017
    C   C78   0.167501  0.752446  0.252081  -0.197056
    C   C79   0.332498  0.252446  0.747919  -0.197062
    C   C80   0.667501  0.252446  0.252081  -0.197313
    C   C81   0.869064  0.755353  0.819330  0.225035
    C   C82   0.130936  0.755353  0.180670  0.225076
    C   C83   0.369064  0.255353  0.819330  0.225328
    C   C84   0.630936  0.255353  0.180670  0.225319
    H   H37   0.852570  0.755723  0.847170  -0.023916
    H   H38   0.147430  0.755723  0.152831  -0.023919
    H   H39   0.352570  0.255723  0.847170  -0.023977
    H   H40   0.647430  0.255723  0.152831  -0.023963
    C   C85   0.925782  0.755771  0.854605  -0.584159
    C   C86   0.074218  0.755771  0.145395  -0.584222
    C   C87   0.425782  0.255771  0.854605  -0.584752
    C   C88   0.574218  0.255771  0.145395  -0.584547
    C   C89   0.945654  0.753380  0.817646  0.220858
    C   C90   0.054346  0.753381  0.182354  0.220930
    C   C91   0.445654  0.253380  0.817646  0.221142
    C   C92   0.554346  0.253381  0.182354  0.221135
    H   H41   0.989702  0.753423  0.843635  0.012943
    H   H42   0.010298  0.753423  0.156365  0.012932
    H   H43   0.489702  0.253423  0.843635  0.012887
    H   H44   0.510298  0.253423  0.156365  0.012898
    C   C93   0.909259  0.750859  0.746394  -0.366569
    C   C94   0.090741  0.750859  0.253606  -0.366665
    C   C95   0.409259  0.250859  0.746394  -0.366679
    C   C96   0.590741  0.250859  0.253606  -0.366881
    H   H45   0.925432  0.749811  0.718162  0.186583
    H   H46   0.074568  0.749811  0.281837  0.186603
    H   H47   0.425432  0.249811  0.718162  0.186585
    H   H48   0.574568  0.249811  0.281837  0.186646
    C   C97   0.852706  0.750910  0.711120  0.291799
    C   C98   0.147294  0.750910  0.288880  0.291849
    C   C99   0.352706  0.250910  0.711120  0.291905
    C   C100  0.647294  0.250910  0.288880  0.292195
    N   N9    0.019708  0.757145  0.964724  -0.366141
    N   N10   0.980291  0.757145  0.035276  -0.366159
    N   N11   0.519708  0.257145  0.964724  -0.366242
    N   N12   0.480291  0.257145  0.035276  -0.366201
    N   N13   0.054703  0.757163  0.033232  -0.318527
    N   N14   0.945297  0.757164  0.966768  -0.318522
    N   N15   0.554703  0.257163  0.033232  -0.318548
    N   N16   0.445297  0.257164  0.966768  -0.318596
    C   C101  0.035422  0.757045  0.069355  0.930920
    C   C102  0.964577  0.757045  0.930645  0.930891
    C   C103  0.535422  0.257045  0.069355  0.931079
    C   C104  0.464577  0.257045  0.930645  0.931316
    C   C105  0.669737  0.619473  0.509123  0.290872
    C   C106  0.330263  0.619473  0.490877  0.291083
    C   C107  0.169737  0.119473  0.509123  0.290966
    C   C108  0.830263  0.119473  0.490877  0.290738
    C   C109  0.651603  0.661221  0.490068  -0.184972
    C   C110  0.348397  0.661220  0.509932  -0.185160
    C   C111  0.151603  0.161221  0.490068  -0.185149
    C   C112  0.848397  0.161220  0.509932  -0.184669
    C   C113  0.598668  0.670314  0.468114  -0.027591
    C   C114  0.401332  0.670314  0.531885  -0.027414
    C   C115  0.098668  0.170314  0.468114  -0.027417
    C   C116  0.901332  0.170314  0.531885  -0.027563
    H   H49   0.581864  0.702606  0.452207  0.134653
    H   H50   0.418136  0.702605  0.547794  0.134615
    H   H51   0.081864  0.202606  0.452207  0.134611
    H   H52   0.918136  0.202605  0.547794  0.134643
    C   C117  0.566889  0.638003  0.467529  -0.346174
    C   C118  0.433110  0.638003  0.532471  -0.346288
    C   C119  0.066889  0.138003  0.467529  -0.346251
    C   C120  0.933110  0.138003  0.532471  -0.346234
    H   H53   0.526303  0.645668  0.451997  0.201042
    H   H54   0.473697  0.645667  0.548003  0.201045
    H   H55   0.026303  0.145668  0.451997  0.201047
    H   H56   0.973697  0.145667  0.548003  0.201044
    C   C121  0.588023  0.596626  0.489790  0.167083
    C   C122  0.411976  0.596626  0.510210  0.167160
    C   C123  0.088023  0.096626  0.489790  0.167117
    C   C124  0.911976  0.096626  0.510210  0.167016
    C   C125  0.639525  0.588675  0.508437  -0.246690
    C   C126  0.360475  0.588675  0.491563  -0.246859
    C   C127  0.139525  0.088675  0.508437  -0.246764
    C   C128  0.860475  0.088675  0.491563  -0.246702
    C   C129  0.683542  0.555205  0.537943  0.208416
    C   C130  0.316458  0.555205  0.462058  0.208704
    C   C131  0.183542  0.055205  0.537943  0.208547
    C   C132  0.816458  0.055205  0.462058  0.208421
    C   C133  0.719169  0.591713  0.539348  -0.287338
    C   C134  0.280831  0.591713  0.460652  -0.287530
    C   C135  0.219169  0.091713  0.539348  -0.287415
    C   C136  0.780831  0.091713  0.460652  -0.287043
    H   H57   0.699781  0.544194  0.590290  0.017509
    H   H58   0.300219  0.544194  0.409710  0.017479
    H   H59   0.199781  0.044194  0.590290  0.017489
    H   H60   0.800219  0.044194  0.409710  0.017519
    H   H61   0.754726  0.601801  0.592659  0.097934
    H   H62   0.245274  0.601801  0.407341  0.097967
    H   H63   0.254726  0.101801  0.592659  0.097943
    H   H64   0.745274  0.101801  0.407341  0.097861
    H   H65   0.727978  0.586377  0.502627  0.068033
    H   H66   0.272022  0.586376  0.497373  0.068090
    H   H67   0.227978  0.086377  0.502627  0.068067
    H   H68   0.772022  0.086376  0.497373  0.067950
    O   O33   0.422135  0.548539  0.443959  -0.685234
    O   O34   0.577865  0.548538  0.556041  -0.685221
    O   O35   0.922135  0.048539  0.443959  -0.685221
    O   O36   0.077865  0.048538  0.556041  -0.685216
    O   O37   0.489892  0.550186  0.563117  -0.722603
    O   O38   0.510107  0.550187  0.436883  -0.722572
    O   O39   0.989892  0.050186  0.563117  -0.722604
    O   O40   0.010107  0.050187  0.436883  -0.722559
    C   C137  0.442865  0.563468  0.505491  0.693781
    C   C138  0.557135  0.563468  0.494509  0.693705
    C   C139  0.942865  0.063468  0.505491  0.693845
    C   C140  0.057135  0.063468  0.494509  0.693688
    O   O41   0.922185  0.959217  0.443982  -0.707079
    O   O42   0.077816  0.959217  0.556019  -0.707052
    O   O43   0.422185  0.459217  0.443982  -0.707055
    O   O44   0.577816  0.459217  0.556019  -0.707018
    O   O45   0.989976  0.957392  0.563146  -0.689641
    O   O46   0.010023  0.957391  0.436853  -0.689584
    O   O47   0.489976  0.457392  0.563146  -0.689642
    O   O48   0.510023  0.457391  0.436853  -0.689587
    C   C141  0.942891  0.944142  0.505287  0.671838
    C   C142  0.057109  0.944142  0.494713  0.671805
    C   C143  0.442891  0.444142  0.505287  0.671847
    C   C144  0.557109  0.444142  0.494713  0.671793
    Zn  Zn9   0.456981  0.503820  0.421733  1.327814
    Zn  Zn10  0.543020  0.503820  0.578267  1.327837
    Zn  Zn11  0.956981  0.003820  0.421733  1.327806
    Zn  Zn12  0.043020  0.003820  0.578267  1.327841
    C   C145  0.773326  0.746891  0.713427  0.166891
    C   C146  0.744769  0.778170  0.719645  -0.088397
    C   C147  0.689344  0.772360  0.688558  -0.151695
    C   C148  0.662728  0.734819  0.652643  0.075962
    Cl  Cl1   0.592471  0.727162  0.613556  -0.121589
    C   C149  0.691578  0.703059  0.648001  -0.048824
    C   C150  0.746637  0.709186  0.677798  -0.196797
    H   H69   0.765584  0.807532  0.748071  0.102660
    H   H70   0.666850  0.797145  0.692710  0.119120
    H   H71   0.671077  0.673236  0.621265  0.097929
    H   H72   0.769061  0.684025  0.674182  0.108752
    C   C151  0.226674  0.746891  0.286574  0.167057
    C   C152  0.255231  0.778170  0.280355  -0.088651
    C   C153  0.310656  0.772360  0.311442  -0.151458
    C   C154  0.337272  0.734819  0.347357  0.075841
    Cl  Cl2   0.407529  0.727162  0.386445  -0.121588
    C   C155  0.308422  0.703059  0.351999  -0.048735
    C   C156  0.253362  0.709185  0.322202  -0.196925
    H   H73   0.234415  0.807532  0.251929  0.102709
    H   H74   0.333150  0.797145  0.307290  0.119077
    H   H75   0.328923  0.673236  0.378735  0.097918
    H   H76   0.230938  0.684025  0.325818  0.108772
    C   C157  0.273326  0.246891  0.713427  0.166757
    C   C158  0.244769  0.278170  0.719645  -0.088293
    C   C159  0.189344  0.272360  0.688558  -0.151745
    C   C160  0.162728  0.234819  0.652643  0.075989
    Cl  Cl3   0.092471  0.227162  0.613556  -0.121593
    C   C161  0.191578  0.203059  0.648001  -0.048858
    C   C162  0.246637  0.209186  0.677798  -0.196718
    H   H77   0.265584  0.307532  0.748071  0.102632
    H   H78   0.166850  0.297145  0.692710  0.119128
    H   H79   0.171077  0.173236  0.621265  0.097937
    H   H80   0.269061  0.184025  0.674182  0.108730
    C   C163  0.726674  0.246891  0.286574  0.167022
    C   C164  0.755231  0.278170  0.280355  -0.088563
    C   C165  0.810656  0.272360  0.311442  -0.151549
    C   C166  0.837272  0.234819  0.347357  0.075908
    Cl  Cl4   0.907529  0.227162  0.386445  -0.121593
    C   C167  0.808422  0.203059  0.351999  -0.048812
    C   C168  0.753362  0.209185  0.322202  -0.196823
    H   H81   0.734415  0.307532  0.251929  0.102698
    H   H82   0.833150  0.297145  0.307290  0.119093
    H   H83   0.828923  0.173236  0.378735  0.097923
    H   H84   0.730938  0.184025  0.325818  0.108765
    C   C169  0.672368  0.519726  0.489372  0.069381
    C   C170  0.619812  0.511093  0.428170  -0.138008
    C   C171  0.611936  0.477351  0.386358  -0.152955
    C   C172  0.656218  0.452315  0.404697  0.100871
    Cl  Cl5   0.645801  0.408956  0.352169  -0.133893
    C   C173  0.708588  0.461039  0.465001  -0.079618
    C   C174  0.716518  0.494410  0.507325  -0.131901
    H   H85   0.584049  0.529829  0.411858  0.129920
    H   H86   0.570773  0.470396  0.339155  0.117312
    H   H87   0.743329  0.441231  0.479735  0.097138
    H   H88   0.757628  0.500629  0.555111  0.084862
    C   C175  0.327632  0.519726  0.510629  0.068838
    C   C176  0.380188  0.511093  0.571830  -0.137558
    C   C177  0.388064  0.477351  0.613643  -0.153213
    C   C178  0.343782  0.452315  0.595303  0.101120
    Cl  Cl6   0.354199  0.408956  0.647831  -0.133935
    C   C179  0.291412  0.461039  0.534999  -0.079740
    C   C180  0.283482  0.494410  0.492675  -0.131810
    H   H89   0.415951  0.529829  0.588142  0.129838
    H   H90   0.429227  0.470397  0.660845  0.117343
    H   H91   0.256671  0.441231  0.520265  0.097148
    H   H92   0.242372  0.500629  0.444889  0.084900
    C   C181  0.172368  0.019726  0.489372  0.069247
    C   C182  0.119812  0.011093  0.428170  -0.137903
    C   C183  0.111936  0.977351  0.386358  -0.153049
    C   C184  0.156218  0.952315  0.404697  0.100979
    Cl  Cl7   0.145801  0.908956  0.352169  -0.133912
    C   C185  0.208588  0.961039  0.465001  -0.079680
    C   C186  0.216518  0.994410  0.507325  -0.131910
    H   H93   0.084049  0.029829  0.411858  0.129917
    H   H94   0.070773  0.970396  0.339155  0.117326
    H   H95   0.243329  0.941231  0.479735  0.097153
    H   H96   0.257628  0.000629  0.555111  0.084878
    C   C187  0.827632  0.019726  0.510629  0.068993
    C   C188  0.880188  0.011093  0.571830  -0.137624
    C   C189  0.888064  0.977351  0.613643  -0.153219
    C   C190  0.843782  0.952315  0.595303  0.101110
    Cl  Cl8   0.854199  0.908956  0.647831  -0.133936
    C   C191  0.791412  0.961039  0.534999  -0.079720
    C   C192  0.783482  0.994410  0.492675  -0.131835
    H   H97   0.915951  0.029829  0.588142  0.129866
    H   H98   0.929227  0.970397  0.660845  0.117352
    H   H99   0.756671  0.941231  0.520265  0.097148
    H   H100  0.742372  0.000629  0.444889  0.084883
    C   C193  0.946385  0.774288  0.546716  0.123873
    C   C194  0.956119  0.733744  0.575612  -0.170398
    C   C195  0.949267  0.697453  0.538610  -0.050614
    C   C196  0.932772  0.701471  0.472568  0.040672
    Cl  Cl9   0.923297  0.655325  0.425208  -0.113394
    C   C197  0.923589  0.741834  0.443720  -0.031855
    C   C198  0.930073  0.778180  0.480380  -0.157633
    H   H101  0.968447  0.730198  0.627084  0.098755
    H   H102  0.956556  0.665784  0.561294  0.086595
    H   H103  0.910903  0.745015  0.392023  0.070879
    H   H104  0.921892  0.809382  0.456088  0.077143
    C   C199  0.053615  0.774288  0.453284  0.123842
    C   C200  0.043881  0.733744  0.424388  -0.170352
    C   C201  0.050733  0.697453  0.461390  -0.050668
    C   C202  0.067227  0.701472  0.527432  0.040736
    Cl  Cl10  0.076703  0.655325  0.574792  -0.113404
    C   C203  0.076411  0.741834  0.556280  -0.031922
    C   C204  0.069928  0.778180  0.519620  -0.157616
    H   H105  0.031553  0.730198  0.372916  0.098749
    H   H106  0.043444  0.665784  0.438706  0.086609
    H   H107  0.089097  0.745015  0.607977  0.070898
    H   H108  0.078108  0.809382  0.543913  0.077154
    C   C205  0.446385  0.274288  0.546716  0.123913
    C   C206  0.456119  0.233744  0.575612  -0.170408
    C   C207  0.449267  0.197453  0.538610  -0.050608
    C   C208  0.432772  0.201471  0.472568  0.040656
    Cl  Cl11  0.423297  0.155325  0.425208  -0.113392
    C   C209  0.423589  0.241834  0.443720  -0.031828
    C   C210  0.430073  0.278180  0.480380  -0.157650
    H   H109  0.468447  0.230198  0.627084  0.098755
    H   H110  0.456556  0.165784  0.561294  0.086593
    H   H111  0.410903  0.245015  0.392023  0.070868
    H   H112  0.421892  0.309382  0.456088  0.077142
    C   C211  0.553615  0.274288  0.453284  0.123860
    C   C212  0.543881  0.233744  0.424388  -0.170307
    C   C213  0.550733  0.197453  0.461390  -0.050683
    C   C214  0.567227  0.201472  0.527432  0.040738
    Cl  Cl12  0.576703  0.155325  0.574792  -0.113400
    C   C215  0.576411  0.241834  0.556280  -0.031917
    C   C216  0.569928  0.278180  0.519620  -0.157669
    H   H113  0.531553  0.230198  0.372916  0.098732
    H   H114  0.543444  0.165784  0.438706  0.086612
    H   H115  0.589097  0.245015  0.607977  0.070903
    H   H116  0.578108  0.309382  0.543913  0.077166
