data_DB0-m3_o11_o92_f0_fsc_repeat
_audit_creation_date              2024-02-23
_audit_creation_method            'Materials Studio'
_symmetry_space_group_name_H-M    'P1'
_symmetry_Int_Tables_number       1
_symmetry_cell_setting            triclinic
loop_
_symmetry_equiv_pos_as_xyz
  x,y,z
_cell_length_a                    9.3572
_cell_length_b                    13.1136
_cell_length_c                    16.2517
_cell_angle_alpha                 90.0449
_cell_angle_beta                  94.7420
_cell_angle_gamma                 90.6146
loop_
_atom_site_label
_atom_site_type_symbol
_atom_site_fract_x
_atom_site_fract_y
_atom_site_fract_z
_atom_site_U_iso_or_equiv
_atom_site_adp_type
_atom_site_occupancy
O1     O     0.92997   0.13804   0.08674   0.00000  Uiso   1.00
O2     O     0.15482   0.07328   0.09949   0.00000  Uiso   1.00
C1     C     0.05990   0.13741   0.12439   0.00000  Uiso   1.00
O3     O     0.07544   0.87085   0.09037   0.00000  Uiso   1.00
O4     O     0.85134   0.93692   0.08002   0.00000  Uiso   1.00
C2     C     0.94421   0.87213   0.11336   0.00000  Uiso   1.00
O5     O     0.07022   0.87430   0.91321   0.00000  Uiso   1.00
O6     O     0.84538   0.93906   0.90046   0.00000  Uiso   1.00
C3     C     0.94029   0.87493   0.87556   0.00000  Uiso   1.00
O7     O     0.92476   0.14150   0.90957   0.00000  Uiso   1.00
O8     O     0.14886   0.07542   0.91993   0.00000  Uiso   1.00
C4     C     0.05599   0.14021   0.88658   0.00000  Uiso   1.00
Zn1    Zn    0.14833   0.96777   0.00688   0.00000  Uiso   1.00
Zn2    Zn    0.85187   0.04457   0.99307   0.00000  Uiso   1.00
C5     C     0.57705   0.99690   0.99840   0.00000  Uiso   1.00
N1     N     0.66587   0.07121   0.99007   0.00000  Uiso   1.00
H1     H     0.61464   0.91922   0.00379   0.00000  Uiso   1.00
C6     C     0.42316   0.01553   0.00155   0.00000  Uiso   1.00
N2     N     0.33436   0.94121   0.00988   0.00000  Uiso   1.00
H2     H     0.38556   0.09320   0.99616   0.00000  Uiso   1.00
C7     C     0.92299   0.68565   0.28419   0.00000  Uiso   1.00
C8     C     0.85472   0.74283   0.33827   0.00000  Uiso   1.00
C9     C     0.86035   0.69063   0.41193   0.00000  Uiso   1.00
N3     N     0.92597   0.60019   0.40341   0.00000  Uiso   1.00
C10    C     0.96223   0.59645   0.32434   0.00000  Uiso   1.00
C11    C     0.81859   0.72950   0.48234   0.00000  Uiso   1.00
C12    C     0.85713   0.68856   0.56550   0.00000  Uiso   1.00
C13    C     0.86512   0.74568   0.63733   0.00000  Uiso   1.00
C14    C     0.91695   0.68452   0.70025   0.00000  Uiso   1.00
C15    C     0.93659   0.58920   0.66555   0.00000  Uiso   1.00
N4     N     0.89854   0.59253   0.58343   0.00000  Uiso   1.00
C16    C     0.97888   0.49582   0.71074   0.00000  Uiso   1.00
C17    C     0.03797   0.41589   0.67561   0.00000  Uiso   1.00
C18    C     0.07720   0.32669   0.71575   0.00000  Uiso   1.00
C19    C     0.14548   0.26951   0.66168   0.00000  Uiso   1.00
C20    C     0.13985   0.32171   0.58801   0.00000  Uiso   1.00
N5     N     0.07423   0.41215   0.59654   0.00000  Uiso   1.00
C21    C     0.18161   0.28284   0.51761   0.00000  Uiso   1.00
C22    C     0.14307   0.32378   0.43444   0.00000  Uiso   1.00
C23    C     0.13508   0.26666   0.36262   0.00000  Uiso   1.00
C24    C     0.08325   0.32782   0.29970   0.00000  Uiso   1.00
C25    C     0.06361   0.42314   0.33440   0.00000  Uiso   1.00
N6     N     0.10166   0.41981   0.41651   0.00000  Uiso   1.00
C26    C     0.02132   0.51652   0.28920   0.00000  Uiso   1.00
H3     H     0.76987   0.80373   0.47998   0.00000  Uiso   1.00
H4     H     0.96500   0.49379   0.77619   0.00000  Uiso   1.00
H5     H     0.23033   0.20861   0.51997   0.00000  Uiso   1.00
H6     H     0.03520   0.51855   0.22376   0.00000  Uiso   1.00
H7     H     0.89163   0.53136   0.54253   0.00000  Uiso   1.00
H8     H     0.10857   0.48098   0.45742   0.00000  Uiso   1.00
C27    C     0.16951   0.16678   0.34955   0.00000  Uiso   1.00
C28    C     0.14938   0.12893   0.26999   0.00000  Uiso   1.00
C29    C     0.09023   0.18842   0.20518   0.00000  Uiso   1.00
C30    C     0.05610   0.29011   0.21982   0.00000  Uiso   1.00
C31    C     0.95402   0.72330   0.20842   0.00000  Uiso   1.00
C32    C     0.90683   0.82046   0.18797   0.00000  Uiso   1.00
C33    C     0.82705   0.87515   0.24116   0.00000  Uiso   1.00
C34    C     0.80268   0.83761   0.31783   0.00000  Uiso   1.00
C35    C     0.83069   0.84556   0.65040   0.00000  Uiso   1.00
C36    C     0.85081   0.88341   0.72996   0.00000  Uiso   1.00
C37    C     0.90997   0.82392   0.79477   0.00000  Uiso   1.00
C38    C     0.94410   0.72223   0.78012   0.00000  Uiso   1.00
C39    C     0.04618   0.28904   0.79153   0.00000  Uiso   1.00
C40    C     0.09337   0.19188   0.81197   0.00000  Uiso   1.00
C41    C     0.17315   0.13719   0.75878   0.00000  Uiso   1.00
C42    C     0.19752   0.17473   0.68212   0.00000  Uiso   1.00
H9     H     0.21160   0.11822   0.39922   0.00000  Uiso   1.00
H10    H     0.00998   0.33767   0.17046   0.00000  Uiso   1.00
H11    H     0.01669   0.68096   0.16743   0.00000  Uiso   1.00
H12    H     0.79100   0.95120   0.22532   0.00000  Uiso   1.00
H13    H     0.74716   0.88367   0.35981   0.00000  Uiso   1.00
H14    H     0.78860   0.89412   0.60073   0.00000  Uiso   1.00
H15    H     0.99022   0.67467   0.82949   0.00000  Uiso   1.00
H16    H     0.98351   0.33138   0.83252   0.00000  Uiso   1.00
H17    H     0.20921   0.06115   0.77463   0.00000  Uiso   1.00
H18    H     0.25304   0.12867   0.64014   0.00000  Uiso   1.00
H19    H     0.17447   0.05005   0.25908   0.00000  Uiso   1.00
H20    H     0.82572   0.96229   0.74087   0.00000  Uiso   1.00
