# Generated by REPEAT Assigner based on pymatgen
data_DB0-m3_o4_o19_f0_pcu.sym.2
_audit_creation_date              2022-05-24
_audit_creation_method            REPEAT_Assigner
_cell_length_a                    11.919455
_cell_length_b                    11.015206
_cell_length_c                    9.831415
_cell_angle_alpha                 90.004549
_cell_angle_beta                  90.003581
_cell_angle_gamma                 89.992886
_cell_volume                      1290.818124
_symmetry_space_group_name_H-M    P1
_symmetry_Int_Tables_number       1
loop_
    _symmetry_equiv_pos_site_id
    _symmetry_equiv_pos_as_xyz
    1  x,y,z
loop_
    _atom_site_type_symbol
    _atom_site_label
    _atom_site_fract_x
    _atom_site_fract_y
    _atom_site_fract_z
    _atom_type_partial_charge
    O   O1   0.509968  0.307865  0.624227  -0.668569
    O   O2   0.510820  0.305549  0.389201  -0.623908
    C   C1   0.510686  0.249985  0.507142  0.770445
    O   O3   0.343408  0.489289  0.622287  -0.583985
    O   O4   0.343463  0.486261  0.387444  -0.616539
    C   C2   0.291322  0.487911  0.504846  0.753824
    Zn  Zn1  0.510553  0.489281  0.659666  1.018217
    Zn  Zn2  0.510639  0.485960  0.350270  0.967664
    O   O5   0.510983  0.670087  0.620206  -0.669158
    O   O6   0.510686  0.666759  0.386527  -0.622440
    O   O7   0.677720  0.488194  0.622419  -0.660592
    O   O8   0.677777  0.486191  0.387730  -0.662422
    C   C3   0.511373  0.725961  0.501825  0.787525
    C   C4   0.729889  0.487182  0.505093  0.885751
    C   C5   0.170931  0.487778  0.504840  -0.213321
    C   C6   0.069836  0.487596  0.504914  0.025166
    C   C7   0.951375  0.487368  0.505032  0.083583
    C   C8   0.850280  0.487223  0.505104  -0.291609
    C   C9   0.499142  0.047117  0.619377  0.189388
    C   C10  0.512779  0.116960  0.505400  -0.203981
    C   C11  0.528539  0.055129  0.384128  -0.228887
    H   H1   0.541195  0.105891  0.291462  0.136001
    C   C12  0.529678  0.928462  0.378801  0.267120
    C   C13  0.512647  0.860151  0.498150  -0.300194
    C   C14  0.497641  0.926246  0.615803  -0.023633
    C   C15  0.476182  0.913616  0.763998  0.336551
    C   C16  0.478636  0.055203  0.767827  -0.351951
    H   H2   0.545780  0.870003  0.820730  -0.036608
    H   H3   0.396085  0.096340  0.791771  0.114181
    H   H4   0.551998  0.092033  0.823602  0.090929
    C   C17  0.425934  0.440930  0.070867  -0.054867
    N   N1   0.510142  0.484204  0.146768  -0.000159
    C   C18  0.597819  0.531453  0.077075  -0.085957
    H   H5   0.668587  0.568709  0.131588  0.166170
    C   C19  0.597920  0.533950  0.934647  -0.037061
    H   H6   0.669084  0.572131  0.881702  0.150135
    N   N2   0.509839  0.490101  0.863156  -0.071419
    C   C20  0.425676  0.444523  0.937174  0.250958
    C   C21  0.311951  0.391863  0.922030  -0.359152
    C   C22  0.312020  0.387666  0.081803  0.342909
    H   H7   0.250740  0.458087  0.880678  0.120642
    H   H8   0.313392  0.300936  0.873752  0.136343
    H   H9   0.249351  0.448845  0.129241  0.002492
    C   C23  0.314105  0.258764  0.135646  -0.344315
    H   H10  0.386968  0.209278  0.092620  0.097194
    H   H11  0.320591  0.260261  0.248035  0.110595
    H   H12  0.235418  0.211824  0.106342  0.074133
    C   C24  0.551400  0.871938  0.242787  -0.315878
    H   H13  0.626369  0.812447  0.248088  0.096218
    H   H14  0.476598  0.820485  0.208477  0.094997
    H   H15  0.568501  0.942629  0.165369  0.067770
    C   C25  0.359886  0.864345  0.793692  -0.308359
    H   H16  0.298146  0.905375  0.722882  0.082363
    H   H17  0.359072  0.764404  0.781158  0.068055
    H   H18  0.336439  0.886799  0.899928  0.047645
