# Generated by REPEAT Assigner based on pymatgen
data_DB0-m2_o7_o24_f0_pcu.sym.16
_audit_creation_date              2022-05-24
_audit_creation_method            REPEAT_Assigner
_cell_length_a                    17.685880
_cell_length_b                    16.251417
_cell_length_c                    10.716261
_cell_angle_alpha                 90.000000
_cell_angle_beta                  90.010855
_cell_angle_gamma                 90.000000
_cell_volume                      3080.074353
_symmetry_space_group_name_H-M    P1
_symmetry_Int_Tables_number       1
loop_
    _symmetry_equiv_pos_site_id
    _symmetry_equiv_pos_as_xyz
    1  x,y,z
loop_
    _atom_site_type_symbol
    _atom_site_label
    _atom_site_fract_x
    _atom_site_fract_y
    _atom_site_fract_z
    _atom_type_partial_charge
    O   O1   0.389882  0.570535  0.504313  -0.536571
    O   O2   0.610237  0.429487  0.495711  -0.537081
    O   O3   0.609638  0.570812  0.505497  -0.551337
    O   O4   0.390482  0.429182  0.494802  -0.552809
    C   C1   0.354561  0.499706  0.499300  0.555022
    C   C2   0.645353  0.500292  0.500851  0.555044
    O   O5   0.497552  0.570888  0.319099  -0.563769
    O   O6   0.502767  0.429064  0.680974  -0.560956
    O   O7   0.496614  0.570527  0.681802  -0.573571
    O   O8   0.503485  0.429470  0.318279  -0.575192
    C   C3   0.500721  0.500333  0.260432  0.610473
    C   C4   0.499748  0.499635  0.739556  0.606065
    Cu  Cu1  0.499790  0.582340  0.500650  0.933540
    Cu  Cu2  0.500192  0.417657  0.499223  0.935222
    C   C5   0.497814  0.575640  0.039752  0.314462
    C   C6   0.502842  0.424221  0.960564  0.303131
    C   C7   0.558929  0.539633  0.958511  0.341374
    C   C8   0.441709  0.460273  0.041797  0.351314
    C   C9   0.437018  0.536225  0.959146  -0.251198
    C   C10  0.563645  0.463692  0.041211  -0.240989
    H   H1   0.384406  0.566150  0.925782  0.123517
    H   H2   0.616346  0.434138  0.074996  0.121519
    C   C11  0.499279  0.499565  0.878510  -0.000946
    C   C12  0.501344  0.500337  0.121724  -0.012007
    C   C13  0.845523  0.573282  0.508538  -0.200266
    C   C14  0.153735  0.426767  0.491971  -0.199741
    C   C15  0.153860  0.573138  0.507296  -0.206039
    C   C16  0.845384  0.426846  0.493445  -0.207136
    H   H3   0.876356  0.630552  0.514941  0.137504
    H   H4   0.123269  0.369278  0.486037  0.137696
    H   H5   0.123365  0.630661  0.513535  0.139874
    H   H6   0.876048  0.369410  0.487882  0.139711
    C   C17  0.767551  0.573549  0.508441  -0.114505
    C   C18  0.231674  0.426413  0.491765  -0.114699
    C   C19  0.231855  0.573197  0.506951  -0.101818
    C   C20  0.767411  0.426830  0.493532  -0.100668
    H   H7   0.737972  0.631558  0.514620  0.126963
    H   H8   0.260571  0.368006  0.485391  0.127444
    H   H9   0.261080  0.631473  0.512827  0.111011
    H   H10  0.737769  0.368790  0.487770  0.110235
    C   C21  0.728132  0.500295  0.500974  0.026751
    C   C22  0.271383  0.499690  0.499280  0.025240
    C   C23  0.884383  0.500028  0.500873  0.297270
    C   C24  0.114780  0.499978  0.499823  0.296491
    C   C25  0.965497  0.500008  0.500720  -0.168931
    C   C26  0.033631  0.499973  0.500370  -0.168707
    C   C27  0.547455  0.832085  0.577442  0.209925
    C   C28  0.452085  0.168498  0.421488  0.209161
    C   C29  0.452626  0.831547  0.421143  0.187557
    C   C30  0.546681  0.167959  0.578202  0.181957
    C   C31  0.546959  0.747174  0.576886  0.192249
    C   C32  0.453296  0.253355  0.422385  0.190104
    C   C33  0.453273  0.746748  0.422492  0.276167
    C   C34  0.546703  0.252800  0.577225  0.279895
    N   N1   0.499228  0.705460  0.501292  -0.260434
    N   N2   0.501082  0.294554  0.498785  -0.261003
    C   C35  0.499983  0.874634  0.499068  -0.060468
    C   C36  0.499045  0.125410  0.499944  -0.054774
    C   C37  0.499132  0.962939  0.499514  0.003754
    C   C38  0.498778  0.037092  0.499897  -0.001701
    F   F1   0.496951  0.656168  0.081302  -0.264520
    F   F2   0.503538  0.343820  0.918489  -0.262366
    F   F3   0.620086  0.583127  0.912855  -0.269905
    F   F4   0.380388  0.416912  0.087219  -0.271230
    F   F5   0.594117  0.873328  0.655780  -0.148725
    F   F6   0.404562  0.127848  0.343868  -0.148736
    F   F7   0.404968  0.872390  0.343811  -0.146941
    F   F8   0.593354  0.126532  0.656481  -0.145561
    F   F9   0.593358  0.706204  0.656049  -0.063883
    F   F10  0.406832  0.294901  0.344007  -0.062334
    F   F11  0.405534  0.705332  0.346230  -0.097587
    F   F12  0.594144  0.293716  0.654586  -0.098541
