# Generated by REPEAT Assigner based on pymatgen
data_DB0-m3_o153_o23_f0_fsc.sym.83
_audit_creation_date              2022-05-24
_audit_creation_method            REPEAT_Assigner
_cell_length_a                    8.524544
_cell_length_b                    13.003929
_cell_length_c                    14.191607
_cell_angle_alpha                 90.629636
_cell_angle_beta                  93.356890
_cell_angle_gamma                 86.454151
_cell_volume                      1567.427566
_symmetry_space_group_name_H-M    P1
_symmetry_Int_Tables_number       1
loop_
    _symmetry_equiv_pos_site_id
    _symmetry_equiv_pos_as_xyz
    1  x,y,z
loop_
    _atom_site_type_symbol
    _atom_site_label
    _atom_site_fract_x
    _atom_site_fract_y
    _atom_site_fract_z
    _atom_type_partial_charge
    C   C1   0.013683  0.871333  0.002645  0.024695
    C   C2   0.881734  0.814908  0.012533  0.132112
    C   C3   0.733490  0.865727  0.015419  0.059208
    C   C4   0.716499  0.970785  0.006881  -0.378745
    C   C5   0.845060  0.027750  0.998705  0.341970
    C   C6   0.994513  0.979290  0.997587  -0.096071
    C   C7   0.821979  0.133960  0.993634  -0.411961
    C   C8   0.948236  0.193969  0.987004  0.136459
    C   C9   0.097994  0.146479  0.988069  0.203261
    C   C10  0.121198  0.040963  0.994586  -0.193281
    C   C11  0.928576  0.300493  0.978677  -0.140901
    C   C12  0.058037  0.355659  0.966685  -0.156195
    C   C13  0.206874  0.308962  0.973129  0.022128
    C   C14  0.227522  0.204461  0.984786  -0.345318
    C   C15  0.160985  0.817994  0.996469  -0.023067
    C   C16  0.178897  0.713321  0.012822  -0.218440
    C   C17  0.049176  0.660701  0.028674  0.026712
    C   C18  0.901107  0.708487  0.021015  -0.289881
    H   H1   0.600528  0.008862  0.009960  0.137437
    H   H2   0.042736  0.437692  0.957538  0.118172
    H   H3   0.345408  0.168471  0.990590  0.150589
    H   H4   0.241226  0.010487  0.998925  0.115376
    H   H5   0.704103  0.169626  0.993870  0.172018
    H   H6   0.264335  0.854725  0.978780  0.009711
    H   H7   0.062798  0.578928  0.039889  0.075829
    O   O1   0.395729  0.396941  0.065273  -0.689092
    O   O2   0.387254  0.412814  0.903026  -0.740500
    C   C19  0.340396  0.373128  0.980313  0.823962
    O   O3   0.375100  0.625940  0.922301  -0.718713
    O   O4   0.392658  0.609508  0.084271  -0.683841
    C   C20  0.329442  0.652636  0.006556  0.928274
    O   O5   0.714497  0.617576  0.927374  -0.774323
    O   O6   0.722195  0.602062  0.089367  -0.755899
    C   C21  0.770225  0.641430  0.012431  0.995462
    O   O7   0.734545  0.388681  0.069981  -0.751143
    O   O8   0.716296  0.404738  0.907995  -0.701986
    C   C22  0.778557  0.361057  0.985491  0.890240
    Zn  Zn1  0.546860  0.519301  0.891525  1.102418
    Zn  Zn2  0.562935  0.495392  0.100907  1.055105
    C   C23  0.605776  0.408111  0.559897  -0.135935
    C   C24  0.665950  0.590587  0.549179  0.008281
    C   C25  0.654883  0.588029  0.442195  -0.144585
    H   H8   0.764729  0.395211  0.446776  0.055698
    H   H9   0.716382  0.387069  0.602184  0.110029
    H   H10  0.637195  0.670075  0.574649  0.048084
    H   H11  0.787126  0.565302  0.575470  -0.006896
    H   H12  0.775052  0.578514  0.416080  0.129798
    N   N1   0.569905  0.481927  0.224014  -0.043472
    C   C26  0.550684  0.518146  0.584616  0.528635
    C   C27  0.636117  0.400792  0.455746  -0.057556
    C   C28  0.562640  0.496890  0.407977  0.282313
    C   C29  0.392733  0.510990  0.434775  0.029505
    C   C30  0.390009  0.545060  0.536870  -0.163532
    C   C31  0.567701  0.486702  0.305393  -0.057372
    C   C32  0.543743  0.528255  0.687110  -0.146527
    N   N2   0.540138  0.532885  0.768432  -0.032267
    H   H13  0.297504  0.506087  0.572062  0.102997
    H   H14  0.364171  0.629592  0.540510  -0.001527
    H   H15  0.337983  0.436021  0.427400  0.050099
    H   H16  0.583313  0.331539  0.424357  0.043370
    S   S1   0.560488  0.801417  0.038547  -0.032687
    C   C33  0.588506  0.823922  0.164626  -0.003154
    H   H17  0.574434  0.751458  0.202883  0.053032
    H   H18  0.501224  0.884777  0.186984  0.007691
    H   H19  0.709088  0.849091  0.181058  0.038654
    S   S2   0.559327  0.707809  0.397337  -0.070728
    C   C34  0.743324  0.771314  0.398527  -0.211214
    H   H20  0.717050  0.855399  0.390037  0.115766
    H   H21  0.813621  0.741960  0.339479  0.087306
    H   H22  0.810708  0.757845  0.466965  0.048906
    S   S3   0.456812  0.320582  0.586936  -0.186519
    C   C35  0.601526  0.214649  0.612340  -0.012177
    H   H23  0.540417  0.141966  0.614871  0.083818
    H   H24  0.664631  0.227625  0.681623  0.047319
    H   H25  0.685961  0.207637  0.555718  0.024406
    S   S4   0.282704  0.605902  0.359722  -0.156311
    C   C36  0.171863  0.509985  0.295421  -0.062492
    H   H26  0.099139  0.548357  0.237062  0.108399
    H   H27  0.092636  0.473987  0.343002  0.008139
    H   H28  0.253562  0.450797  0.264627  0.060925
