# Generated by REPEAT Assigner based on pymatgen
data_DB0-m2_o3_o6_f0_pcu.sym.8_sqe
_audit_creation_date              2022-05-24
_audit_creation_method            REPEAT_Assigner
_cell_length_a                    19.346338
_cell_length_b                    17.848201
_cell_length_c                    16.038703
_cell_angle_alpha                 90.000000
_cell_angle_beta                  90.016908
_cell_angle_gamma                 90.000000
_cell_volume                      5538.121391
_symmetry_space_group_name_H-M    P1
_symmetry_Int_Tables_number       1
loop_
    _symmetry_equiv_pos_site_id
    _symmetry_equiv_pos_as_xyz
    1  x,y,z
loop_
    _atom_site_type_symbol
    _atom_site_label
    _atom_site_fract_x
    _atom_site_fract_y
    _atom_site_fract_z
    _atom_type_partial_charge
    O   O1   0.399339  0.563687  0.501502  -0.579792
    O   O2   0.600758  0.436441  0.496946  -0.588464
    O   O3   0.600218  0.565202  0.502368  -0.552560
    O   O4   0.399869  0.434927  0.497222  -0.552948
    C   C1   0.367154  0.499171  0.499443  0.571537
    C   C2   0.632933  0.500966  0.499660  0.581727
    O   O5   0.502535  0.563424  0.377863  -0.637735
    O   O6   0.498046  0.436796  0.621128  -0.624847
    O   O7   0.501918  0.565673  0.620175  -0.622415
    O   O8   0.497726  0.434589  0.378823  -0.612652
    C   C3   0.500224  0.498765  0.339503  0.954532
    C   C4   0.499969  0.501465  0.659478  0.950915
    Cu  Cu1  0.499709  0.575019  0.498893  0.879596
    Cu  Cu2  0.500394  0.425170  0.500090  0.828183
    C   C5   0.499667  0.567496  0.957242  0.158851
    C   C6   0.501765  0.432518  0.041678  0.178361
    C   C7   0.501545  0.566576  0.043398  0.169282
    C   C8   0.499910  0.433442  0.955514  0.165238
    C   C9   0.500107  0.500920  0.913464  -0.098613
    C   C10  0.501233  0.499105  0.085467  -0.108045
    C   C11  0.500208  0.501706  0.823983  0.169316
    C   C12  0.500767  0.498375  0.174962  0.170070
    C   C13  0.500477  0.498302  0.250074  -0.431909
    C   C14  0.500102  0.501859  0.748884  -0.430869
    C   C15  0.744766  0.434310  0.497437  -0.120436
    C   C16  0.255363  0.565905  0.502104  -0.116045
    C   C17  0.255211  0.432302  0.497640  -0.143618
    C   C18  0.744819  0.567907  0.502181  -0.124829
    H   H1   0.717927  0.381266  0.495049  0.121685
    H   H2   0.282230  0.618934  0.504257  0.114604
    H   H3   0.282022  0.379229  0.495465  0.124360
    H   H4   0.717968  0.620957  0.504328  0.114011
    C   C19  0.815991  0.434262  0.497755  -0.141947
    C   C20  0.184129  0.566001  0.502174  -0.143566
    C   C21  0.183922  0.432457  0.497922  -0.128129
    C   C22  0.816101  0.567801  0.502232  -0.136590
    H   H5   0.842868  0.381298  0.494205  0.101911
    H   H6   0.157299  0.618988  0.505747  0.103901
    H   H7   0.156879  0.379578  0.494583  0.105692
    H   H8   0.843110  0.620692  0.505749  0.107590
    C   C23  0.852231  0.500965  0.500158  0.085962
    C   C24  0.147842  0.499320  0.500032  0.083870
    C   C25  0.708722  0.501126  0.499764  0.019711
    C   C26  0.291364  0.499059  0.499688  0.029564
    C   C27  0.964629  0.553379  0.454990  -0.146712
    C   C28  0.035428  0.446965  0.545398  -0.143947
    C   C29  0.035876  0.552822  0.454792  -0.129062
    C   C30  0.964176  0.447504  0.545568  -0.131087
    H   H9   0.937889  0.594401  0.417383  0.106027
    H   H10  0.062168  0.405936  0.582986  0.103450
    H   H11  0.062976  0.593432  0.417027  0.110326
    H   H12  0.937067  0.406854  0.583268  0.111384
    C   C31  0.071848  0.499637  0.500017  0.064268
    C   C32  0.928211  0.500695  0.500341  0.064252
    C   C33  0.449535  0.724263  0.539765  0.115282
    C   C34  0.462813  0.275921  0.558043  -0.007922
    C   C35  0.551202  0.724757  0.460835  0.128811
    C   C36  0.535129  0.275559  0.441127  0.015688
    H   H13  0.409415  0.693753  0.571996  0.118480
    H   H14  0.433756  0.306484  0.604417  0.134723
    H   H15  0.591675  0.694659  0.428726  0.110261
    H   H16  0.564231  0.305817  0.394531  0.130484
    C   C37  0.448807  0.801445  0.541033  -0.422612
    C   C38  0.461594  0.198712  0.558558  -0.258523
    C   C39  0.552548  0.801978  0.462059  -0.427680
    C   C40  0.534384  0.198372  0.439464  -0.275711
    H   H17  0.408186  0.830774  0.573802  0.149509
    H   H18  0.432494  0.169184  0.605737  0.138614
    H   H19  0.593668  0.831752  0.430684  0.150337
    H   H20  0.562455  0.168575  0.391588  0.142230
    C   C41  0.500490  0.840850  0.501546  0.659438
    C   C42  0.497972  0.159506  0.499130  0.382276
    N   N1   0.499160  0.687102  0.497757  -0.165379
    N   N2   0.500909  0.313101  0.501187  -0.036456
    C   C43  0.554206  0.962442  0.535647  0.181815
    C   C44  0.443038  0.038279  0.467850  0.237728
    C   C45  0.444727  0.960847  0.466094  0.177541
    C   C46  0.554536  0.039855  0.532458  0.235446
    C   C47  0.498476  0.077708  0.499753  -0.284657
    C   C48  0.499826  0.922816  0.501177  -0.349381
    O   O9   0.501128  0.632373  0.087186  -0.280996
    C   C49  0.570385  0.653769  0.093750  0.139829
    H   H21  0.604659  0.608002  0.071902  -0.000998
    H   H22  0.582574  0.666218  0.159880  0.018293
    H   H23  0.579476  0.704415  0.055237  0.017854
    O   O10  0.500417  0.367656  0.911695  -0.280960
    C   C50  0.431197  0.346123  0.905105  0.114430
    H   H24  0.419042  0.333666  0.838971  0.026614
    H   H25  0.396831  0.391804  0.926965  0.003450
    H   H26  0.422198  0.295434  0.943574  0.026325
    O   O11  0.499807  0.634203  0.915192  -0.283491
    C   C51  0.430563  0.656032  0.910461  0.145795
    H   H27  0.396328  0.609533  0.930408  -0.002885
    H   H28  0.417907  0.671134  0.845157  0.017159
    H   H29  0.421912  0.705144  0.951499  0.016026
    O   O12  0.501615  0.365798  0.083704  -0.289156
    C   C52  0.570885  0.344110  0.088712  0.129996
    H   H30  0.583444  0.329236  0.154115  0.022426
    H   H31  0.605082  0.390609  0.068667  -0.000981
    H   H32  0.579707  0.294894  0.047875  0.022460
    O   O13  0.608149  0.925168  0.572115  -0.274650
    C   C53  0.591028  0.919655  0.656525  0.072811
    H   H33  0.538135  0.941433  0.667611  0.005836
    H   H34  0.628358  0.952700  0.693956  0.048756
    H   H35  0.593001  0.860050  0.675898  0.025794
    O   O14  0.388577  0.075932  0.432997  -0.320704
    C   C54  0.336523  0.075450  0.493365  0.127963
    H   H36  0.357809  0.057813  0.554494  -0.014085
    H   H37  0.295065  0.036097  0.474329  0.021740
    H   H38  0.314768  0.132650  0.499596  0.031963
    O   O15  0.391297  0.921925  0.430643  -0.272235
    C   C55  0.408213  0.915265  0.346285  0.078811
    H   H39  0.460878  0.937390  0.334562  0.004660
    H   H40  0.370470  0.947309  0.308385  0.046902
    H   H41  0.406696  0.855341  0.328112  0.023269
    O   O16  0.608169  0.079127  0.566985  -0.319769
    C   C56  0.660183  0.079789  0.506566  0.127952
    H   H42  0.639599  0.059997  0.445908  -0.013650
    H   H43  0.703123  0.042743  0.526516  0.022777
    H   H44  0.679718  0.137793  0.498908  0.030967
