# Generated by REPEAT Assigner based on pymatgen
data_DB0-m29_o84_o45_f0_pts.sym.126
_audit_creation_date              2022-05-24
_audit_creation_method            REPEAT_Assigner
_cell_length_a                    13.162141
_cell_length_b                    9.396953
_cell_length_c                    17.549437
_cell_angle_alpha                 89.046350
_cell_angle_beta                  99.064491
_cell_angle_gamma                 111.290140
_cell_volume                      1995.252050
_symmetry_space_group_name_H-M    P1
_symmetry_Int_Tables_number       1
loop_
    _symmetry_equiv_pos_site_id
    _symmetry_equiv_pos_as_xyz
    1  x,y,z
loop_
    _atom_site_type_symbol
    _atom_site_label
    _atom_site_fract_x
    _atom_site_fract_y
    _atom_site_fract_z
    _atom_type_partial_charge
    C   C1   0.210797  0.964111  0.909338  -0.013451
    C   C2   0.108038  0.941030  0.865409  0.243425
    C   C3   0.023190  0.952584  0.899662  -0.033665
    C   C4   0.922265  0.935381  0.855430  -0.077465
    C   C5   0.839503  0.952937  0.888430  -0.147234
    C   C6   0.225127  0.988843  0.989148  -0.082231
    C   C7   0.139239  0.999468  0.023227  0.021949
    C   C8   0.039194  0.984146  0.978118  0.081605
    C   C9   0.955024  0.001064  0.011455  -0.012642
    C   C10  0.855356  0.987690  0.966697  0.124624
    C   C11  0.771033  0.003266  0.000628  -0.082593
    C   C12  0.153714  0.031555  0.102040  -0.043041
    C   C13  0.069344  0.045487  0.134853  -0.183817
    C   C14  0.970173  0.030311  0.089855  0.169472
    C   C15  0.886112  0.042770  0.123938  -0.188764
    C   C16  0.785741  0.028055  0.080072  0.069397
    H   H1   0.904750  0.909028  0.794104  0.093294
    H   H2   0.762947  0.937347  0.850697  0.147664
    H   H3   0.230034  0.047331  0.140186  0.095001
    H   H4   0.081943  0.069295  0.196391  0.147213
    H   H5   0.899510  0.063601  0.185734  0.148140
    O   O1   0.606171  0.046328  0.081783  -0.458378
    C   C17  0.696275  0.032705  0.119808  0.509492
    O   O2   0.517291  0.742454  0.144572  -0.445918
    O   O3   0.704711  0.017321  0.194746  -0.520107
    O   O4   0.487585  0.877395  0.238903  -0.490840
    C   C18  0.502621  0.754974  0.216043  0.486218
    Fe  Fe1  0.498198  0.018044  0.152717  1.413356
    O   O5   0.347135  0.923440  0.089614  -0.625530
    O   O6   0.414935  0.148190  0.031120  -0.482387
    C   C19  0.333303  0.018971  0.036957  0.705059
    O   O7   0.547050  0.230367  0.199565  -0.602383
    O   O8   0.436468  0.106741  0.285981  -0.532375
    C   C20  0.498924  0.234258  0.259233  0.564267
    O   O9   0.451853  0.773147  0.789235  -0.610082
    O   O10  0.597863  0.900581  0.729614  -0.568202
    C   C21  0.517355  0.773184  0.740062  0.673144
    O   O11  0.652625  0.075955  0.901343  -0.594388
    O   O12  0.580374  0.850385  0.958065  -0.474778
    C   C22  0.663811  0.978091  0.953228  0.633044
    O   O13  0.298329  0.984400  0.795841  -0.424603
    O   O14  0.513257  0.127191  0.752753  -0.577537
    C   C23  0.491507  0.245743  0.772969  0.646665
    O   O15  0.393479  0.954055  0.909036  -0.473862
    C   C24  0.303071  0.964928  0.870329  0.544799
    O   O16  0.472991  0.257615  0.843479  -0.464171
    Fe  Fe2  0.501549  0.984122  0.837909  1.402091
    C   C25  0.494642  0.369751  0.719760  -0.113917
    C   C26  0.501729  0.356618  0.642171  0.121021
    C   C27  0.514747  0.481092  0.595658  0.036817
    C   C28  0.523991  0.621218  0.627917  0.326152
    C   C29  0.508202  0.629313  0.703665  -0.147724
    C   C30  0.492426  0.504040  0.748586  -0.082343
    N   N1   0.515820  0.459198  0.515909  0.027962
    N   N2   0.491398  0.554440  0.474392  -0.181090
    C   C31  0.495004  0.647719  0.345912  -0.329480
    H   H6   0.491225  0.751784  0.368335  0.164454
    C   C32  0.502749  0.632393  0.269077  0.176665
    C   C33  0.510162  0.499671  0.242066  -0.272449
    C   C34  0.504551  0.380663  0.290501  0.203343
    C   C35  0.496235  0.395980  0.367040  -0.349827
    H   H7   0.491020  0.300091  0.403161  0.123910
    C   C36  0.494335  0.531603  0.395461  0.417466
    H   H8   0.485731  0.516003  0.808511  0.174878
    H   H9   0.514645  0.485066  0.181913  0.176677
    N   N3   0.089136  0.904118  0.785502  -0.597870
    C   C37  0.095050  0.024757  0.741251  0.867946
    O   O17  0.143912  0.154241  0.769135  -0.521658
    C   C38  0.040724  0.001209  0.658702  -0.571426
    H   H10  0.026311  0.802870  0.765689  0.321400
    H   H11  0.002762  0.877711  0.641659  0.136774
    H   H12  0.103016  0.058703  0.621408  0.159357
    H   H13  0.975787  0.051685  0.650558  0.141450
    N   N4   0.491178  0.215063  0.608809  -0.274341
    C   C39  0.387709  0.109332  0.601008  0.554038
    O   O18  0.321993  0.122996  0.639381  -0.396951
    C   C40  0.351554  0.977108  0.544158  -0.549068
    H   H14  0.532639  0.216860  0.563571  0.202499
    H   H15  0.419348  0.981513  0.512793  0.132471
    H   H16  0.280397  0.980313  0.501856  0.177363
    H   H17  0.325547  0.869030  0.575024  0.162782
    N   N5   0.548665  0.754895  0.584912  -0.771594
    C   C41  0.651549  0.808819  0.566887  0.944659
    O   O19  0.707726  0.729492  0.574700  -0.596184
    C   C42  0.697641  0.965621  0.537625  -0.664651
    H   H18  0.513383  0.833521  0.593081  0.413645
    H   H19  0.636027  0.021666  0.532394  0.157042
    H   H20  0.720399  0.957855  0.480045  0.196632
    H   H21  0.772459  0.035157  0.578125  0.193697
