# Generated by REPEAT Assigner based on pymatgen
data_DB0-m23_o11_o149_f0_pcu
_audit_creation_date              2022-05-24
_audit_creation_method            REPEAT_Assigner
_cell_length_a                    10.519179
_cell_length_b                    14.107494
_cell_length_c                    14.928799
_cell_angle_alpha                 91.496930
_cell_angle_beta                  91.211692
_cell_angle_gamma                 73.309883
_cell_volume                      2121.151848
_symmetry_space_group_name_H-M    P1
_symmetry_Int_Tables_number       1
loop_
    _symmetry_equiv_pos_site_id
    _symmetry_equiv_pos_as_xyz
    1  x,y,z
loop_
    _atom_site_type_symbol
    _atom_site_label
    _atom_site_fract_x
    _atom_site_fract_y
    _atom_site_fract_z
    _atom_type_partial_charge
    C   C1   0.724108  0.316310  0.997692  0.637552
    O   O1   0.707299  0.228278  0.999228  -0.725624
    O   O2   0.844906  0.324785  0.997364  -0.678132
    C   C2   0.267075  0.675964  0.996039  0.623963
    O   O3   0.291680  0.761452  0.996004  -0.702249
    O   O4   0.143809  0.673804  0.997145  -0.687192
    C   C3   0.207022  0.072915  0.000370  0.770592
    O   O5   0.143926  0.167453  0.000349  -0.665296
    O   O6   0.138499  0.007985  0.000559  -0.883740
    Cd  Cd1  0.929372  0.144004  0.000545  1.271122
    Cd  Cd2  0.071933  0.854870  0.998665  1.252918
    C   C4   0.795184  0.931429  0.997147  0.641184
    O   O7   0.853192  0.836262  0.997607  -0.658764
    O   O8   0.867845  0.992802  0.999528  -0.847179
    C   C5   0.001996  0.802823  0.820163  -0.120158
    N   N1   0.074152  0.852453  0.867838  -0.038089
    C   C6   0.153193  0.896064  0.824560  -0.161311
    C   C7   0.929123  0.749828  0.678715  -0.352276
    C   C8   0.003124  0.800392  0.727426  0.172237
    C   C9   0.078573  0.848786  0.683308  0.015752
    C   C10  0.154212  0.896783  0.732204  0.164992
    C   C11  0.230834  0.945548  0.688855  -0.320937
    C   C12  0.857079  0.698222  0.536922  -0.223483
    C   C13  0.930622  0.748653  0.586038  0.232279
    C   C14  0.005676  0.798215  0.542241  -0.001797
    C   C15  0.858605  0.697523  0.444456  -0.213146
    C   C16  0.933305  0.747549  0.400667  0.234133
    C   C17  0.079864  0.848135  0.590993  -0.022804
    C   C18  0.155328  0.897524  0.547507  -0.020251
    C   C19  0.230313  0.946741  0.596431  0.178400
    C   C20  0.304257  0.997364  0.552826  -0.186735
    C   C21  0.006741  0.797879  0.449778  -0.018405
    C   C22  0.081081  0.848181  0.406348  -0.028006
    C   C23  0.155442  0.897942  0.455155  0.022320
    C   C24  0.229703  0.948241  0.411555  0.088359
    C   C25  0.303657  0.998342  0.460506  -0.080338
    C   C26  0.934527  0.747587  0.308014  -0.343547
    C   C27  0.008094  0.798981  0.264652  0.141936
    C   C28  0.080863  0.848984  0.314043  0.050388
    C   C29  0.154280  0.899260  0.270426  0.104007
    C   C30  0.229296  0.948812  0.319110  -0.253988
    C   C31  0.008927  0.800806  0.172015  -0.109842
    N   N2   0.077842  0.853386  0.129565  -0.046552
    C   C32  0.152238  0.900365  0.178032  -0.110838
    H   H1   0.944407  0.762992  0.854050  0.161007
    H   H2   0.869856  0.711328  0.713026  0.158012
    H   H3   0.290010  0.983815  0.727212  0.145161
    H   H4   0.797974  0.659071  0.570551  0.134514
    H   H5   0.800650  0.657855  0.406632  0.133016
    H   H6   0.362270  0.036906  0.590714  0.111802
    H   H7   0.361175  0.038664  0.426827  0.085247
    H   H8   0.876924  0.708162  0.269539  0.154897
    H   H9   0.287217  0.988479  0.284935  0.128641
    H   H10  0.212317  0.938665  0.145277  0.128473
    H   H11  0.218460  0.929579  0.861356  0.170074
    H   H12  0.954729  0.758700  0.134136  0.170350
    C   C33  0.811699  0.064634  0.181237  -0.019298
    N   N3   0.885830  0.107998  0.132951  -0.049210
    C   C34  0.961549  0.158442  0.175416  -0.205298
    C   C35  0.742432  0.020750  0.321745  -0.263288
    C   C36  0.817097  0.066908  0.273445  0.080774
    C   C37  0.895619  0.116447  0.317148  -0.002924
    C   C38  0.968049  0.162969  0.267969  0.238514
    C   C39  0.045907  0.214298  0.311414  -0.360318
    C   C40  0.673088  0.977879  0.462722  -0.106908
    C   C41  0.746846  0.024465  0.414089  0.120629
    C   C42  0.825002  0.075002  0.457847  0.021248
    C   C43  0.676015  0.983076  0.554999  -0.192611
    C   C44  0.753091  0.034563  0.598743  0.184170
    C   C45  0.899511  0.120988  0.409336  -0.008362
    C   C46  0.977280  0.171895  0.452886  -0.015954
    C   C47  0.050753  0.218500  0.404017  0.208818
    C   C48  0.128697  0.269289  0.447979  -0.192091
    C   C49  0.828343  0.079851  0.550088  -0.029319
    C   C50  0.906881  0.130108  0.593700  -0.016118
    C   C51  0.981300  0.176197  0.545253  -0.012138
    C   C52  0.059288  0.226756  0.589236  0.240535
    C   C53  0.133107  0.273286  0.540423  -0.232793
    C   C54  0.755180  0.040751  0.691073  -0.293183
    C   C55  0.834696  0.090493  0.734512  0.097843
    C   C56  0.910790  0.134341  0.685892  0.030502
    C   C57  0.989042  0.183806  0.730152  0.178264
    C   C58  0.063367  0.230485  0.681837  -0.356906
    C   C59  0.838193  0.096298  0.826742  -0.057551
    N   N4   0.920763  0.140194  0.870169  -0.068973
    C   C60  0.992824  0.186256  0.822729  -0.143815
    H   H13  0.743352  0.030679  0.148935  0.102232
    H   H14  0.680605  0.981622  0.287351  0.132260
    H   H15  0.103148  0.251036  0.273046  0.165794
    H   H16  0.612682  0.937295  0.428824  0.086890
    H   H17  0.617888  0.946522  0.592733  0.114162
    H   H18  0.186685  0.306051  0.410320  0.126868
    H   H19  0.194538  0.313118  0.574268  0.134268
    H   H20  0.695725  0.005691  0.729279  0.133334
    H   H21  0.124883  0.269754  0.716390  0.158883
    H   H22  0.052355  0.227219  0.856523  0.170710
    H   H23  0.015100  0.197709  0.137354  0.140839
    H   H24  0.771876  0.066718  0.863157  0.126996
    C   C61  0.571429  0.913231  0.005602  -0.203268
    C   C62  0.650088  0.971410  0.995297  -0.166262
    H   H25  0.616162  0.834580  0.014157  0.147160
    H   H26  0.610333  0.050649  0.990068  0.180784
    C   C63  0.425077  0.949954  0.010382  0.087004
    C   C64  0.352639  0.042989  0.995759  -0.350588
    H   H27  0.374558  0.897300  0.028349  0.102262
    H   H28  0.398001  0.100069  0.980086  0.131448
    C   C65  0.502141  0.584441  0.995049  -0.108877
    C   C66  0.375113  0.583485  0.995203  -0.219862
    H   H29  0.524202  0.654868  0.995062  0.130454
    H   H30  0.346846  0.515749  0.995057  0.140760
    C   C67  0.617306  0.494765  0.995231  -0.035898
    C   C68  0.606981  0.402608  0.996680  -0.249830
    H   H31  0.715068  0.505775  0.994635  0.115806
    H   H32  0.512158  0.387454  0.997571  0.148783
