# Generated by REPEAT Assigner based on pymatgen
data_DB0-m5_o6_o25_f0_bcu.sym.94
_audit_creation_date              2022-05-24
_audit_creation_method            REPEAT_Assigner
_cell_length_a                    17.298233
_cell_length_b                    17.467552
_cell_length_c                    17.427647
_cell_angle_alpha                 88.568517
_cell_angle_beta                  60.618241
_cell_angle_gamma                 118.961169
_cell_volume                      3769.170649
_symmetry_space_group_name_H-M    P1
_symmetry_Int_Tables_number       1
loop_
    _symmetry_equiv_pos_site_id
    _symmetry_equiv_pos_as_xyz
    1  x,y,z
loop_
    _atom_site_type_symbol
    _atom_site_label
    _atom_site_fract_x
    _atom_site_fract_y
    _atom_site_fract_z
    _atom_type_partial_charge
    O   O1   0.953951  0.450275  0.876623  -0.480337
    O   O2   0.047858  0.549574  0.120797  -0.479293
    O   O3   0.784509  0.352482  0.928634  -0.558313
    O   O4   0.217300  0.647367  0.068786  -0.556567
    C   C1   0.886270  0.402165  0.855926  0.506437
    C   C2   0.115539  0.597684  0.141494  0.505634
    O   O5   0.046181  0.667607  0.003167  -0.502363
    O   O6   0.955628  0.332241  0.994252  -0.502920
    O   O7   0.215366  0.784537  0.932066  -0.577583
    O   O8   0.786444  0.215312  0.065354  -0.579809
    C   C3   0.113343  0.755475  0.984185  0.541976
    C   C4   0.888466  0.244374  0.013234  0.544454
    O   O9   0.826425  0.495596  0.050154  -0.483797
    O   O10  0.175384  0.504252  0.947266  -0.483184
    O   O11  0.778663  0.565142  0.148789  -0.548220
    O   O12  0.223146  0.434707  0.848631  -0.547990
    C   C5   0.756164  0.514051  0.098969  0.476116
    C   C6   0.245646  0.485798  0.898451  0.478288
    O   O13  0.173660  0.622200  0.829595  -0.487702
    O   O14  0.828149  0.377648  0.167825  -0.489168
    O   O15  0.221121  0.571813  0.711890  -0.580980
    O   O16  0.780689  0.428035  0.285529  -0.582330
    C   C7   0.243273  0.643645  0.740984  0.543144
    C   C8   0.758536  0.356204  0.256436  0.543631
    Cd  Cd1  0.804883  0.355834  0.050011  1.091961
    Cd  Cd2  0.196926  0.644015  0.947409  1.088259
    Cd  Cd3  0.905815  0.549606  0.144108  1.095130
    Cd  Cd4  0.095995  0.450242  0.853311  1.091645
    C   C9   0.552273  0.514773  0.906844  -0.167612
    C   C10  0.449534  0.485071  0.090576  -0.168802
    C   C11  0.591666  0.578919  0.954758  0.482535
    C   C12  0.410142  0.420925  0.042662  0.483163
    H   H1   0.596413  0.530350  0.829950  0.081773
    H   H2   0.405394  0.469494  0.167470  0.082384
    H   H3   0.473859  0.623870  0.029309  0.093792
    H   H4   0.527947  0.375973  0.968111  0.094602
    C   C13  0.684030  0.506658  0.076331  -0.003920
    C   C14  0.317779  0.493189  0.921089  -0.004966
    C   C15  0.517050  0.433074  0.980470  -0.252035
    C   C16  0.484757  0.566770  0.016950  -0.250368
    C   C17  0.558067  0.499525  0.026461  0.443431
    C   C18  0.443740  0.500319  0.970960  0.444362
    C   C19  0.626066  0.502514  0.054797  -0.346795
    C   C20  0.375742  0.497332  0.942623  -0.347589
    H   H5   0.140108  0.564990  0.529905  0.181338
    H   H6   0.861702  0.434857  0.467515  0.180816
    C   C21  0.107919  0.563510  0.426104  -0.177427
    C   C22  0.893890  0.436336  0.571315  -0.179959
    H   H7   0.191819  0.613154  0.369125  0.149517
    H   H8   0.809990  0.386693  0.628294  0.149839
    C   C23  0.029813  0.527213  0.408731  0.322515
    C   C24  0.971997  0.472633  0.588689  0.326038
    C   C25  0.922830  0.463543  0.481277  -0.232264
    C   C26  0.078980  0.536303  0.516142  -0.235183
    C   C27  0.060078  0.554061  0.314816  -0.181488
    C   C28  0.941732  0.445787  0.682604  -0.184254
    C   C29  0.916359  0.424720  0.761641  -0.059409
    C   C30  0.085450  0.575128  0.235779  -0.062299
    H   H9   0.600598  0.032302  0.328432  0.181814
    H   H10  0.401211  0.967548  0.668990  0.180954
    C   C31  0.494273  0.928375  0.464283  -0.183582
    C   C32  0.507535  0.071475  0.533139  -0.186214
    H   H11  0.488883  0.872277  0.437258  0.147818
    H   H12  0.512926  0.127573  0.560163  0.148335
    C   C33  0.438587  0.910198  0.559764  0.330961
    C   C34  0.563221  0.089652  0.437658  0.335346
    C   C35  0.445141  0.981779  0.594158  -0.237094
    C   C36  0.556667  0.018070  0.403264  -0.240298
    C   C37  0.371986  0.816546  0.623375  -0.181218
    C   C38  0.629823  0.183304  0.374046  -0.183862
    C   C39  0.687330  0.262103  0.320482  -0.074763
    C   C40  0.314478  0.737747  0.676938  -0.076323
    H   H13  0.142724  0.166977  0.909135  0.161752
    H   H14  0.859085  0.832870  0.088279  0.162126
    C   C41  0.108123  0.031561  0.947716  -0.116665
    C   C42  0.893686  0.968287  0.049698  -0.115961
    H   H15  0.192174  0.056312  0.907591  0.133845
    H   H16  0.809634  0.943535  0.089823  0.133800
    C   C43  0.028620  0.937973  0.998181  0.288471
    C   C44  0.973189  0.061874  0.999233  0.286017
    C   C45  0.921398  0.906311  0.049138  -0.246231
    C   C46  0.080411  0.093536  0.948276  -0.244804
    C   C47  0.057573  0.873325  0.995744  -0.172524
    C   C48  0.944236  0.126523  0.001672  -0.170195
    C   C49  0.919258  0.180545  0.005561  -0.083597
    C   C50  0.082552  0.819303  0.991857  -0.082211
    O   O17  0.690598  0.663128  0.906019  -0.569502
    C   C51  0.723984  0.721571  0.948802  0.908039
    O   O18  0.665597  0.701790  0.033340  -0.562335
    C   C52  0.833207  0.810883  0.892240  -0.600385
    H   H17  0.873389  0.817482  0.817195  0.144318
    H   H18  0.882121  0.811533  0.916244  0.229836
    H   H19  0.825525  0.870036  0.901115  0.138432
    O   O19  0.311209  0.336716  0.091401  -0.569834
    C   C53  0.277823  0.278274  0.048616  0.908127
    O   O20  0.336212  0.298055  0.964079  -0.562255
    C   C54  0.168599  0.188964  0.105177  -0.600303
    H   H20  0.128416  0.182364  0.180222  0.144508
    H   H21  0.176279  0.129809  0.096303  0.138431
    H   H22  0.119688  0.188316  0.081172  0.229369
