data_DB0-m3_o12_o23_f0_pcu.sym.36_repeat
_audit_creation_date              2024-02-23
_audit_creation_method            'Materials Studio'
_symmetry_space_group_name_H-M    'P1'
_symmetry_Int_Tables_number       1
_symmetry_cell_setting            triclinic
loop_
_symmetry_equiv_pos_as_xyz
  x,y,z
_cell_length_a                    10.0059
_cell_length_b                    11.2481
_cell_length_c                    15.9571
_cell_angle_alpha                 89.9882
_cell_angle_beta                  80.7178
_cell_angle_gamma                 92.4468
loop_
_atom_site_label
_atom_site_type_symbol
_atom_site_fract_x
_atom_site_fract_y
_atom_site_fract_z
_atom_site_U_iso_or_equiv
_atom_site_adp_type
_atom_site_occupancy
O1     O     0.42586   0.69082   0.50907   0.00000  Uiso   1.00
O2     O     0.65555   0.65964   0.48468   0.00000  Uiso   1.00
C1     C     0.55295   0.73006   0.49561   0.00000  Uiso   1.00
O3     O     0.38782   0.51545   0.63777   0.00000  Uiso   1.00
O4     O     0.61761   0.48424   0.61348   0.00000  Uiso   1.00
C2     C     0.50314   0.49980   0.66448   0.00000  Uiso   1.00
Zn1    Zn    0.34923   0.52083   0.51708   0.00000  Uiso   1.00
Zn2    Zn    0.65201   0.47939   0.48489   0.00000  Uiso   1.00
O5     O     0.34569   0.34057   0.51729   0.00000  Uiso   1.00
O6     O     0.57537   0.30939   0.49290   0.00000  Uiso   1.00
O7     O     0.38362   0.51597   0.38849   0.00000  Uiso   1.00
O8     O     0.61341   0.48477   0.36420   0.00000  Uiso   1.00
C3     C     0.44828   0.27015   0.50636   0.00000  Uiso   1.00
C4     C     0.49809   0.50042   0.33749   0.00000  Uiso   1.00
C5     C     0.39213   0.58044   0.96331   0.00000  Uiso   1.00
C6     C     0.63811   0.54699   0.94041   0.00000  Uiso   1.00
C7     C     0.63957   0.53860   0.03495   0.00000  Uiso   1.00
H1     H     0.40958   0.67118   0.93545   0.00000  Uiso   1.00
H2     H     0.71965   0.49323   0.90603   0.00000  Uiso   1.00
H3     H     0.65603   0.64105   0.91923   0.00000  Uiso   1.00
H4     H     0.67333   0.62538   0.05899   0.00000  Uiso   1.00
H5     H     0.71268   0.47161   0.04676   0.00000  Uiso   1.00
C8     C     0.49741   0.50046   0.24764   0.00000  Uiso   1.00
C9     C     0.50164   0.50046   0.92174   0.00000  Uiso   1.00
C10    C     0.39194   0.58186   0.05849   0.00000  Uiso   1.00
C11    C     0.49898   0.50011   0.08029   0.00000  Uiso   1.00
C12    C     0.46551   0.37520   0.05210   0.00000  Uiso   1.00
C13    C     0.47286   0.37465   0.95647   0.00000  Uiso   1.00
C14    C     0.49777   0.50035   0.17209   0.00000  Uiso   1.00
C15    C     0.50325   0.50004   0.82990   0.00000  Uiso   1.00
C16    C     0.50378   0.49983   0.75434   0.00000  Uiso   1.00
H6     H     0.37513   0.33890   0.94048   0.00000  Uiso   1.00
H7     H     0.55494   0.31695   0.92773   0.00000  Uiso   1.00
H8     H     0.36201   0.34579   0.08290   0.00000  Uiso   1.00
H9     H     0.29210   0.54482   0.95100   0.00000  Uiso   1.00
H10    H     0.29115   0.54751   0.09068   0.00000  Uiso   1.00
H11    H     0.53897   0.31284   0.07035   0.00000  Uiso   1.00
H12    H     0.62279   0.09517   0.48811   0.00000  Uiso   1.00
H13    H     0.37845   0.90505   0.51386   0.00000  Uiso   1.00
C17    C     0.58281   0.85886   0.49245   0.00000  Uiso   1.00
C18    C     0.48390   0.93594   0.50278   0.00000  Uiso   1.00
H14    H     0.31351   0.10874   0.52056   0.00000  Uiso   1.00
C19    C     0.41842   0.14136   0.50952   0.00000  Uiso   1.00
C20    C     0.51733   0.06428   0.49918   0.00000  Uiso   1.00
H15    H     0.68772   0.89148   0.48141   0.00000  Uiso   1.00
H16    H     0.11760   0.42834   0.44718   0.00000  Uiso   1.00
H17    H     0.88361   0.57182   0.55482   0.00000  Uiso   1.00
N1     N     0.85069   0.45153   0.46337   0.00000  Uiso   1.00
C21    C     0.92741   0.50928   0.50760   0.00000  Uiso   1.00
H18    H     0.10304   0.60679   0.58224   0.00000  Uiso   1.00
N2     N     0.15053   0.54861   0.53863   0.00000  Uiso   1.00
C22    C     0.07381   0.49087   0.49441   0.00000  Uiso   1.00
H19    H     0.89818   0.39338   0.41976   0.00000  Uiso   1.00
N3     N     0.41466   0.70227   0.08830   0.00000  Uiso   1.00
H20    H     0.32673   0.74811   0.08604   0.00000  Uiso   1.00
H21    H     0.49371   0.74573   0.04752   0.00000  Uiso   1.00
