# Generated by REPEAT Assigner based on pymatgen
data_DB0-m29_o99_o149_f0_pts.sym.108
_audit_creation_date              2022-05-24
_audit_creation_method            REPEAT_Assigner
_cell_length_a                    15.749846
_cell_length_b                    9.417904
_cell_length_c                    16.058956
_cell_angle_alpha                 92.180233
_cell_angle_beta                  99.132926
_cell_angle_gamma                 97.105679
_cell_volume                      2329.725470
_symmetry_space_group_name_H-M    P1
_symmetry_Int_Tables_number       1
loop_
    _symmetry_equiv_pos_site_id
    _symmetry_equiv_pos_as_xyz
    1  x,y,z
loop_
    _atom_site_type_symbol
    _atom_site_label
    _atom_site_fract_x
    _atom_site_fract_y
    _atom_site_fract_z
    _atom_type_partial_charge
    C   C1   0.212361  0.968997  0.868656  -0.116435
    H   H1   0.219807  0.952137  0.803399  0.141207
    C   C2   0.130180  0.962774  0.888363  -0.164437
    H   H2   0.074194  0.938798  0.839175  0.139025
    C   C3   0.119415  0.988838  0.970516  0.265063
    C   C4   0.190730  0.018333  0.033276  -0.213325
    H   H3   0.179940  0.033797  0.097579  0.188224
    C   C5   0.274047  0.023163  0.014730  0.002028
    C   C6   0.284646  0.001394  0.930678  0.007759
    C   C7   0.033720  0.982029  0.991214  -0.133534
    C   C8   0.961789  0.976169  0.008685  -0.117583
    C   C9   0.805308  0.950084  0.966189  -0.208429
    H   H4   0.816555  0.937836  0.901835  0.160086
    C   C10  0.722088  0.951906  0.983833  -0.048539
    C   C11  0.710976  0.972604  0.067821  0.031199
    C   C12  0.782898  0.995249  0.130814  -0.168776
    H   H5   0.774674  0.009848  0.196004  0.145549
    C   C13  0.865083  0.991110  0.112485  -0.024235
    C   C14  0.876205  0.969258  0.029819  0.234088
    O   O1   0.529224  0.178889  0.765144  -0.597679
    C   C15  0.479011  0.199616  0.694480  0.613079
    O   O2   0.427876  0.126791  0.932706  -0.516415
    O   O3   0.422029  0.094630  0.656069  -0.532284
    O   O4   0.382831  0.932409  0.841130  -0.589549
    C   C16  0.369621  0.017011  0.903460  0.636548
    Fe  Fe1  0.498193  0.989768  0.809688  1.399930
    O   O5   0.575633  0.985440  0.921298  -0.464379
    O   O6   0.664433  0.912612  0.835393  -0.487369
    C   C17  0.650323  0.944382  0.911839  0.542050
    O   O7   0.508882  0.856251  0.712499  -0.499731
    O   O8   0.486375  0.703013  0.813855  -0.467654
    C   C18  0.498733  0.723538  0.736098  0.666128
    O   O9   0.489782  0.140077  0.283682  -0.501777
    O   O10  0.524170  0.279082  0.180551  -0.399198
    C   C19  0.506391  0.268891  0.257286  0.564409
    O   O11  0.422591  0.001161  0.076783  -0.430893
    O   O12  0.332603  0.070088  0.162470  -0.514299
    C   C20  0.346866  0.038289  0.086077  0.507807
    O   O13  0.588620  0.887752  0.329264  -0.582679
    O   O14  0.615335  0.047608  0.158496  -0.590417
    C   C21  0.625627  0.964969  0.094154  0.633725
    O   O15  0.463625  0.815534  0.237766  -0.611102
    C   C22  0.520633  0.792234  0.303031  0.680143
    O   O16  0.563541  0.862718  0.062156  -0.450419
    Fe  Fe2  0.498842  0.999477  0.189403  1.372093
    C   C23  0.494539  0.463111  0.711226  0.017462
    C   C24  0.486313  0.340988  0.659231  -0.047821
    C   C25  0.483773  0.350751  0.573873  -0.133675
    C   C26  0.498067  0.596834  0.678019  -0.261737
    C   C27  0.498741  0.606644  0.591708  0.391876
    C   C28  0.493333  0.483819  0.538862  -0.077351
    C   C29  0.498054  0.498060  0.452752  0.089294
    C   C30  0.496157  0.380623  0.396255  -0.137514
    C   C31  0.505135  0.397687  0.312848  -0.105605
    N   N1   0.503873  0.736093  0.559222  -0.264441
    C   C32  0.506770  0.752270  0.477042  0.034275
    C   C33  0.506373  0.634344  0.422680  0.074005
    C   C34  0.513614  0.651584  0.338383  -0.178704
    C   C35  0.514595  0.534832  0.284371  0.126746
    H   H6   0.494718  0.451893  0.777905  0.124271
    H   H7   0.476301  0.250326  0.538001  0.178163
    H   H8   0.490601  0.272708  0.415352  0.140505
    H   H9   0.510303  0.859655  0.455613  0.153540
    C   C36  0.939639  0.012002  0.180874  0.168546
    C   C37  0.993653  0.907253  0.195552  -0.052420
    Cl  Cl1  0.971435  0.743466  0.135696  -0.048406
    C   C38  0.063192  0.928083  0.260781  -0.023517
    C   C39  0.078786  0.052740  0.311710  0.028251
    Cl  Cl2  0.167000  0.078545  0.394599  -0.068977
    C   C40  0.024222  0.156170  0.298080  -0.056839
    C   C41  0.954474  0.135464  0.233112  -0.216470
    H   H10  0.105048  0.845807  0.272526  0.095192
    H   H11  0.036054  0.253509  0.338396  0.099737
    H   H12  0.912076  0.217219  0.222555  0.151071
    C   C42  0.536306  0.560149  0.200560  0.231116
    C   C43  0.472317  0.544543  0.130056  -0.147419
    Cl  Cl3  0.362962  0.513716  0.141541  -0.004583
    C   C44  0.494843  0.545226  0.050433  0.199553
    C   C45  0.581157  0.562199  0.041388  -0.007392
    Cl  Cl4  0.610311  0.559095  0.940703  0.006205
    C   C46  0.644864  0.582762  0.111797  0.006571
    C   C47  0.622444  0.581399  0.191275  -0.250045
    H   H13  0.444890  0.529791  0.995146  0.055482
    H   H14  0.712449  0.596663  0.104678  0.075221
    H   H15  0.672526  0.591375  0.246409  0.136833
