# Generated by REPEAT Assigner based on pymatgen
data_DB0-m29_o80_o110_f0_pts.sym.18
_audit_creation_date              2022-05-24
_audit_creation_method            REPEAT_Assigner
_cell_length_a                    14.310996
_cell_length_b                    14.166883
_cell_length_c                    13.286992
_cell_angle_alpha                 94.149571
_cell_angle_beta                  92.270118
_cell_angle_gamma                 99.543450
_cell_volume                      2645.938042
_symmetry_space_group_name_H-M    P1
_symmetry_Int_Tables_number       1
loop_
    _symmetry_equiv_pos_site_id
    _symmetry_equiv_pos_as_xyz
    1  x,y,z
loop_
    _atom_site_type_symbol
    _atom_site_label
    _atom_site_fract_x
    _atom_site_fract_y
    _atom_site_fract_z
    _atom_type_partial_charge
    H   H1   0.884884  0.033800  0.361188  0.189556
    C   C1   0.723571  0.964778  0.851140  -0.075687
    C   C2   0.777655  0.944272  0.771957  -0.271151
    C   C3   0.868828  0.952298  0.811175  0.489441
    N   N1   0.873253  0.976815  0.911517  -0.537683
    C   C4   0.783981  0.985028  0.936176  0.396772
    C   C5   0.941429  0.941193  0.753667  -0.425836
    C   C6   0.042189  0.957298  0.787877  0.383438
    C   C7   0.115401  0.969771  0.723363  -0.308879
    C   C8   0.198720  0.983342  0.782516  -0.132836
    C   C9   0.172456  0.979727  0.882441  0.298926
    N   N2   0.076791  0.961208  0.883778  -0.285567
    C   C10  0.237070  0.995278  0.974136  -0.309284
    C   C11  0.209807  0.015801  0.067529  0.391370
    C   C12  0.269138  0.031115  0.153609  -0.151279
    C   C13  0.214223  0.048466  0.232953  -0.192033
    C   C14  0.124061  0.044593  0.192925  0.426336
    N   N3   0.120627  0.024708  0.091884  -0.508910
    C   C15  0.051644  0.056184  0.250323  -0.372492
    C   C16  0.951455  0.044896  0.215590  0.332924
    C   C17  0.878111  0.033786  0.279860  -0.277738
    C   C18  0.795127  0.022094  0.220584  -0.138162
    C   C19  0.821661  0.025456  0.120767  0.277700
    N   N4   0.917336  0.042059  0.119608  -0.257057
    C   C20  0.757137  0.008374  0.029078  -0.288705
    H   H2   0.754552  0.927521  0.693631  0.146970
    H   H3   0.925633  0.925344  0.673166  0.184220
    H   H4   0.108336  0.968366  0.641935  0.198908
    H   H5   0.311383  0.992750  0.965307  0.202691
    H   H6   0.235891  0.061043  0.311872  0.140983
    H   H7   0.066962  0.068803  0.331182  0.166724
    H   H8   0.682675  0.009997  0.038042  0.192125
    H   H9   0.036007  0.945346  0.945105  0.250196
    H   H10  0.958442  0.056096  0.058142  0.255006
    O   O1   0.623034  0.013315  0.211316  -0.620654
    C   C21  0.701339  0.009301  0.264597  0.679421
    O   O2   0.514555  0.812756  0.256538  -0.537544
    O   O3   0.696863  0.999364  0.361779  -0.548188
    O   O4   0.494934  0.901992  0.398721  -0.594656
    C   C22  0.497850  0.817476  0.353022  0.607198
    Fe  Fe1  0.513298  0.999309  0.298438  1.486424
    O   O5   0.396408  0.957066  0.207348  -0.561804
    O   O6   0.428057  0.113380  0.175659  -0.577002
    C   C23  0.370562  0.030543  0.165899  0.641778
    O   O7   0.533201  0.128664  0.375869  -0.649545
    O   O8   0.383289  0.067964  0.413156  -0.568194
    C   C24  0.454091  0.140094  0.418933  0.950162
    C   C25  0.369427  0.268929  0.387799  -0.053660
    C   C26  0.435931  0.236950  0.447496  -0.160477
    C   C27  0.493289  0.301735  0.516684  -0.014912
    C   C28  0.544853  0.271313  0.595972  0.136933
    C   C29  0.615519  0.336885  0.647212  -0.138588
    C   C30  0.366211  0.364714  0.386695  -0.084950
    C   C31  0.434659  0.432337  0.440853  0.012283
    C   C32  0.496294  0.400242  0.508771  0.129639
    C   C33  0.560599  0.466488  0.569172  -0.125674
    C   C34  0.393101  0.563909  0.349966  -0.165056
    C   C35  0.442275  0.530682  0.428386  0.075753
    C   C36  0.502013  0.597333  0.493544  -0.011512
    C   C37  0.407163  0.659282  0.333997  -0.087909
    C   C38  0.464616  0.726539  0.398401  -0.042138
    C   C39  0.625983  0.432341  0.630974  0.085135
    C   C40  0.558990  0.564903  0.566262  0.148340
    C   C41  0.611882  0.631810  0.636575  -0.174412
    C   C42  0.505408  0.696263  0.485515  0.131986
    C   C43  0.552629  0.760291  0.562959  -0.221476
    C   C44  0.606382  0.726976  0.635638  -0.007693
    H   H11  0.309946  0.382557  0.339546  0.101050
    H   H12  0.350076  0.517775  0.292076  0.150823
    H   H13  0.374846  0.680855  0.266367  0.148486
    H   H14  0.685398  0.477697  0.671330  0.026052
    H   H15  0.652214  0.613162  0.699898  0.161220
    H   H16  0.322745  0.219130  0.335628  0.101209
    H   H17  0.641435  0.775811  0.696782  0.094332
    O   O9   0.598340  0.042428  0.799011  -0.481645
    O   O10  0.563119  0.886172  0.830033  -0.559792
    C   C45  0.622544  0.967756  0.839486  0.550491
    O   O11  0.458140  0.871679  0.632259  -0.620792
    O   O12  0.606961  0.929179  0.589175  -0.549158
    C   C46  0.535081  0.858212  0.585876  0.933993
    O   O13  0.493320  0.194486  0.744006  -0.501358
    O   O14  0.371069  0.994249  0.792850  -0.633204
    C   C47  0.292652  0.995461  0.738473  0.684598
    O   O15  0.504865  0.097269  0.604495  -0.593327
    C   C48  0.510520  0.184325  0.647869  0.535676
    O   O16  0.297107  0.001398  0.640647  -0.548300
    Fe  Fe2  0.481701  0.002488  0.706948  1.452574
    Br  Br1  0.700196  0.297498  0.744364  0.017076
