# Generated by REPEAT Assigner based on pymatgen
data_DB0-m29_o88_o42_f0_pts.sym.64
_audit_creation_date              2022-05-24
_audit_creation_method            REPEAT_Assigner
_cell_length_a                    15.309606
_cell_length_b                    9.262406
_cell_length_c                    16.223568
_cell_angle_alpha                 92.050738
_cell_angle_beta                  103.067882
_cell_angle_gamma                 107.242797
_cell_volume                      2127.161084
_symmetry_space_group_name_H-M    P1
_symmetry_Int_Tables_number       1
loop_
    _symmetry_equiv_pos_site_id
    _symmetry_equiv_pos_as_xyz
    1  x,y,z
loop_
    _atom_site_type_symbol
    _atom_site_label
    _atom_site_fract_x
    _atom_site_fract_y
    _atom_site_fract_z
    _atom_type_partial_charge
    C   C1   0.786835  0.992833  0.141853  0.469767
    C   C2   0.870557  0.985652  0.125957  -0.388371
    H   H1   0.931460  0.995763  0.177458  0.193849
    C   C3   0.878601  0.968641  0.043616  0.275132
    C   C4   0.803241  0.962491  0.976656  -0.266574
    H   H2   0.808544  0.944152  0.912235  0.174716
    C   C5   0.719305  0.971731  0.991303  0.103758
    C   C6   0.711119  0.986084  0.074845  -0.218094
    C   C7   0.966346  0.949351  0.029910  -0.193504
    C   C8   0.998945  0.992650  0.961845  -0.092918
    H   H3   0.003760  0.895796  0.077371  0.168963
    H   H4   0.959028  0.040403  0.912671  0.122416
    C   C9   0.091736  0.937338  0.867557  -0.144908
    H   H5   0.029345  0.914472  0.815717  0.150944
    C   C10  0.174167  0.926778  0.851314  -0.185317
    H   H6   0.175939  0.898906  0.786568  0.155810
    C   C11  0.255730  0.963511  0.915726  0.149495
    C   C12  0.253626  0.004339  0.998448  -0.269868
    C   C13  0.168687  0.006537  0.015387  0.372792
    C   C14  0.088116  0.976654  0.949163  0.041508
    O   O1   0.517366  0.162300  0.766856  -0.563635
    C   C15  0.466873  0.166362  0.690399  0.562335
    O   O2   0.417609  0.100147  0.923671  -0.480536
    O   O3   0.404112  0.042401  0.646895  -0.516532
    O   O4   0.349784  0.882893  0.833271  -0.573088
    C   C16  0.344983  0.978429  0.892808  0.557235
    Fe  Fe1  0.475475  0.961993  0.809174  1.395991
    O   O5   0.560672  0.975392  0.924955  -0.405643
    O   O6   0.656288  0.958568  0.840150  -0.511508
    C   C17  0.642364  0.967092  0.916828  0.492529
    O   O7   0.478129  0.822278  0.712969  -0.496334
    O   O8   0.501909  0.684917  0.823796  -0.431181
    C   C18  0.495628  0.701083  0.742853  0.518190
    O   O9   0.491032  0.128694  0.278000  -0.484460
    O   O10  0.541341  0.303754  0.190682  -0.423434
    C   C19  0.518662  0.271832  0.262747  0.554320
    O   O11  0.401281  0.967662  0.067146  -0.435613
    O   O12  0.350825  0.133021  0.135427  -0.433137
    C   C20  0.339675  0.040127  0.068320  0.626911
    O   O13  0.552872  0.913096  0.351747  -0.516226
    O   O14  0.614351  0.070008  0.152194  -0.542555
    C   C21  0.620638  0.971908  0.095003  0.686595
    O   O15  0.454695  0.788161  0.225817  -0.575242
    C   C22  0.497625  0.786501  0.305275  0.607536
    O   O16  0.550260  0.845782  0.067684  -0.454773
    Fe  Fe2  0.491460  0.987658  0.181165  1.326048
    C   C23  0.511126  0.393490  0.319250  -0.057533
    C   C24  0.520648  0.383486  0.405818  0.274801
    C   C25  0.502783  0.492591  0.456384  -0.070647
    C   C26  0.492056  0.622477  0.420720  -0.188753
    H   H7   0.478906  0.711931  0.455181  0.136135
    C   C27  0.495272  0.640595  0.337701  0.067498
    C   C28  0.499685  0.523489  0.285850  -0.152834
    C   C29  0.506273  0.596912  0.603345  -0.158960
    H   H8   0.523437  0.711636  0.586824  0.153568
    C   C30  0.497688  0.576628  0.685513  0.063957
    C   C31  0.489911  0.436716  0.714045  -0.209708
    C   C32  0.476392  0.313214  0.657886  0.149348
    C   C33  0.470694  0.328809  0.572851  -0.312600
    H   H9   0.450095  0.226846  0.529536  0.163706
    C   C34  0.494587  0.472849  0.545636  0.217900
    H   H10  0.498337  0.536973  0.219745  0.166705
    H   H11  0.487935  0.420495  0.779285  0.157639
    O   O17  0.777008  0.005787  0.222147  -0.394631
    C   C35  0.819617  0.943322  0.287021  0.745912
    O   O18  0.850480  0.840186  0.273134  -0.522364
    C   C36  0.821117  0.991309  0.376046  -0.464201
    H   H12  0.787292  0.081895  0.376095  0.131986
    H   H13  0.895233  0.035394  0.414453  0.142303
    H   H14  0.781943  0.892375  0.403895  0.163993
    O   O19  0.164492  0.041065  0.095433  -0.372741
    C   C37  0.184083  0.953837  0.157547  0.740252
    O   O20  0.200054  0.836294  0.140719  -0.551687
    C   C38  0.183840  0.999377  0.246430  -0.418433
    H   H15  0.167124  0.107789  0.249071  0.099651
    H   H16  0.254384  0.014741  0.289117  0.149692
    H   H17  0.129829  0.909517  0.267299  0.142080
    O   O21  0.553504  0.273412  0.439697  -0.298267
    C   C39  0.627925  0.305268  0.508121  0.794788
    O   O22  0.674025  0.436861  0.534983  -0.545930
    C   C40  0.655874  0.179105  0.549258  -0.550363
    H   H18  0.606318  0.068427  0.516260  0.163541
    H   H19  0.653563  0.187438  0.617048  0.176339
    H   H20  0.728545  0.187520  0.545241  0.164466
