# Generated by REPEAT Assigner based on pymatgen
data_DB0-m3_o8_o14_f0_pcu.sym.53_sqe
_audit_creation_date              2022-05-24
_audit_creation_method            REPEAT_Assigner
_cell_length_a                    11.001487
_cell_length_b                    15.939608
_cell_length_c                    17.087600
_cell_angle_alpha                 89.117526
_cell_angle_beta                  89.994602
_cell_angle_gamma                 92.783240
_cell_volume                      2992.580401
_symmetry_space_group_name_H-M    P1
_symmetry_Int_Tables_number       1
loop_
    _symmetry_equiv_pos_site_id
    _symmetry_equiv_pos_as_xyz
    1  x,y,z
loop_
    _atom_site_type_symbol
    _atom_site_label
    _atom_site_fract_x
    _atom_site_fract_y
    _atom_site_fract_z
    _atom_type_partial_charge
    O   O1   0.496045  0.417108  0.607167  -0.754642
    O   O2   0.512183  0.562098  0.613744  -0.637993
    C   C1   0.502730  0.487089  0.646971  0.826799
    O   O3   0.677744  0.417040  0.490740  -0.701716
    O   O4   0.695230  0.561374  0.499065  -0.576261
    C   C2   0.743857  0.487799  0.496739  0.837744
    Zn  Zn1  0.493824  0.400380  0.489846  1.073070
    Zn  Zn2  0.518326  0.591014  0.497874  0.921737
    O   O5   0.498714  0.429596  0.374044  -0.702401
    O   O6   0.518656  0.573187  0.380718  -0.617448
    O   O7   0.316893  0.430302  0.490563  -0.623862
    O   O8   0.334515  0.573923  0.496968  -0.614433
    C   C3   0.511619  0.503841  0.340550  0.731433
    C   C4   0.267585  0.503461  0.496737  0.701171
    H   H1   0.890805  0.609644  0.449941  0.082503
    C   C5   0.882962  0.362229  0.584947  -0.306982
    H   H2   0.785789  0.354815  0.588825  0.147894
    C   C6   0.946477  0.305308  0.627622  -0.103331
    H   H3   0.898191  0.255170  0.659811  0.092700
    C   C7   0.070269  0.314957  0.633072  -0.010374
    H   H4   0.119767  0.272787  0.669977  0.080435
    C   C8   0.130971  0.380828  0.594909  -0.434881
    H   H5   0.226171  0.389934  0.608570  0.199452
    C   C9   0.069745  0.436313  0.546794  0.358739
    C   C10  0.942728  0.427663  0.543061  0.252491
    C   C11  0.878223  0.487626  0.501916  -0.310776
    C   C12  0.940858  0.559081  0.474637  0.104289
    C   C13  0.064938  0.570857  0.482481  -0.380424
    C   C14  0.132976  0.504515  0.509395  -0.115681
    C   C15  0.498808  0.481113  0.732680  -0.203658
    C   C16  0.473493  0.550477  0.776206  -0.026969
    C   C17  0.473032  0.546039  0.856875  -0.158725
    C   C18  0.497527  0.471222  0.895010  0.584755
    C   C19  0.519578  0.401499  0.851329  -0.404082
    C   C20  0.520048  0.406123  0.770682  0.044701
    C   C21  0.419408  0.463511  0.134025  -0.428583
    C   C22  0.434378  0.455961  0.214090  0.046580
    C   C23  0.489878  0.524183  0.092972  0.506318
    N   N1   0.500731  0.464029  0.977655  -0.304089
    N   N2   0.486610  0.532048  0.010500  -0.253359
    C   C24  0.513787  0.509235  0.254505  -0.066980
    H   H6   0.376772  0.411510  0.246705  0.090521
    H   H7   0.538041  0.342891  0.880623  0.150354
    H   H8   0.539598  0.350832  0.738029  0.097923
    C   C25  0.584287  0.569821  0.213180  -0.073783
    C   C26  0.569508  0.577281  0.133103  -0.233218
    H   H9   0.453058  0.602397  0.887808  0.083942
    H   H10  0.625274  0.622769  0.099927  0.118713
    H   H11  0.453340  0.609155  0.747726  0.087119
    N   N3   0.535974  0.716850  0.501237  -0.026674
    C   C27  0.485658  0.766548  0.445456  -0.058460
    C   C28  0.491448  0.852651  0.451723  -0.171369
    C   C29  0.548525  0.890971  0.514357  0.575013
    C   C30  0.606137  0.841520  0.567996  -0.437629
    C   C31  0.600811  0.754478  0.560245  0.017063
    C   C32  0.548635  0.146776  0.536833  -0.308215
    C   C33  0.543039  0.233226  0.538125  0.005988
    C   C34  0.485321  0.102132  0.479976  0.640195
    N   N4   0.549752  0.979273  0.523786  -0.209537
    N   N5   0.486960  0.013899  0.473376  -0.297496
    N   N6   0.475644  0.274849  0.485615  -0.067427
    H   H12  0.595181  0.267866  0.581498  0.181876
    H   H13  0.604257  0.116675  0.580079  0.154132
    C   C35  0.410949  0.231133  0.430909  -0.069615
    C   C36  0.417105  0.145245  0.427229  -0.328710
    H   H14  0.448903  0.887932  0.405631  0.101931
    H   H15  0.365707  0.110797  0.383248  0.149487
    C   C37  0.680371  0.623281  0.250116  0.734548
    O   O9   0.735072  0.598043  0.307210  -0.547345
    O   O10  0.714921  0.697855  0.216711  -0.375994
    C   C38  0.807469  0.747504  0.247872  0.194509
    H   H16  0.820531  0.805729  0.211871  0.023856
    H   H17  0.893119  0.713521  0.247802  0.016479
    H   H18  0.783981  0.764531  0.308548  0.011013
    C   C39  0.677412  0.882663  0.630817  0.794057
    O   O11  0.665650  0.858228  0.698493  -0.504698
    O   O12  0.752337  0.950034  0.614017  -0.387106
    C   C40  0.817686  0.990555  0.671734  0.058813
    H   H19  0.873224  0.043647  0.645406  0.066517
    H   H20  0.879054  0.946387  0.700634  0.065574
    H   H21  0.754704  0.015412  0.715453  0.040726
    C   C41  0.684888  0.706648  0.608025  0.722225
    O   O13  0.785428  0.693897  0.582052  -0.476684
    O   O14  0.659658  0.688370  0.683766  -0.261954
    C   C42  0.745541  0.654369  0.731357  0.097882
    H   H22  0.769931  0.592512  0.708747  0.003167
    H   H23  0.708351  0.645850  0.791396  0.041992
    H   H24  0.827795  0.697378  0.733662  0.041388
    C   C43  0.331579  0.271211  0.374254  0.849264
    O   O15  0.342247  0.256101  0.304921  -0.528716
    O   O16  0.232439  0.309252  0.399456  -0.376732
    C   C44  0.143692  0.332750  0.348296  0.146995
    H   H25  0.069729  0.361102  0.381334  0.014218
    H   H26  0.105366  0.276866  0.317245  0.024574
    H   H27  0.182088  0.379736  0.305475  0.044909
    C   C45  0.433013  0.734911  0.371851  0.787082
    O   O17  0.465487  0.768964  0.310408  -0.550788
    O   O18  0.339564  0.677255  0.371363  -0.160654
    C   C46  0.279583  0.658292  0.302878  -0.088961
    H   H28  0.209636  0.607061  0.313999  0.062660
    H   H29  0.344396  0.637397  0.258507  0.050318
    H   H30  0.234665  0.714537  0.280202  0.083238
    C   C47  0.114040  0.657710  0.470619  0.962697
    O   O19  0.183584  0.689262  0.518648  -0.579317
    O   O20  0.063091  0.707360  0.416351  -0.428766
    C   C48  0.086448  0.792734  0.415163  0.125623
    H   H31  0.036325  0.821018  0.365854  0.035398
    H   H32  0.185205  0.807488  0.407186  -0.024546
    H   H33  0.055449  0.819649  0.470798  0.026166
    C   C49  0.320955  0.411822  0.097235  0.732589
    O   O21  0.269813  0.437041  0.038710  -0.473703
    O   O22  0.281579  0.338716  0.131502  -0.263063
    C   C50  0.187457  0.290741  0.100066  -0.119506
    H   H34  0.170213  0.233562  0.136975  0.115968
    H   H35  0.211686  0.271769  0.040070  0.083079
    H   H36  0.103905  0.326999  0.098349  0.063728
