data_DB0-m3_o11_o29_f0_pcu.sym.88_repeat
_audit_creation_date              2024-02-23
_audit_creation_method            'Materials Studio'
_symmetry_space_group_name_H-M    'P1'
_symmetry_Int_Tables_number       1
_symmetry_cell_setting            triclinic
loop_
_symmetry_equiv_pos_as_xyz
  x,y,z
_cell_length_a                    27.5486
_cell_length_b                    11.1381
_cell_length_c                    9.8932
_cell_angle_alpha                 89.9974
_cell_angle_beta                  89.9930
_cell_angle_gamma                 89.9937
loop_
_atom_site_label
_atom_site_type_symbol
_atom_site_fract_x
_atom_site_fract_y
_atom_site_fract_z
_atom_site_U_iso_or_equiv
_atom_site_adp_type
_atom_site_occupancy
O1     O     0.50812   0.31798   0.60965   0.00000  Uiso   1.00
O2     O     0.50138   0.31683   0.37716   0.00000  Uiso   1.00
C1     C     0.50491   0.26138   0.49391   0.00000  Uiso   1.00
O3     O     0.43542   0.49529   0.63281   0.00000  Uiso   1.00
O4     O     0.42791   0.49140   0.39985   0.00000  Uiso   1.00
C2     C     0.40916   0.49196   0.52224   0.00000  Uiso   1.00
Zn1    Zn    0.50874   0.49646   0.64855   0.00000  Uiso   1.00
Zn2    Zn    0.49845   0.49597   0.34185   0.00000  Uiso   1.00
O5     O     0.50639   0.67545   0.61344   0.00000  Uiso   1.00
O6     O     0.49888   0.67472   0.38068   0.00000  Uiso   1.00
O7     O     0.57918   0.49970   0.59041   0.00000  Uiso   1.00
O8     O     0.57183   0.49800   0.35818   0.00000  Uiso   1.00
C3     C     0.50219   0.73099   0.49719   0.00000  Uiso   1.00
C4     C     0.59818   0.49958   0.46904   0.00000  Uiso   1.00
C5     C     0.17871   0.39249   0.58235   0.00000  Uiso   1.00
O9     O     0.20227   0.29524   0.62888   0.00000  Uiso   1.00
N1     N     0.20409   0.49123   0.54797   0.00000  Uiso   1.00
C6     C     0.18094   0.59025   0.50362   0.00000  Uiso   1.00
C7     C     0.28239   0.56750   0.62643   0.00000  Uiso   1.00
C8     C     0.33252   0.56673   0.62108   0.00000  Uiso   1.00
C9     C     0.32982   0.40568   0.46258   0.00000  Uiso   1.00
C10    C     0.27992   0.40564   0.46859   0.00000  Uiso   1.00
C11    C     0.25590   0.48772   0.54880   0.00000  Uiso   1.00
C12    C     0.10431   0.49049   0.52380   0.00000  Uiso   1.00
C13    C     0.12865   0.39103   0.57088   0.00000  Uiso   1.00
C14    C     0.10300   0.28940   0.60353   0.00000  Uiso   1.00
C15    C     0.13088   0.59098   0.49099   0.00000  Uiso   1.00
C16    C     0.35629   0.48797   0.53596   0.00000  Uiso   1.00
H1     H     0.34803   0.33989   0.40082   0.00000  Uiso   1.00
H2     H     0.25970   0.34258   0.40753   0.00000  Uiso   1.00
H3     H     0.12113   0.20908   0.63817   0.00000  Uiso   1.00
C17    C     0.65135   0.49937   0.45946   0.00000  Uiso   1.00
C18    C     0.97712   0.38913   0.53777   0.00000  Uiso   1.00
C19    C     0.98027   0.58451   0.43306   0.00000  Uiso   1.00
C20    C     0.95380   0.48622   0.47808   0.00000  Uiso   1.00
C21    C     0.94879   0.29585   0.58878   0.00000  Uiso   1.00
C22    C     0.89920   0.29726   0.57656   0.00000  Uiso   1.00
C23    C     0.87636   0.39156   0.51374   0.00000  Uiso   1.00
C24    C     0.90350   0.48543   0.46425   0.00000  Uiso   1.00
C25    C     0.87968   0.57903   0.40207   0.00000  Uiso   1.00
C26    C     0.82950   0.57876   0.39269   0.00000  Uiso   1.00
N2     N     0.80362   0.48713   0.44468   0.00000  Uiso   1.00
C27    C     0.82631   0.39359   0.50346   0.00000  Uiso   1.00
C28    C     0.72841   0.49440   0.57102   0.00000  Uiso   1.00
C29    C     0.67858   0.49771   0.57692   0.00000  Uiso   1.00
C30    C     0.67481   0.49930   0.33573   0.00000  Uiso   1.00
C31    C     0.72498   0.49655   0.33016   0.00000  Uiso   1.00
C32    C     0.75189   0.49300   0.44804   0.00000  Uiso   1.00
O10    O     0.79998   0.30164   0.55205   0.00000  Uiso   1.00
C33    C     0.02788   0.38796   0.54648   0.00000  Uiso   1.00
C34    C     0.05406   0.48912   0.50872   0.00000  Uiso   1.00
C35    C     0.03048   0.58871   0.45542   0.00000  Uiso   1.00
C36    C     0.05340   0.28748   0.59137   0.00000  Uiso   1.00
H4     H     0.66154   0.49819   0.67525   0.00000  Uiso   1.00
H5     H     0.74909   0.49337   0.66388   0.00000  Uiso   1.00
H6     H     0.87883   0.22330   0.61866   0.00000  Uiso   1.00
H7     H     0.96323   0.22075   0.64372   0.00000  Uiso   1.00
H8     H     0.03666   0.20289   0.61462   0.00000  Uiso   1.00
O11    O     0.20684   0.68699   0.46639   0.00000  Uiso   1.00
C37    C     0.10735   0.69160   0.44457   0.00000  Uiso   1.00
H9     H     0.35297   0.63083   0.68014   0.00000  Uiso   1.00
H10    H     0.26400   0.63126   0.69100   0.00000  Uiso   1.00
H11    H     0.12704   0.77275   0.42068   0.00000  Uiso   1.00
C38    C     0.95565   0.67604   0.36561   0.00000  Uiso   1.00
C39    C     0.90610   0.67321   0.35084   0.00000  Uiso   1.00
O12    O     0.80626   0.67242   0.33664   0.00000  Uiso   1.00
C40    C     0.05791   0.69089   0.42725   0.00000  Uiso   1.00
H12    H     0.97344   0.75126   0.31906   0.00000  Uiso   1.00
H13    H     0.65435   0.50059   0.24256   0.00000  Uiso   1.00
H14    H     0.88862   0.74671   0.29877   0.00000  Uiso   1.00
H15    H     0.74303   0.49497   0.23313   0.00000  Uiso   1.00
H16    H     0.04246   0.77456   0.39456   0.00000  Uiso   1.00
C41    C     0.50059   0.92911   0.38824   0.00000  Uiso   1.00
C42    C     0.50181   0.86249   0.50087   0.00000  Uiso   1.00
H17    H     0.49920   0.88469   0.29089   0.00000  Uiso   1.00
H18    H     0.50270   0.90239   0.60018   0.00000  Uiso   1.00
C43    C     0.50064   0.06218   0.38760   0.00000  Uiso   1.00
C44    C     0.50559   0.12983   0.49870   0.00000  Uiso   1.00
H19    H     0.49670   0.10564   0.29039   0.00000  Uiso   1.00
H20    H     0.51029   0.09078   0.59761   0.00000  Uiso   1.00
C45    C     0.50931   0.58857   0.92365   0.00000  Uiso   1.00
N3     N     0.51700   0.49591   0.84947   0.00000  Uiso   1.00
H21    H     0.50110   0.67431   0.87736   0.00000  Uiso   1.00
H22    H     0.52909   0.42085   0.89980   0.00000  Uiso   1.00
C46    C     0.51368   0.58084   0.07215   0.00000  Uiso   1.00
N4     N     0.49165   0.49871   0.14018   0.00000  Uiso   1.00
H23    H     0.53515   0.64760   0.12478   0.00000  Uiso   1.00
N5     N     0.45776   0.43587   0.06615   0.00000  Uiso   1.00
C47    C     0.45829   0.30733   0.07727   0.00000  Uiso   1.00
C48    C     0.41260   0.26352   0.14503   0.00000  Uiso   1.00
O13    O     0.37217   0.30642   0.07471   0.00000  Uiso   1.00
C49    C     0.36964   0.42991   0.09964   0.00000  Uiso   1.00
C50    C     0.41243   0.49580   0.03825   0.00000  Uiso   1.00
H24    H     0.49090   0.27776   0.13312   0.00000  Uiso   1.00
H25    H     0.45991   0.26820   0.97429   0.00000  Uiso   1.00
H26    H     0.41192   0.29120   0.25229   0.00000  Uiso   1.00
H27    H     0.41228   0.16399   0.14206   0.00000  Uiso   1.00
H28    H     0.36731   0.44924   0.20858   0.00000  Uiso   1.00
H29    H     0.33599   0.46542   0.05286   0.00000  Uiso   1.00
H30    H     0.41324   0.58843   0.07935   0.00000  Uiso   1.00
H31    H     0.40714   0.50038   0.92726   0.00000  Uiso   1.00
