# Generated by REPEAT Assigner based on pymatgen
data_DB0-m2_o7_o16_f0_pcu.sym.99_sqe
_audit_creation_date              2022-05-24
_audit_creation_method            REPEAT_Assigner
_cell_length_a                    13.499180
_cell_length_b                    16.225948
_cell_length_c                    17.669719
_cell_angle_alpha                 89.975462
_cell_angle_beta                  89.988472
_cell_angle_gamma                 73.734404
_cell_volume                      3715.406587
_symmetry_space_group_name_H-M    P1
_symmetry_Int_Tables_number       1
loop_
    _symmetry_equiv_pos_site_id
    _symmetry_equiv_pos_as_xyz
    1  x,y,z
loop_
    _atom_site_type_symbol
    _atom_site_label
    _atom_site_fract_x
    _atom_site_fract_y
    _atom_site_fract_z
    _atom_type_partial_charge
    O   O1   0.493186  0.431440  0.620986  -0.431691
    O   O2   0.478714  0.575962  0.622249  -0.518590
    C   C1   0.481938  0.504002  0.657419  0.585158
    O   O3   0.651526  0.399925  0.522832  -0.656254
    O   O4   0.645863  0.542475  0.526624  -0.592493
    C   C2   0.697479  0.461230  0.524352  0.748778
    Cu  Cu1  0.503090  0.419626  0.510887  0.852686
    Cu  Cu2  0.495947  0.585982  0.513430  0.828948
    O   O5   0.518288  0.430078  0.401862  -0.590815
    O   O6   0.508765  0.573596  0.403377  -0.572008
    O   O7   0.352704  0.462929  0.504014  -0.603239
    O   O8   0.347721  0.605463  0.504071  -0.631250
    C   C3   0.517071  0.501613  0.367228  0.648977
    C   C4   0.302499  0.544055  0.496364  0.790124
    C   C5   0.040812  0.643940  0.412277  -0.387768
    H   H1   0.003589  0.697098  0.376403  0.248188
    C   C6   0.191337  0.565473  0.479122  -0.309998
    C   C7   0.856281  0.368151  0.577513  -0.091519
    C   C8   0.959238  0.349496  0.593598  -0.137285
    C   C9   0.017627  0.400213  0.566207  -0.124057
    C   C10  0.974586  0.470177  0.519045  0.014314
    C   C11  0.870694  0.486587  0.500664  0.283873
    C   C12  0.032180  0.523599  0.489290  -0.067040
    C   C13  0.985045  0.590243  0.440155  0.276794
    C   C14  0.882904  0.601471  0.418011  -0.160568
    C   C15  0.828480  0.549052  0.447417  -0.356708
    C   C16  0.135620  0.513169  0.508428  -0.043371
    C   C17  0.143966  0.631225  0.430075  0.178006
    C   C18  0.810389  0.437987  0.532920  -0.209504
    H   H2   0.176232  0.465979  0.548303  0.114708
    H   H3   0.811465  0.328849  0.601821  0.115777
    H   H4   0.097218  0.380879  0.582781  0.096802
    H   H5   0.994131  0.295420  0.629480  0.110899
    H   H6   0.752117  0.556727  0.425506  0.177459
    C   C19  0.518877  0.429654  0.166728  -0.239367
    H   H7   0.520221  0.371680  0.136248  0.141133
    C   C20  0.522619  0.428028  0.244621  -0.068074
    H   H8   0.524698  0.368930  0.273696  0.117115
    C   C21  0.519931  0.501894  0.284416  -0.083758
    C   C22  0.514535  0.576989  0.245788  -0.033657
    H   H9   0.510010  0.635600  0.276099  0.104288
    C   C23  0.511196  0.578555  0.167838  -0.262896
    H   H10  0.506567  0.637942  0.138337  0.133743
    C   C24  0.511974  0.505078  0.128151  0.375552
    C   C25  0.503871  0.506997  0.047070  -0.261741
    C   C26  0.497253  0.508217  0.978983  -0.037760
    C   C27  0.450312  0.449743  0.862224  -0.157996
    H   H11  0.422097  0.406084  0.896788  0.129144
    C   C28  0.445555  0.446161  0.784121  -0.005938
    C   C29  0.479657  0.504952  0.740940  -0.098692
    C   C30  0.513713  0.567577  0.777506  -0.181677
    H   H12  0.537345  0.613935  0.743619  0.140167
    C   C31  0.520411  0.569531  0.855752  0.131176
    C   C32  0.489892  0.509191  0.897774  -0.002548
    C   C33  0.450650  0.182501  0.456376  -0.285723
    H   H13  0.405262  0.160126  0.414817  0.151105
    C   C34  0.451157  0.267221  0.457118  0.060856
    H   H14  0.406814  0.310967  0.415689  0.111951
    N   N1   0.507244  0.295491  0.509061  -0.103483
    C   C35  0.564168  0.241187  0.560543  0.123344
    H   H15  0.610582  0.264125  0.601117  0.104607
    C   C36  0.564136  0.156134  0.561793  -0.316693
    H   H16  0.608220  0.112588  0.603610  0.152898
    C   C37  0.506580  0.126785  0.509414  0.367794
    C   C38  0.503440  0.039170  0.510760  -0.146881
    C   C39  0.500684  0.965623  0.512297  -0.191752
    C   C40  0.442869  0.848606  0.459094  -0.356727
    H   H17  0.401272  0.892010  0.415788  0.163155
    C   C41  0.442331  0.763533  0.460149  0.172387
    H   H18  0.401812  0.739823  0.416423  0.062175
    N   N2   0.492853  0.709942  0.514951  -0.148287
    C   C42  0.547193  0.738041  0.567965  0.083229
    H   H19  0.589876  0.694687  0.610581  0.110321
    C   C43  0.549310  0.822406  0.568536  -0.290106
    H   H20  0.591710  0.844247  0.612203  0.152054
    C   C44  0.497076  0.878139  0.513698  0.406148
    C   C45  0.203442  0.687072  0.395155  0.296401
    O   O9   0.148261  0.736156  0.336253  -0.624912
    H   H21  0.277256  0.646836  0.371616  0.033017
    H   H22  0.218609  0.730635  0.439195  -0.016996
    H   H23  0.151990  0.795018  0.346805  0.359950
    C   C46  0.398093  0.381654  0.749904  0.195316
    O   O10  0.313235  0.423129  0.705573  -0.500549
    H   H24  0.371654  0.345340  0.795005  -0.005853
    H   H25  0.455211  0.333899  0.715589  0.001115
    H   H26  0.254492  0.438074  0.741382  0.341344
    C   C47  0.561749  0.634583  0.895634  0.250110
    O   O11  0.588478  0.689789  0.844085  -0.577386
    H   H27  0.631602  0.600777  0.928075  -0.021136
    H   H28  0.503408  0.673203  0.935534  0.034009
    H   H29  0.664029  0.678332  0.849944  0.359279
    C   C48  0.827744  0.667712  0.361450  0.418353
    O   O12  0.812486  0.750025  0.390999  -0.670640
    H   H30  0.751052  0.659450  0.347521  -0.060322
    H   H31  0.871444  0.660571  0.307656  -0.011908
    H   H32  0.747516  0.760720  0.420204  0.392886
