# Generated by REPEAT Assigner based on pymatgen
data_DB0-m3_o7_o27_f0_pcu.sym.65
_audit_creation_date              2022-05-24
_audit_creation_method            REPEAT_Assigner
_cell_length_a                    17.766009
_cell_length_b                    16.729148
_cell_length_c                    19.323740
_cell_angle_alpha                 90.000000
_cell_angle_beta                  90.006102
_cell_angle_gamma                 90.000000
_cell_volume                      5743.212356
_symmetry_space_group_name_H-M    P1
_symmetry_Int_Tables_number       1
loop_
    _symmetry_equiv_pos_site_id
    _symmetry_equiv_pos_as_xyz
    1  x,y,z
loop_
    _atom_site_type_symbol
    _atom_site_label
    _atom_site_fract_x
    _atom_site_fract_y
    _atom_site_fract_z
    _atom_type_partial_charge
    O   O1   0.387894  0.568765  0.500246  -0.670881
    O   O2   0.612159  0.430775  0.500097  -0.557666
    O   O3   0.612106  0.568765  0.499754  -0.670893
    O   O4   0.387841  0.430775  0.499904  -0.557641
    C   C1   0.352693  0.499833  0.500354  0.640015
    C   C2   0.647307  0.499833  0.499646  0.640059
    O   O5   0.500577  0.568870  0.396872  -0.566655
    O   O6   0.499006  0.430904  0.603046  -0.651095
    O   O7   0.499423  0.568870  0.603128  -0.566669
    O   O8   0.500994  0.430904  0.396954  -0.651089
    C   C3   0.501347  0.499771  0.364543  0.609817
    C   C4   0.498653  0.499771  0.635457  0.609831
    Zn  Zn1  0.500000  0.591194  0.500000  1.046711
    Zn  Zn2  0.500000  0.408476  0.500000  1.027360
    C   C5   0.517036  0.568498  0.252253  -0.128911
    C   C6   0.509048  0.428724  0.747105  -0.199881
    C   C7   0.482964  0.568498  0.747747  -0.128895
    C   C8   0.490952  0.428724  0.252895  -0.199934
    H   H1   0.528747  0.623711  0.278994  0.088528
    H   H2   0.519752  0.373455  0.719971  0.111440
    H   H3   0.471253  0.623711  0.721006  0.088536
    H   H4   0.480248  0.373455  0.280029  0.111456
    C   C9   0.516596  0.568209  0.180930  0.191887
    C   C10  0.508720  0.428176  0.818444  0.170757
    C   C11  0.483404  0.568209  0.819071  0.191856
    C   C12  0.491280  0.428176  0.181556  0.170792
    H   H5   0.527470  0.623508  0.153859  0.002270
    H   H6   0.519257  0.372462  0.845002  0.020372
    H   H7   0.472530  0.623508  0.846141  0.002279
    H   H8   0.480743  0.372462  0.154998  0.020369
    C   C13  0.503312  0.498112  0.145107  -0.570252
    C   C14  0.496688  0.498112  0.854893  -0.570216
    C   C15  0.502984  0.499100  0.288679  0.058084
    C   C16  0.497016  0.499100  0.711321  0.058045
    N   N1   0.500774  0.428536  0.034196  -0.349549
    N   N2   0.499025  0.567526  0.965813  -0.347010
    N   N3   0.499226  0.428536  0.965804  -0.349546
    N   N4   0.500975  0.567526  0.034187  -0.346990
    C   C17  0.498180  0.498036  0.930792  0.935153
    C   C18  0.501820  0.498036  0.069208  0.935158
    C   C19  0.846501  0.568303  0.517273  -0.175560
    C   C20  0.153337  0.432831  0.521046  -0.146187
    C   C21  0.153499  0.568303  0.482728  -0.175291
    C   C22  0.846663  0.432831  0.478954  -0.146338
    H   H9   0.876878  0.621467  0.532451  0.133476
    H   H10  0.122819  0.379791  0.536295  0.119082
    H   H11  0.123121  0.621467  0.467549  0.133380
    H   H12  0.877181  0.379791  0.463705  0.119125
    C   C23  0.768919  0.568396  0.517019  -0.133075
    C   C24  0.230938  0.432632  0.521087  -0.099039
    C   C25  0.231081  0.568396  0.482981  -0.133256
    C   C26  0.769062  0.432632  0.478913  -0.098954
    H   H13  0.739528  0.621937  0.532483  0.104265
    H   H14  0.260344  0.379359  0.537271  0.098100
    H   H15  0.260472  0.621937  0.467517  0.104312
    H   H16  0.739656  0.379359  0.462729  0.098094
    C   C27  0.729773  0.500203  0.498624  0.003291
    C   C28  0.270227  0.500203  0.501376  0.003419
    C   C29  0.885376  0.500445  0.498587  0.242782
    C   C30  0.114624  0.500445  0.501413  0.242501
    C   C31  0.966102  0.500282  0.499547  -0.164332
    C   C32  0.033898  0.500282  0.500453  -0.164142
    C   C33  0.448391  0.836685  0.462556  -0.514944
    C   C34  0.542042  0.163069  0.546507  -0.520144
    C   C35  0.551609  0.836685  0.537444  -0.514931
    C   C36  0.457958  0.163069  0.453494  -0.519895
    H   H17  0.406504  0.869944  0.434122  0.208719
    H   H18  0.574206  0.129906  0.584238  0.209525
    H   H19  0.593496  0.869943  0.565878  0.208720
    H   H20  0.425794  0.129905  0.415763  0.209455
    C   C37  0.450774  0.754157  0.459382  0.409464
    C   C38  0.544965  0.245612  0.544611  0.419050
    C   C39  0.549226  0.754157  0.540618  0.409375
    C   C40  0.455035  0.245612  0.455389  0.418867
    N   N5   0.500000  0.711411  0.500000  -0.367800
    N   N6   0.500000  0.288286  0.500000  -0.374587
    C   C41  0.500000  0.878141  0.500000  0.520513
    C   C42  0.500000  0.121609  0.500000  0.518940
    C   C43  0.500000  0.963872  0.500000  -0.191553
    C   C44  0.500000  0.035877  0.500000  -0.185415
    C   C45  0.394859  0.717530  0.410609  -0.292912
    C   C46  0.407629  0.746272  0.336849  -0.031139
    C   C47  0.358651  0.698224  0.287745  0.323971
    C   C48  0.368610  0.728694  0.214474  -0.370800
    H   H21  0.337432  0.735124  0.427061  0.110023
    H   H22  0.397620  0.652793  0.409202  0.138665
    H   H23  0.467714  0.738526  0.323142  0.027178
    H   H24  0.392228  0.810076  0.331329  0.005485
    H   H25  0.298769  0.704590  0.302966  -0.058564
    H   H26  0.374459  0.634202  0.289828  -0.067704
    H   H27  0.348199  0.791199  0.210883  0.074581
    H   H28  0.335725  0.690632  0.178513  0.076477
    H   H29  0.428909  0.726427  0.199900  0.083038
    C   C49  0.598605  0.282264  0.595477  -0.296082
    C   C50  0.679030  0.256189  0.580754  -0.022144
    C   C51  0.732779  0.303738  0.625817  0.304858
    C   C52  0.812617  0.274598  0.614682  -0.276070
    H   H30  0.582845  0.262553  0.648306  0.112936
    H   H31  0.598256  0.347080  0.594833  0.127904
    H   H32  0.691996  0.266757  0.525444  0.022111
    H   H33  0.686764  0.191952  0.592580  0.002706
    H   H34  0.717469  0.295720  0.681013  -0.062565
    H   H35  0.729423  0.368071  0.612520  -0.063089
    H   H36  0.817776  0.211881  0.632645  0.048161
    H   H37  0.851964  0.312777  0.644548  0.053089
    H   H38  0.827079  0.277904  0.558965  0.051829
    C   C53  0.605141  0.717530  0.589391  -0.292799
    C   C54  0.592371  0.746272  0.663151  -0.031010
    C   C55  0.641349  0.698224  0.712255  0.323654
    C   C56  0.631390  0.728694  0.785526  -0.370611
    H   H39  0.662568  0.735124  0.572939  0.110003
    H   H40  0.602380  0.652793  0.590798  0.138655
    H   H41  0.532286  0.738526  0.676858  0.027143
    H   H42  0.607772  0.810076  0.668671  0.005460
    H   H43  0.701231  0.704590  0.697034  -0.058512
    H   H44  0.625541  0.634202  0.710172  -0.067636
    H   H45  0.651800  0.791199  0.789117  0.074558
    H   H46  0.664275  0.690632  0.821487  0.076446
    H   H47  0.571091  0.726427  0.800100  0.083014
    C   C57  0.401395  0.282264  0.404523  -0.295918
    C   C58  0.320970  0.256189  0.419246  -0.022364
    C   C59  0.267221  0.303738  0.374184  0.305286
    C   C60  0.187383  0.274598  0.385318  -0.276245
    H   H48  0.417155  0.262553  0.351694  0.112895
    H   H49  0.401744  0.347080  0.405167  0.127869
    H   H50  0.308004  0.266757  0.474556  0.022140
    H   H51  0.313236  0.191952  0.407420  0.002717
    H   H52  0.282531  0.295720  0.318987  -0.062658
    H   H53  0.270577  0.368071  0.387481  -0.063219
    H   H54  0.182224  0.211881  0.367355  0.048174
    H   H55  0.148036  0.312777  0.355452  0.053110
    H   H56  0.172920  0.277904  0.441035  0.051893
