data_DB0-m3_o11_o29_f0_pcu.sym.47_repeat
_audit_creation_date              2024-02-23
_audit_creation_method            'Materials Studio'
_symmetry_space_group_name_H-M    'P1'
_symmetry_Int_Tables_number       1
_symmetry_cell_setting            triclinic
loop_
_symmetry_equiv_pos_as_xyz
  x,y,z
_cell_length_a                    27.6059
_cell_length_b                    11.1379
_cell_length_c                    9.9287
_cell_angle_alpha                 89.9974
_cell_angle_beta                  89.9930
_cell_angle_gamma                 89.9936
loop_
_atom_site_label
_atom_site_type_symbol
_atom_site_fract_x
_atom_site_fract_y
_atom_site_fract_z
_atom_site_U_iso_or_equiv
_atom_site_adp_type
_atom_site_occupancy
O1     O     0.50390   0.31926   0.60714   0.00000  Uiso   1.00
O2     O     0.50127   0.31943   0.37482   0.00000  Uiso   1.00
C1     C     0.50251   0.26336   0.49118   0.00000  Uiso   1.00
O3     O     0.43197   0.49816   0.61851   0.00000  Uiso   1.00
O4     O     0.42888   0.49870   0.38632   0.00000  Uiso   1.00
C2     C     0.40776   0.49821   0.50464   0.00000  Uiso   1.00
Zn1    Zn    0.50474   0.49774   0.64564   0.00000  Uiso   1.00
Zn2    Zn    0.50026   0.49866   0.33918   0.00000  Uiso   1.00
O5     O     0.50417   0.67677   0.60987   0.00000  Uiso   1.00
O6     O     0.50104   0.67742   0.37729   0.00000  Uiso   1.00
O7     O     0.57613   0.49711   0.59852   0.00000  Uiso   1.00
O8     O     0.57303   0.49939   0.36610   0.00000  Uiso   1.00
C3     C     0.50242   0.73304   0.49386   0.00000  Uiso   1.00
C4     C     0.59720   0.49775   0.48001   0.00000  Uiso   1.00
C5     C     0.17888   0.39213   0.48979   0.00000  Uiso   1.00
O9     O     0.20411   0.29043   0.47014   0.00000  Uiso   1.00
N1     N     0.20272   0.49518   0.51473   0.00000  Uiso   1.00
C6     C     0.17820   0.59792   0.53597   0.00000  Uiso   1.00
C7     C     0.27880   0.47401   0.39485   0.00000  Uiso   1.00
C8     C     0.32867   0.47562   0.39210   0.00000  Uiso   1.00
C9     C     0.33010   0.51866   0.62779   0.00000  Uiso   1.00
C10    C     0.28008   0.51909   0.62970   0.00000  Uiso   1.00
C11    C     0.25434   0.49613   0.51332   0.00000  Uiso   1.00
C12    C     0.10297   0.49472   0.50534   0.00000  Uiso   1.00
C13    C     0.12879   0.39040   0.48614   0.00000  Uiso   1.00
C14    C     0.10449   0.28510   0.46113   0.00000  Uiso   1.00
C15    C     0.12809   0.59916   0.53032   0.00000  Uiso   1.00
C16    C     0.35465   0.49744   0.50867   0.00000  Uiso   1.00
H1     H     0.34959   0.53643   0.72004   0.00000  Uiso   1.00
H2     H     0.26113   0.53604   0.72308   0.00000  Uiso   1.00
H3     H     0.12376   0.20225   0.44289   0.00000  Uiso   1.00
C17    C     0.65025   0.49591   0.47548   0.00000  Uiso   1.00
C18    C     0.97723   0.38665   0.48313   0.00000  Uiso   1.00
C19    C     0.97703   0.60277   0.49439   0.00000  Uiso   1.00
C20    C     0.95218   0.49471   0.48536   0.00000  Uiso   1.00
C21    C     0.95074   0.28018   0.48482   0.00000  Uiso   1.00
C22    C     0.90103   0.28140   0.48258   0.00000  Uiso   1.00
C23    C     0.87637   0.38847   0.47785   0.00000  Uiso   1.00
C24    C     0.90184   0.49470   0.47889   0.00000  Uiso   1.00
C25    C     0.87638   0.60091   0.47404   0.00000  Uiso   1.00
C26    C     0.82629   0.59955   0.46791   0.00000  Uiso   1.00
N2     N     0.80212   0.49461   0.46915   0.00000  Uiso   1.00
C27    C     0.82627   0.38975   0.47436   0.00000  Uiso   1.00
C28    C     0.72605   0.45602   0.58349   0.00000  Uiso   1.00
C29    C     0.67618   0.45764   0.58657   0.00000  Uiso   1.00
C30    C     0.67477   0.53247   0.36115   0.00000  Uiso   1.00
C31    C     0.72477   0.53302   0.35927   0.00000  Uiso   1.00
C32    C     0.75050   0.49448   0.47037   0.00000  Uiso   1.00
O10    O     0.80136   0.28610   0.47444   0.00000  Uiso   1.00
C33    C     0.02794   0.38736   0.48058   0.00000  Uiso   1.00
C34    C     0.05263   0.49469   0.49899   0.00000  Uiso   1.00
C35    C     0.02742   0.60204   0.51068   0.00000  Uiso   1.00
C36    C     0.05478   0.28322   0.45867   0.00000  Uiso   1.00
H4     H     0.65783   0.42669   0.67617   0.00000  Uiso   1.00
H5     H     0.74599   0.42593   0.67092   0.00000  Uiso   1.00
H6     H     0.88203   0.19662   0.48471   0.00000  Uiso   1.00
H7     H     0.96702   0.19283   0.49297   0.00000  Uiso   1.00
H8     H     0.03879   0.19805   0.43400   0.00000  Uiso   1.00
O11    O     0.20276   0.70008   0.55867   0.00000  Uiso   1.00
C37    C     0.10301   0.70434   0.54965   0.00000  Uiso   1.00
H9     H     0.34689   0.45826   0.29776   0.00000  Uiso   1.00
H10    H     0.25886   0.45668   0.30317   0.00000  Uiso   1.00
H11    H     0.12162   0.78726   0.57227   0.00000  Uiso   1.00
C38    C     0.95069   0.70923   0.48554   0.00000  Uiso   1.00
C39    C     0.90109   0.70799   0.47519   0.00000  Uiso   1.00
O12    O     0.80137   0.70316   0.46473   0.00000  Uiso   1.00
C40    C     0.05340   0.70612   0.53972   0.00000  Uiso   1.00
H12    H     0.96721   0.79655   0.48168   0.00000  Uiso   1.00
H13    H     0.65520   0.56309   0.27336   0.00000  Uiso   1.00
H14    H     0.88221   0.79275   0.46862   0.00000  Uiso   1.00
H15    H     0.74374   0.56275   0.27002   0.00000  Uiso   1.00
H16    H     0.03660   0.79125   0.56019   0.00000  Uiso   1.00
C41    C     0.50185   0.93118   0.38511   0.00000  Uiso   1.00
C42    C     0.50160   0.86457   0.49754   0.00000  Uiso   1.00
H17    H     0.50249   0.88672   0.28808   0.00000  Uiso   1.00
H18    H     0.50034   0.90441   0.59636   0.00000  Uiso   1.00
C43    C     0.50112   0.06431   0.38416   0.00000  Uiso   1.00
C44    C     0.50299   0.13189   0.49558   0.00000  Uiso   1.00
H19    H     0.49939   0.10792   0.28673   0.00000  Uiso   1.00
H20    H     0.50531   0.09283   0.59474   0.00000  Uiso   1.00
C45    C     0.52813   0.57634   0.92504   0.00000  Uiso   1.00
N3     N     0.50880   0.49710   0.84700   0.00000  Uiso   1.00
H21    H     0.49646   0.42060   0.89333   0.00000  Uiso   1.00
C46    C     0.52922   0.56098   0.07297   0.00000  Uiso   1.00
N4     N     0.49703   0.50108   0.13792   0.00000  Uiso   1.00
H22    H     0.55731   0.60720   0.12877   0.00000  Uiso   1.00
H23    H     0.46739   0.47146   0.08500   0.00000  Uiso   1.00
C47    C     0.55412   0.67974   0.87015   0.00000  Uiso   1.00
C48    C     0.60066   0.66622   0.82215   0.00000  Uiso   1.00
C49    C     0.62653   0.76478   0.77872   0.00000  Uiso   1.00
C50    C     0.60622   0.87789   0.78610   0.00000  Uiso   1.00
C51    C     0.63380   0.98526   0.74031   0.00000  Uiso   1.00
C52    C     0.56025   0.89186   0.83830   0.00000  Uiso   1.00
C53    C     0.53436   0.79306   0.88107   0.00000  Uiso   1.00
H24    H     0.61728   0.57847   0.82118   0.00000  Uiso   1.00
H25    H     0.66290   0.75269   0.74070   0.00000  Uiso   1.00
H26    H     0.66994   0.95850   0.70200   0.00000  Uiso   1.00
H27    H     0.63846   0.04809   0.82599   0.00000  Uiso   1.00
H28    H     0.61346   0.03085   0.65868   0.00000  Uiso   1.00
H29    H     0.54448   0.98044   0.84610   0.00000  Uiso   1.00
H30    H     0.49855   0.80449   0.92320   0.00000  Uiso   1.00
