# Generated by REPEAT Assigner based on pymatgen
data_DB0-m3_o24_o115_f0_fsc.sym.2
_audit_creation_date              2022-05-24
_audit_creation_method            REPEAT_Assigner
_cell_length_a                    9.282768
_cell_length_b                    16.381011
_cell_length_c                    16.672921
_cell_angle_alpha                 90.000000
_cell_angle_beta                  99.190173
_cell_angle_gamma                 90.000000
_cell_volume                      2502.759076
_symmetry_space_group_name_H-M    P1
_symmetry_Int_Tables_number       1
loop_
    _symmetry_equiv_pos_site_id
    _symmetry_equiv_pos_as_xyz
    1  x,y,z
loop_
    _atom_site_type_symbol
    _atom_site_label
    _atom_site_fract_x
    _atom_site_fract_y
    _atom_site_fract_z
    _atom_type_partial_charge
    H   H1   0.159140  0.916817  0.736116  0.161380
    H   H2   0.840755  0.083157  0.264082  0.161350
    H   H3   0.836306  0.922209  0.264644  0.156484
    H   H4   0.163704  0.077766  0.735582  0.156288
    C   C1   0.015089  0.259187  0.959246  -0.274997
    C   C2   0.984713  0.740809  0.040921  -0.275274
    C   C3   0.000184  0.259555  0.039893  -0.289565
    C   C4   0.999637  0.740442  0.960280  -0.289378
    C   C5   0.991379  0.178799  0.062604  0.453854
    C   C6   0.008472  0.821198  0.937576  0.453748
    C   C7   0.019770  0.178192  0.936670  0.448638
    C   C8   0.980063  0.821803  0.063501  0.449517
    N   N1   0.004413  0.129159  0.999694  -0.572288
    N   N2   0.995449  0.870838  0.000485  -0.572561
    C   C9   0.971247  0.153385  0.136339  -0.325907
    C   C10  0.028588  0.846609  0.863841  -0.325777
    C   C11  0.037764  0.151917  0.862873  -0.312308
    C   C12  0.962093  0.848070  0.137299  -0.314205
    C   C13  0.952409  0.067085  0.157489  0.265792
    C   C14  0.047443  0.932903  0.842690  0.266217
    C   C15  0.051330  0.065063  0.842227  0.257879
    C   C16  0.948598  0.934923  0.157970  0.260247
    C   C17  0.886120  0.043932  0.222328  -0.251473
    C   C18  0.113780  0.956048  0.777867  -0.251551
    C   C19  0.116198  0.039871  0.777572  -0.246151
    C   C20  0.883769  0.960108  0.222641  -0.246889
    N   N3   0.992139  0.000374  0.118714  -0.213146
    N   N4   0.007726  0.999618  0.881465  -0.212315
    H   H5   0.021347  0.313276  0.922991  0.138828
    H   H6   0.978429  0.686718  0.077168  0.138952
    H   H7   0.996561  0.313968  0.076032  0.143623
    H   H8   0.003225  0.686027  0.924140  0.143639
    H   H9   0.053020  0.999589  0.071580  0.229529
    H   H10  0.946806  0.000410  0.928581  0.229450
    C   C21  0.939178  0.793188  0.728240  -0.228994
    C   C22  0.060701  0.206820  0.271934  -0.230226
    C   C23  0.052497  0.794651  0.272823  -0.202415
    C   C24  0.947405  0.205329  0.727324  -0.202716
    H   H11  0.858310  0.841235  0.721077  0.118800
    H   H12  0.141582  0.158779  0.279088  0.119145
    H   H13  0.134960  0.841831  0.279138  0.116700
    H   H14  0.864961  0.158137  0.720985  0.116813
    C   C25  0.941007  0.736939  0.667224  -0.072136
    C   C26  0.058912  0.263082  0.332942  -0.071127
    C   C27  0.051296  0.738425  0.333942  -0.061674
    C   C28  0.948579  0.261591  0.666232  -0.061412
    C   C29  0.042453  0.674818  0.675959  -0.066358
    C   C30  0.957457  0.325198  0.324218  -0.066078
    C   C31  0.948384  0.677063  0.326221  -0.077286
    C   C32  0.051499  0.322953  0.673968  -0.077424
    C   C33  0.146679  0.671309  0.744944  -0.084430
    C   C34  0.853169  0.328681  0.255259  -0.084832
    C   C35  0.841573  0.674649  0.258308  -0.111421
    C   C36  0.158312  0.325341  0.741881  -0.111820
    H   H15  0.226949  0.622987  0.752237  0.112133
    H   H16  0.772881  0.376995  0.247981  0.112166
    H   H17  0.759807  0.627097  0.251885  0.106227
    H   H18  0.240093  0.372884  0.748317  0.106455
    C   C37  0.143614  0.727228  0.806783  -0.213219
    C   C38  0.856193  0.272749  0.193426  -0.213604
    C   C39  0.844144  0.730481  0.196236  -0.156760
    C   C40  0.155717  0.269501  0.803944  -0.156398
    H   H19  0.223985  0.723648  0.861267  0.117652
    H   H20  0.775780  0.276314  0.138958  0.117755
    H   H21  0.762180  0.727474  0.142403  0.106106
    H   H22  0.237663  0.272499  0.857785  0.105921
    C   C41  0.036811  0.786832  0.799337  0.294089
    C   C42  0.963020  0.213157  0.200852  0.295172
    C   C43  0.952797  0.789034  0.202464  0.247266
    C   C44  0.047075  0.210943  0.797698  0.247068
    H   H23  0.868965  0.256805  0.611773  0.089803
    H   H24  0.130909  0.743226  0.388399  0.089768
    H   H25  0.136490  0.257553  0.388157  0.107661
    H   H26  0.863453  0.742476  0.612000  0.107925
    O   O1   0.902178  0.581801  0.586510  -0.594169
    O   O2   0.097741  0.418207  0.413676  -0.594415
    O   O3   0.092549  0.585221  0.415068  -0.599325
    O   O4   0.907372  0.414788  0.585106  -0.599789
    O   O5   0.151143  0.587486  0.586942  -0.620063
    O   O6   0.848782  0.412539  0.413229  -0.619856
    O   O7   0.843259  0.586130  0.414016  -0.606245
    O   O8   0.156653  0.413894  0.586177  -0.606667
    C   C45  0.032310  0.611240  0.613787  0.632674
    C   C46  0.967611  0.388776  0.386389  0.632360
    C   C47  0.961019  0.612724  0.387826  0.660175
    C   C48  0.038893  0.387296  0.612363  0.660798
    Zn  Zn1  0.161848  0.501441  0.501491  0.954934
    Zn  Zn2  0.838071  0.498572  0.498689  0.954792
    C   C49  0.439102  0.550853  0.449847  0.106483
    C   C50  0.560818  0.449145  0.550330  0.109011
    C   C51  0.559931  0.567090  0.518235  0.169400
    C   C52  0.439982  0.432905  0.481948  0.167814
    C   C53  0.531040  0.480459  0.432330  0.234579
    C   C54  0.468890  0.519535  0.567850  0.233805
    N   N5   0.648681  0.496684  0.500632  -0.098525
    N   N6   0.351239  0.503319  0.499550  -0.096496
    C   C55  0.554759  0.456474  0.347581  -0.343086
    H   H27  0.449803  0.461513  0.305538  0.070679
    H   H28  0.635297  0.497775  0.326295  0.129469
    H   H29  0.591555  0.392141  0.347405  0.082230
    C   C56  0.445262  0.543462  0.652632  -0.343857
    H   H30  0.364828  0.502112  0.673944  0.129508
    H   H31  0.550283  0.538450  0.694634  0.070925
    H   H32  0.408389  0.607774  0.652860  0.082203
    C   C57  0.380885  0.614545  0.387343  -0.375921
    H   H33  0.301265  0.586786  0.338311  0.121372
    H   H34  0.331592  0.664931  0.417685  0.139768
    H   H35  0.473042  0.639484  0.360066  0.064365
    C   C58  0.619046  0.385507  0.612889  -0.375695
    H   H36  0.698718  0.413302  0.661873  0.121228
    H   H37  0.526903  0.360634  0.640221  0.064205
    H   H38  0.668275  0.335071  0.582587  0.139413
    C   C59  0.618080  0.651463  0.541856  -0.249029
    H   H39  0.671600  0.650685  0.606134  0.076347
    H   H40  0.694075  0.671819  0.501032  0.079606
    H   H41  0.525522  0.694928  0.536732  0.051011
    C   C60  0.381798  0.348525  0.458366  -0.248467
    H   H42  0.328320  0.349273  0.394079  0.076171
    H   H43  0.474327  0.305038  0.463538  0.050779
    H   H44  0.305755  0.328208  0.499182  0.079575
