data_DB0-m3_o18_o21_f0_pcu.sym.24_repeat
_audit_creation_date              2024-02-23
_audit_creation_method            'Materials Studio'
_symmetry_space_group_name_H-M    'P1'
_symmetry_Int_Tables_number       1
_symmetry_cell_setting            triclinic
loop_
_symmetry_equiv_pos_as_xyz
  x,y,z
_cell_length_a                    14.0021
_cell_length_b                    14.5947
_cell_length_c                    15.8956
_cell_angle_alpha                 93.9240
_cell_angle_beta                  91.4014
_cell_angle_gamma                 98.8393
loop_
_atom_site_label
_atom_site_type_symbol
_atom_site_fract_x
_atom_site_fract_y
_atom_site_fract_z
_atom_site_U_iso_or_equiv
_atom_site_adp_type
_atom_site_occupancy
O1     O     0.53334   0.62132   0.60420   0.00000  Uiso   1.00
O2     O     0.46666   0.37868   0.39580   0.00000  Uiso   1.00
O3     O     0.49203   0.46968   0.63867   0.00000  Uiso   1.00
O4     O     0.50797   0.53032   0.36133   0.00000  Uiso   1.00
C1     C     0.51638   0.55883   0.65995   0.00000  Uiso   1.00
C2     C     0.48362   0.44117   0.34004   0.00000  Uiso   1.00
O5     O     0.38327   0.59495   0.48004   0.00000  Uiso   1.00
O6     O     0.61673   0.40505   0.51996   0.00000  Uiso   1.00
O7     O     0.34098   0.44306   0.51392   0.00000  Uiso   1.00
O8     O     0.65902   0.55694   0.48608   0.00000  Uiso   1.00
C3     C     0.31875   0.52368   0.49626   0.00000  Uiso   1.00
C4     C     0.68125   0.47633   0.50374   0.00000  Uiso   1.00
Zn1    Zn    0.52859   0.59981   0.47673   0.00000  Uiso   1.00
Zn2    Zn    0.47141   0.40019   0.52327   0.00000  Uiso   1.00
C5     C     0.78181   0.46704   0.50547   0.00000  Uiso   1.00
C6     C     0.21819   0.53296   0.49453   0.00000  Uiso   1.00
C7     C     0.96965   0.46161   0.50664   0.00000  Uiso   1.00
C8     C     0.03035   0.53839   0.49336   0.00000  Uiso   1.00
C9     C     0.13280   0.53673   0.49377   0.00000  Uiso   1.00
C10    C     0.86720   0.46327   0.50623   0.00000  Uiso   1.00
H1     H     0.00263   0.60205   0.48225   0.00000  Uiso   1.00
H2     H     0.99738   0.39795   0.51775   0.00000  Uiso   1.00
C11    C     0.52499   0.58949   0.75024   0.00000  Uiso   1.00
C12    C     0.47502   0.41051   0.24976   0.00000  Uiso   1.00
C13    C     0.55736   0.71133   0.85973   0.00000  Uiso   1.00
C14    C     0.44265   0.28867   0.14027   0.00000  Uiso   1.00
C15    C     0.55320   0.68141   0.77570   0.00000  Uiso   1.00
C16    C     0.44680   0.31859   0.22430   0.00000  Uiso   1.00
C17    C     0.50495   0.52591   0.81009   0.00000  Uiso   1.00
C18    C     0.49505   0.47409   0.18991   0.00000  Uiso   1.00
C19    C     0.51421   0.55242   0.89639   0.00000  Uiso   1.00
C20    C     0.48579   0.44758   0.10361   0.00000  Uiso   1.00
C21    C     0.53554   0.64711   0.92144   0.00000  Uiso   1.00
C22    C     0.46446   0.35289   0.07856   0.00000  Uiso   1.00
C23    C     0.50016   0.48592   0.95743   0.00000  Uiso   1.00
C24    C     0.49984   0.51408   0.04257   0.00000  Uiso   1.00
C25    C     0.51126   0.60888   0.06483   0.00000  Uiso   1.00
C26    C     0.48874   0.39112   0.93517   0.00000  Uiso   1.00
C27    C     0.53177   0.67405   0.00697   0.00000  Uiso   1.00
C28    C     0.46823   0.32595   0.99303   0.00000  Uiso   1.00
H3     H     0.52153   0.54406   0.21347   0.00000  Uiso   1.00
H4     H     0.47847   0.45594   0.78653   0.00000  Uiso   1.00
H5     H     0.42948   0.26762   0.27000   0.00000  Uiso   1.00
H6     H     0.57052   0.73238   0.73000   0.00000  Uiso   1.00
H7     H     0.50315   0.63730   0.12783   0.00000  Uiso   1.00
H8     H     0.49685   0.36270   0.87217   0.00000  Uiso   1.00
N1     N     0.43138   0.26993   0.55573   0.00000  Uiso   1.00
N2     N     0.56862   0.73007   0.44426   0.00000  Uiso   1.00
C29    C     0.34729   0.15316   0.63447   0.00000  Uiso   1.00
C30    C     0.65271   0.84684   0.36553   0.00000  Uiso   1.00
C31    C     0.36309   0.24336   0.61134   0.00000  Uiso   1.00
C32    C     0.63691   0.75664   0.38867   0.00000  Uiso   1.00
C33    C     0.47899   0.20660   0.51716   0.00000  Uiso   1.00
C34    C     0.52101   0.79340   0.48284   0.00000  Uiso   1.00
C35    C     0.46065   0.11266   0.53336   0.00000  Uiso   1.00
C36    C     0.53935   0.88734   0.46664   0.00000  Uiso   1.00
C37    C     0.39842   0.08675   0.59740   0.00000  Uiso   1.00
C38    C     0.60158   0.91325   0.40260   0.00000  Uiso   1.00
C39    C     0.50545   0.04534   0.48818   0.00000  Uiso   1.00
C40    C     0.49455   0.95466   0.51182   0.00000  Uiso   1.00
C41    C     0.44113   0.93372   0.58218   0.00000  Uiso   1.00
C42    C     0.55887   0.06628   0.41782   0.00000  Uiso   1.00
C43    C     0.39130   0.99626   0.62281   0.00000  Uiso   1.00
C44    C     0.60870   0.00374   0.37719   0.00000  Uiso   1.00
H9     H     0.46612   0.76679   0.52455   0.00000  Uiso   1.00
H10    H     0.53388   0.23321   0.47545   0.00000  Uiso   1.00
H11    H     0.43645   0.86843   0.61031   0.00000  Uiso   1.00
H12    H     0.56355   0.13157   0.38969   0.00000  Uiso   1.00
N3     N     0.27523   0.13032   0.69463   0.00000  Uiso   1.00
H13    H     0.29439   0.17236   0.75014   0.00000  Uiso   1.00
H14    H     0.20912   0.14360   0.67044   0.00000  Uiso   1.00
N4     N     0.72477   0.86968   0.30537   0.00000  Uiso   1.00
H15    H     0.70561   0.82763   0.24986   0.00000  Uiso   1.00
H16    H     0.79088   0.85640   0.32956   0.00000  Uiso   1.00
N5     N     0.54423   0.76902   0.03828   0.00000  Uiso   1.00
H17    H     0.60098   0.77986   0.08347   0.00000  Uiso   1.00
H18    H     0.48097   0.78070   0.06784   0.00000  Uiso   1.00
N6     N     0.45577   0.23098   0.96172   0.00000  Uiso   1.00
H19    H     0.39902   0.22013   0.91653   0.00000  Uiso   1.00
H20    H     0.51903   0.21930   0.93216   0.00000  Uiso   1.00
N7     N     0.58659   0.80875   0.87883   0.00000  Uiso   1.00
H21    H     0.64804   0.82034   0.91899   0.00000  Uiso   1.00
H22    H     0.52922   0.83867   0.90350   0.00000  Uiso   1.00
N8     N     0.41341   0.19125   0.12117   0.00000  Uiso   1.00
H23    H     0.47078   0.16133   0.09650   0.00000  Uiso   1.00
H24    H     0.35196   0.17966   0.08101   0.00000  Uiso   1.00
N9     N     0.33837   0.96450   0.69361   0.00000  Uiso   1.00
H25    H     0.26428   0.96068   0.68110   0.00000  Uiso   1.00
H26    H     0.36273   0.00699   0.74780   0.00000  Uiso   1.00
N10    N     0.66163   0.03550   0.30639   0.00000  Uiso   1.00
H27    H     0.63727   0.99301   0.25220   0.00000  Uiso   1.00
H28    H     0.73572   0.03932   0.31890   0.00000  Uiso   1.00
N11    N     0.69412   0.69257   0.35222   0.00000  Uiso   1.00
H29    H     0.64919   0.63458   0.32426   0.00000  Uiso   1.00
H30    H     0.73878   0.67377   0.39935   0.00000  Uiso   1.00
N12    N     0.30588   0.30743   0.64778   0.00000  Uiso   1.00
H31    H     0.35082   0.36542   0.67574   0.00000  Uiso   1.00
H32    H     0.26122   0.32623   0.60065   0.00000  Uiso   1.00
