data_DB0-m2_o11_o29_f0_pcu.sym.88_repeat
_audit_creation_date              2024-02-23
_audit_creation_method            'Materials Studio'
_symmetry_space_group_name_H-M    'P1'
_symmetry_Int_Tables_number       1
_symmetry_cell_setting            triclinic
loop_
_symmetry_equiv_pos_as_xyz
  x,y,z
_cell_length_a                    27.5262
_cell_length_b                    11.0390
_cell_length_c                    9.5718
_cell_angle_alpha                 90.0205
_cell_angle_beta                  90.0156
_cell_angle_gamma                 89.9936
loop_
_atom_site_label
_atom_site_type_symbol
_atom_site_fract_x
_atom_site_fract_y
_atom_site_fract_z
_atom_site_U_iso_or_equiv
_atom_site_adp_type
_atom_site_occupancy
O1     O     0.50225   0.31578   0.61475   0.00000  Uiso   1.00
O2     O     0.50111   0.31360   0.37405   0.00000  Uiso   1.00
C1     C     0.50196   0.25809   0.49501   0.00000  Uiso   1.00
O3     O     0.43238   0.49353   0.62371   0.00000  Uiso   1.00
O4     O     0.42825   0.48372   0.38377   0.00000  Uiso   1.00
C2     C     0.40754   0.48802   0.50682   0.00000  Uiso   1.00
Cu1    Cu    0.50331   0.49207   0.63160   0.00000  Uiso   1.00
Cu2    Cu    0.49828   0.48939   0.35243   0.00000  Uiso   1.00
O5     O     0.50005   0.66757   0.60943   0.00000  Uiso   1.00
O6     O     0.49959   0.66583   0.36945   0.00000  Uiso   1.00
O7     O     0.57331   0.49845   0.59996   0.00000  Uiso   1.00
O8     O     0.56919   0.48738   0.36063   0.00000  Uiso   1.00
C3     C     0.49954   0.72337   0.48934   0.00000  Uiso   1.00
C4     C     0.59406   0.49374   0.47718   0.00000  Uiso   1.00
C5     C     0.17756   0.38852   0.46690   0.00000  Uiso   1.00
O9     O     0.20242   0.29144   0.42140   0.00000  Uiso   1.00
N1     N     0.20180   0.48381   0.52049   0.00000  Uiso   1.00
C6     C     0.17740   0.58061   0.56965   0.00000  Uiso   1.00
C7     C     0.27796   0.47357   0.39345   0.00000  Uiso   1.00
C8     C     0.32794   0.47493   0.39005   0.00000  Uiso   1.00
C9     C     0.32995   0.49724   0.63820   0.00000  Uiso   1.00
C10    C     0.27978   0.49661   0.64118   0.00000  Uiso   1.00
C11    C     0.25363   0.48437   0.51874   0.00000  Uiso   1.00
C12    C     0.10170   0.48805   0.50814   0.00000  Uiso   1.00
C13    C     0.12737   0.38964   0.45982   0.00000  Uiso   1.00
C14    C     0.10278   0.29229   0.40520   0.00000  Uiso   1.00
C15    C     0.12715   0.58370   0.56434   0.00000  Uiso   1.00
C16    C     0.35429   0.48655   0.51237   0.00000  Uiso   1.00
H1     H     0.34970   0.50652   0.73519   0.00000  Uiso   1.00
H2     H     0.26109   0.50430   0.74010   0.00000  Uiso   1.00
H3     H     0.12183   0.21252   0.36942   0.00000  Uiso   1.00
C17    C     0.64731   0.49546   0.47150   0.00000  Uiso   1.00
C18    C     0.97593   0.40147   0.42240   0.00000  Uiso   1.00
C19    C     0.97508   0.58996   0.54990   0.00000  Uiso   1.00
C20    C     0.95050   0.49713   0.48190   0.00000  Uiso   1.00
C21    C     0.94995   0.31467   0.34742   0.00000  Uiso   1.00
C22    C     0.90022   0.31917   0.33884   0.00000  Uiso   1.00
C23    C     0.87496   0.41057   0.40362   0.00000  Uiso   1.00
C24    C     0.90001   0.49968   0.47384   0.00000  Uiso   1.00
C25    C     0.87394   0.59100   0.53663   0.00000  Uiso   1.00
C26    C     0.82374   0.59137   0.53011   0.00000  Uiso   1.00
N2     N     0.79986   0.50228   0.46264   0.00000  Uiso   1.00
C27    C     0.82469   0.41280   0.39885   0.00000  Uiso   1.00
C28    C     0.72374   0.49874   0.59075   0.00000  Uiso   1.00
C29    C     0.67377   0.49665   0.59431   0.00000  Uiso   1.00
C30    C     0.67155   0.49604   0.34492   0.00000  Uiso   1.00
C31    C     0.72171   0.49828   0.34163   0.00000  Uiso   1.00
C32    C     0.74799   0.49999   0.46467   0.00000  Uiso   1.00
O10    O     0.80038   0.32301   0.33477   0.00000  Uiso   1.00
C33    C     0.02647   0.39525   0.43796   0.00000  Uiso   1.00
C34    C     0.05122   0.49102   0.49966   0.00000  Uiso   1.00
C35    C     0.02598   0.58989   0.55252   0.00000  Uiso   1.00
C36    C     0.05309   0.29459   0.39464   0.00000  Uiso   1.00
H4     H     0.65594   0.49537   0.69480   0.00000  Uiso   1.00
H5     H     0.74384   0.49791   0.68780   0.00000  Uiso   1.00
H6     H     0.88169   0.24944   0.28019   0.00000  Uiso   1.00
H7     H     0.96671   0.24233   0.28986   0.00000  Uiso   1.00
H8     H     0.03689   0.21309   0.35477   0.00000  Uiso   1.00
O11    O     0.20216   0.67613   0.61972   0.00000  Uiso   1.00
C37    C     0.10236   0.68351   0.61178   0.00000  Uiso   1.00
H9     H     0.34587   0.46671   0.29009   0.00000  Uiso   1.00
H10    H     0.25790   0.46571   0.29676   0.00000  Uiso   1.00
H11    H     0.12131   0.76108   0.65382   0.00000  Uiso   1.00
C38    C     0.94784   0.68028   0.61497   0.00000  Uiso   1.00
C39    C     0.89807   0.68068   0.60788   0.00000  Uiso   1.00
O12    O     0.79853   0.68190   0.58981   0.00000  Uiso   1.00
C40    C     0.05256   0.68698   0.60585   0.00000  Uiso   1.00
H12    H     0.96340   0.75147   0.67701   0.00000  Uiso   1.00
H13    H     0.65171   0.49544   0.24750   0.00000  Uiso   1.00
H14    H     0.87858   0.75234   0.66053   0.00000  Uiso   1.00
H15    H     0.74025   0.50034   0.24211   0.00000  Uiso   1.00
H16    H     0.03647   0.77021   0.64098   0.00000  Uiso   1.00
C41    C     0.50070   0.92453   0.37902   0.00000  Uiso   1.00
C42    C     0.49876   0.85597   0.49401   0.00000  Uiso   1.00
H17    H     0.50222   0.88097   0.27766   0.00000  Uiso   1.00
H18    H     0.49648   0.89524   0.59697   0.00000  Uiso   1.00
C43    C     0.50039   0.05879   0.38164   0.00000  Uiso   1.00
C44    C     0.50257   0.12534   0.49878   0.00000  Uiso   1.00
H19    H     0.49868   0.10425   0.28147   0.00000  Uiso   1.00
H20    H     0.50508   0.08476   0.60103   0.00000  Uiso   1.00
C45    C     0.51566   0.40276   0.91964   0.00000  Uiso   1.00
N3     N     0.50713   0.49477   0.84047   0.00000  Uiso   1.00
H21    H     0.52123   0.31424   0.87365   0.00000  Uiso   1.00
C46    C     0.52166   0.41599   0.07241   0.00000  Uiso   1.00
N4     N     0.49367   0.48559   0.14386   0.00000  Uiso   1.00
H22    H     0.54847   0.36072   0.12540   0.00000  Uiso   1.00
H23    H     0.46368   0.51861   0.09225   0.00000  Uiso   1.00
O13    O     0.51203   0.60341   0.90205   0.00000  Uiso   1.00
C47    C     0.56090   0.63637   0.88591   0.00000  Uiso   1.00
H24    H     0.56486   0.69593   0.79358   0.00000  Uiso   1.00
H25    H     0.58440   0.55579   0.87218   0.00000  Uiso   1.00
C48    C     0.57751   0.70551   0.01427   0.00000  Uiso   1.00
H26    H     0.55387   0.78578   0.02946   0.00000  Uiso   1.00
H27    H     0.57508   0.64628   0.10743   0.00000  Uiso   1.00
C49    C     0.62965   0.74677   0.99592   0.00000  Uiso   1.00
H28    H     0.65355   0.66701   0.98050   0.00000  Uiso   1.00
H29    H     0.64141   0.79650   0.09077   0.00000  Uiso   1.00
H30    H     0.63242   0.80766   0.90414   0.00000  Uiso   1.00
