# Generated by REPEAT Assigner based on pymatgen
data_DB0-m3_o16_o52_f0_fsc.sym.15_sqe
_audit_creation_date              2022-05-24
_audit_creation_method            REPEAT_Assigner
_cell_length_a                    12.160060
_cell_length_b                    8.551608
_cell_length_c                    14.959483
_cell_angle_alpha                 90.000000
_cell_angle_beta                  109.689632
_cell_angle_gamma                 90.000000
_cell_volume                      1464.653626
_symmetry_space_group_name_H-M    P1
_symmetry_Int_Tables_number       1
loop_
    _symmetry_equiv_pos_site_id
    _symmetry_equiv_pos_as_xyz
    1  x,y,z
loop_
    _atom_site_type_symbol
    _atom_site_label
    _atom_site_fract_x
    _atom_site_fract_y
    _atom_site_fract_z
    _atom_type_partial_charge
    H   H1   0.056103  0.000000  0.574985  0.106161
    C   C1   0.025348  0.139373  0.681320  -0.089338
    C   C2   0.025348  0.860627  0.681320  -0.089340
    C   C3   0.008267  0.140280  0.767847  0.016255
    C   C4   0.008267  0.859720  0.767847  0.016255
    H   H2   0.999051  0.250773  0.799651  0.027492
    H   H3   0.999051  0.749227  0.799651  0.027492
    C   C5   0.005572  0.000000  0.813599  -0.361519
    C   C6   0.040615  0.000000  0.641648  -0.062651
    N   N1   0.001360  0.863990  0.955425  -0.328258
    N   N2   0.001360  0.136010  0.955425  -0.328259
    N   N3   0.001487  0.863990  0.043818  -0.323492
    N   N4   0.001487  0.136010  0.043818  -0.323493
    C   C7   0.002037  0.000000  0.089138  0.853080
    C   C8   0.000832  0.000000  0.910112  0.836966
    C   C9   0.995167  0.140336  0.231552  0.057942
    C   C10  0.995167  0.859664  0.231552  0.057942
    H   H4   0.004053  0.250802  0.199579  0.022639
    H   H5   0.004053  0.749198  0.199579  0.022639
    C   C11  0.978787  0.139571  0.318347  -0.125980
    C   C12  0.978787  0.860429  0.318347  -0.125982
    C   C13  0.964061  0.000000  0.358271  -0.043154
    H   H6   0.949068  0.000000  0.425129  0.111229
    C   C14  0.997639  0.000000  0.185758  -0.407270
    O   O1   0.112962  0.669419  0.611799  -0.751593
    O   O2   0.112962  0.330581  0.611799  -0.751593
    O   O3   0.913595  0.664077  0.578297  -0.730800
    O   O4   0.913595  0.335923  0.578297  -0.730800
    C   C15  0.017852  0.718786  0.625420  0.892170
    C   C16  0.017852  0.281214  0.625420  0.892172
    O   O5   0.890789  0.668573  0.387477  -0.757378
    O   O6   0.890789  0.331427  0.387477  -0.757379
    O   O7   0.090846  0.663066  0.420897  -0.728254
    O   O8   0.090846  0.336934  0.420897  -0.728255
    C   C17  0.986271  0.718127  0.374070  0.910590
    C   C18  0.986271  0.281873  0.374070  0.910592
    Zn  Zn1  0.872134  0.500000  0.475453  1.041610
    Zn  Zn2  0.131391  0.500000  0.524201  1.074815
    C   C19  0.460189  0.500000  0.685017  -0.229755
    H   H7   0.292499  0.500000  0.698366  0.108794
    H   H8   0.689435  0.500000  0.734814  0.139028
    N   N5   0.283907  0.500000  0.555533  0.080552
    C   C20  0.666435  0.500000  0.349712  -0.053630
    C   C21  0.547154  0.500000  0.310113  -0.141923
    C   C22  0.479292  0.500000  0.366904  -0.136021
    C   C23  0.531592  0.500000  0.464973  0.144805
    C   C24  0.653781  0.500000  0.502691  0.061663
    C   C25  0.465247  0.500000  0.526136  -0.081605
    C   C26  0.522977  0.500000  0.623456  0.394572
    C   C27  0.642941  0.500000  0.659416  -0.259843
    C   C28  0.707269  0.500000  0.600099  -0.168689
    C   C29  0.342734  0.500000  0.493550  -0.187796
    C   C30  0.340813  0.500000  0.649576  0.040422
    N   N6   0.719330  0.500000  0.444619  0.052983
    H   H9   0.290910  0.500000  0.419615  0.189329
    H   H10  0.717666  0.500000  0.303165  0.165107
    H   H11  0.386641  0.500000  0.330851  0.143762
    H   H12  0.506439  0.500000  0.233764  0.147964
    H   H13  0.799889  0.500000  0.633516  0.242297
    Br  Br1  0.533901  0.500000  0.819851  0.014734
