# Generated by REPEAT Assigner based on pymatgen
data_DB0-m3_o25_o27_f0_pcu.sym.138
_audit_creation_date              2022-05-24
_audit_creation_method            REPEAT_Assigner
_cell_length_a                    19.412454
_cell_length_b                    16.019876
_cell_length_c                    14.823463
_cell_angle_alpha                 90.004637
_cell_angle_beta                  89.982917
_cell_angle_gamma                 90.000995
_cell_volume                      4609.875946
_symmetry_space_group_name_H-M    P1
_symmetry_Int_Tables_number       1
loop_
    _symmetry_equiv_pos_site_id
    _symmetry_equiv_pos_as_xyz
    1  x,y,z
loop_
    _atom_site_type_symbol
    _atom_site_label
    _atom_site_fract_x
    _atom_site_fract_y
    _atom_site_fract_z
    _atom_type_partial_charge
    O   O1   0.508222  0.377135  0.577188  -0.690718
    O   O2   0.501772  0.625203  0.421163  -0.688119
    O   O3   0.503472  0.376442  0.421847  -0.700692
    O   O4   0.506902  0.625899  0.576440  -0.696927
    C   C1   0.506068  0.337963  0.499700  0.848269
    C   C2   0.504122  0.664386  0.498619  0.846269
    O   O5   0.404985  0.500809  0.580360  -0.568333
    O   O6   0.605249  0.501819  0.417972  -0.579055
    O   O7   0.400109  0.499698  0.425739  -0.624561
    O   O8   0.610108  0.502393  0.572565  -0.614673
    C   C3   0.369630  0.499535  0.504989  0.686490
    C   C4   0.640629  0.502343  0.493356  0.685676
    Zn  Zn1  0.508066  0.501589  0.601413  1.046754
    Zn  Zn2  0.502159  0.500756  0.396904  1.065279
    C   C5   0.253429  0.489716  0.586171  0.240180
    C   C6   0.757237  0.503052  0.412215  0.252027
    C   C7   0.181971  0.491235  0.578084  -0.098602
    C   C8   0.828650  0.505112  0.421006  -0.166278
    H   H1   0.148792  0.488622  0.636042  0.088702
    H   H2   0.862235  0.506202  0.363382  0.114886
    C   C9   0.149515  0.497298  0.495648  -0.592397
    C   C10  0.860744  0.502700  0.503869  -0.544330
    C   C11  0.188769  0.500131  0.417462  0.464352
    C   C12  0.821295  0.500650  0.581870  0.504530
    C   C13  0.259505  0.502587  0.424718  -0.211990
    C   C14  0.750533  0.502290  0.574259  -0.257354
    H   H3   0.288659  0.507707  0.362983  0.136347
    H   H4   0.721091  0.504763  0.635908  0.132817
    C   C15  0.293033  0.497699  0.507178  -0.150022
    C   C16  0.717285  0.502348  0.491387  -0.130138
    N   N1   0.038826  0.558066  0.451878  -0.431430
    N   N2   0.971419  0.443305  0.548776  -0.200582
    N   N3   0.970784  0.559764  0.455167  -0.351807
    N   N4   0.039425  0.441425  0.545283  -0.485463
    C   C17  0.936311  0.502808  0.504294  0.878723
    C   C18  0.073913  0.498078  0.495809  1.107328
    C   C19  0.557551  0.972408  0.541717  -0.170099
    C   C20  0.447600  0.030433  0.456697  -0.167784
    C   C21  0.558954  0.029098  0.459229  -0.174284
    C   C22  0.446191  0.972840  0.539333  -0.159328
    H   H5   0.605731  0.053407  0.425269  0.060776
    H   H6   0.399568  0.946607  0.571898  0.057878
    H   H7   0.603133  0.947352  0.577731  0.059107
    H   H8   0.402167  0.057465  0.422116  0.059694
    C   C23  0.505604  0.248425  0.500196  -0.148139
    C   C24  0.503595  0.753931  0.498178  -0.146064
    C   C25  0.501415  0.026171  0.583050  0.136031
    C   C26  0.503354  0.976231  0.415430  0.145361
    C   C27  0.503285  0.081944  0.501483  0.496136
    C   C28  0.502449  0.920440  0.497010  0.496790
    C   C29  0.504739  0.173230  0.500826  -0.351320
    C   C30  0.503091  0.829134  0.497608  -0.355508
    C   C31  0.483635  0.428129  0.968379  -0.179821
    C   C32  0.526238  0.574013  0.029894  -0.170580
    C   C33  0.545242  0.441210  0.030187  -0.162608
    C   C34  0.464627  0.560927  0.968090  -0.180269
    H   H9   0.578602  0.391535  0.058546  0.091757
    H   H10  0.431241  0.610564  0.939706  0.098664
    H   H11  0.466060  0.367627  0.940239  0.093115
    H   H12  0.543798  0.634524  0.058017  0.096498
    H   H13  0.622351  0.525616  0.948753  0.093620
    H   H14  0.387523  0.476513  0.049540  0.087832
    N   N5   0.499291  0.500408  0.262048  -0.063636
    N   N6   0.510929  0.501972  0.736266  -0.055122
    C   C35  0.440813  0.487643  0.025407  -0.155019
    C   C36  0.569061  0.514498  0.972889  -0.175300
    C   C37  0.502465  0.500735  0.085445  0.704704
    C   C38  0.507420  0.501415  0.912844  0.723857
    C   C39  0.500322  0.500498  0.184032  -0.212240
    C   C40  0.509737  0.501773  0.814275  -0.220195
    C   C41  0.287736  0.480793  0.677707  -0.448654
    C   C42  0.241665  0.465791  0.759858  0.594265
    C   C43  0.214982  0.376384  0.761180  -0.326219
    C   C44  0.284346  0.479524  0.844461  -0.433404
    H   H15  0.316946  0.538937  0.691139  0.095376
    H   H16  0.323723  0.427132  0.674925  0.124900
    H   H17  0.198695  0.511130  0.762907  -0.084218
    H   H18  0.258448  0.332455  0.771319  0.070530
    H   H19  0.188682  0.360340  0.697251  0.049693
    H   H20  0.177910  0.368958  0.817537  0.051761
    H   H21  0.331220  0.439958  0.842636  0.086092
    H   H22  0.253355  0.463219  0.904787  0.078373
    H   H23  0.299760  0.546037  0.849341  0.081316
    C   C45  0.723350  0.502940  0.319910  -0.446699
    C   C46  0.770098  0.501728  0.236861  0.657577
    C   C47  0.798843  0.414525  0.220769  -0.399278
    C   C48  0.727504  0.526078  0.155060  -0.440694
    H   H24  0.691417  0.560101  0.314688  0.096408
    H   H25  0.689994  0.447000  0.314563  0.114051
    H   H26  0.811985  0.548375  0.242194  -0.103343
    H   H27  0.756718  0.371786  0.200283  0.077945
    H   H28  0.823419  0.389294  0.282375  0.078653
    H   H29  0.837742  0.416979  0.166034  0.065169
    H   H30  0.681139  0.485859  0.150289  0.089294
    H   H31  0.758867  0.518651  0.093042  0.080322
    H   H32  0.711298  0.592260  0.160705  0.080287
    C   C49  0.158670  0.497108  0.324081  -0.808415
    C   C50  0.175491  0.414553  0.277726  0.743957
    C   C51  0.142091  0.342177  0.327586  -0.511189
    C   C52  0.148713  0.416822  0.181586  -0.402333
    H   H33  0.180987  0.549117  0.284300  0.160004
    H   H34  0.102309  0.504714  0.322868  0.224777
    H   H35  0.231931  0.404527  0.275326  -0.108462
    H   H36  0.086277  0.354266  0.336778  0.106438
    H   H37  0.166708  0.333260  0.394367  0.111193
    H   H38  0.148820  0.284008  0.288021  0.095824
    H   H39  0.091894  0.423987  0.181745  0.087755
    H   H40  0.162579  0.358033  0.146505  0.066049
    H   H41  0.172301  0.469957  0.144917  0.073632
    C   C53  0.851538  0.505715  0.675106  -0.638617
    C   C54  0.835800  0.427717  0.730813  0.691605
    C   C55  0.874083  0.352129  0.694638  -0.463918
    C   C56  0.857193  0.442681  0.827932  -0.413309
    H   H42  0.827900  0.560244  0.709232  0.114609
    H   H43  0.907672  0.516960  0.674780  0.154408
    H   H44  0.779871  0.414150  0.730057  -0.105794
    H   H45  0.930414  0.362216  0.699967  0.101929
    H   H46  0.859763  0.340270  0.623405  0.054080
    H   H47  0.860030  0.296448  0.735081  0.089618
    H   H48  0.912893  0.457770  0.831091  0.093562
    H   H49  0.846941  0.385886  0.868527  0.066943
    H   H50  0.827126  0.495301  0.856450  0.070618
    C   C57  0.509783  0.951366  0.316446  -0.302488
    C   C58  0.456204  0.887884  0.284725  0.552132
    C   C59  0.383438  0.922257  0.290938  -0.372804
    C   C60  0.471259  0.865247  0.187256  -0.440139
    H   H51  0.561737  0.924095  0.306616  0.048558
    H   H52  0.506181  0.008461  0.274432  0.058978
    H   H53  0.459673  0.830117  0.325254  -0.062997
    H   H54  0.381794  0.987101  0.264867  0.079016
    H   H55  0.365372  0.920422  0.361796  0.055986
    H   H56  0.348181  0.882936  0.250265  0.072058
    H   H57  0.465039  0.921107  0.143832  0.087108
    H   H58  0.435313  0.815736  0.164500  0.083410
    H   H59  0.524709  0.841483  0.181204  0.081454
    C   C61  0.505498  0.050921  0.682284  -0.298658
    C   C62  0.452049  0.115582  0.711549  0.547828
    C   C63  0.378980  0.082957  0.701614  -0.388727
    C   C64  0.464581  0.137664  0.809766  -0.440345
    H   H60  0.557549  0.077050  0.694526  0.051424
    H   H61  0.499886  0.993923  0.724076  0.059913
    H   H62  0.457640  0.173349  0.671430  -0.061977
    H   H63  0.375488  0.018196  0.727616  0.083226
    H   H64  0.363111  0.085132  0.629883  0.062857
    H   H65  0.343170  0.123175  0.740423  0.076124
    H   H66  0.456132  0.081897  0.852686  0.087928
    H   H67  0.428832  0.188025  0.830846  0.088243
    H   H68  0.518204  0.160074  0.818552  0.077763
