# Generated by REPEAT Assigner based on pymatgen
data_DB0-m3_o4_o11_f0_pcu.sym.45_sqe
_audit_creation_date              2022-05-24
_audit_creation_method            REPEAT_Assigner
_cell_length_a                    11.142576
_cell_length_b                    10.981337
_cell_length_c                    9.833220
_cell_angle_alpha                 90.004535
_cell_angle_beta                  90.012213
_cell_angle_gamma                 89.997200
_cell_volume                      1203.196524
_symmetry_space_group_name_H-M    P1
_symmetry_Int_Tables_number       1
loop_
    _symmetry_equiv_pos_site_id
    _symmetry_equiv_pos_as_xyz
    1  x,y,z
loop_
    _atom_site_type_symbol
    _atom_site_label
    _atom_site_fract_x
    _atom_site_fract_y
    _atom_site_fract_z
    _atom_type_partial_charge
    O   O1   0.488244  0.311202  0.618964  -0.681259
    O   O2   0.487268  0.311672  0.384068  -0.682505
    C   C1   0.487675  0.254578  0.501246  0.843071
    O   O3   0.309763  0.492977  0.618963  -0.638813
    O   O4   0.309100  0.493657  0.383980  -0.646684
    C   C2   0.253461  0.493636  0.501874  0.672180
    Zn  Zn1  0.488482  0.492743  0.656314  1.027000
    Zn  Zn2  0.488052  0.493038  0.346709  1.069410
    O   O5   0.489074  0.674268  0.618888  -0.606545
    O   O6   0.488369  0.674387  0.384199  -0.656263
    O   O7   0.667123  0.492180  0.618852  -0.685446
    O   O8   0.666988  0.492547  0.384215  -0.717266
    C   C3   0.489153  0.731258  0.501483  0.762923
    C   C4   0.723026  0.492560  0.501778  0.836572
    C   C5   0.921604  0.497968  0.393445  0.018798
    C   C6   0.854451  0.493894  0.506209  -0.320276
    H   H1   0.877685  0.500581  0.295173  0.074568
    H   H2   0.893821  0.493280  0.606414  0.147534
    C   C7   0.054598  0.500751  0.393943  -0.086936
    C   C8   0.121928  0.492099  0.506408  -0.249659
    H   H3   0.098360  0.510344  0.296395  0.125552
    H   H4   0.082683  0.483030  0.606153  0.157441
    C   C9   0.497248  0.053802  0.616665  0.335224
    C   C10  0.487455  0.121209  0.499771  -0.337651
    C   C11  0.478380  0.056291  0.378902  -0.034839
    H   H5   0.470234  0.103265  0.282784  0.105057
    C   C12  0.478934  0.929306  0.379227  -0.104976
    H   H6   0.470851  0.882014  0.283291  0.111065
    C   C13  0.489291  0.864700  0.500293  -0.135591
    C   C14  0.499278  0.932554  0.617124  0.043026
    C   C15  0.514426  0.924073  0.766638  -0.562097
    C   C16  0.511564  0.065895  0.766205  -0.331987
    H   H7   0.430780  0.104281  0.815830  0.151945
    H   H8   0.598802  0.107480  0.794355  0.127654
    C   C17  0.403235  0.437536  0.068077  0.244608
    N   N1   0.487485  0.492348  0.143246  -0.177734
    C   C18  0.575902  0.548536  0.072851  0.043966
    H   H9   0.647137  0.594596  0.126871  0.171270
    C   C19  0.576343  0.547993  0.930388  -0.176269
    H   H10  0.647940  0.593372  0.876461  0.196103
    N   N2   0.487950  0.492052  0.859746  -0.053374
    C   C20  0.403139  0.438003  0.934515  0.172444
    C   C21  0.290435  0.367577  0.920908  -0.165310
    C   C22  0.290774  0.366513  0.080762  -0.196503
    H   H11  0.216269  0.422672  0.877672  0.106878
    H   H12  0.304870  0.276373  0.875714  0.083685
    H   H13  0.216447  0.420566  0.124577  0.105765
    H   H14  0.306007  0.274694  0.124427  0.109304
    C   C23  0.409394  0.867703  0.836439  0.882410
    O   O9   0.425276  0.792575  0.925937  -0.553125
    O   O10  0.297081  0.898757  0.799029  -0.348359
    C   C24  0.199073  0.847556  0.861045  0.010429
    H   H15  0.116075  0.885502  0.815437  0.084585
    H   H16  0.200310  0.868860  0.971323  0.039859
    H   H17  0.200055  0.747453  0.845862  0.050879
    C   C25  0.633563  0.874834  0.808467  1.033402
    O   O11  0.697826  0.825340  0.724699  -0.557314
    O   O12  0.672100  0.890072  0.937361  -0.395540
    C   C26  0.784530  0.852959  0.976262  -0.006252
    H   H18  0.797835  0.874046  0.085526  0.093377
    H   H19  0.853338  0.901908  0.915782  0.047458
    H   H20  0.793939  0.753396  0.960830  0.023128
