# Generated by REPEAT Assigner based on pymatgen
data_DB0-m3_o20_o27_f0_nbo.sym.26_sqe
_audit_creation_date              2022-05-24
_audit_creation_method            REPEAT_Assigner
_cell_length_a                    29.075214
_cell_length_b                    29.075199
_cell_length_c                    38.692842
_cell_angle_alpha                 90.000000
_cell_angle_beta                  90.000000
_cell_angle_gamma                 90.000000
_cell_volume                      32709.676059
_symmetry_space_group_name_H-M    P1
_symmetry_Int_Tables_number       1
loop_
    _symmetry_equiv_pos_site_id
    _symmetry_equiv_pos_as_xyz
    1  x,y,z
loop_
    _atom_site_type_symbol
    _atom_site_label
    _atom_site_fract_x
    _atom_site_fract_y
    _atom_site_fract_z
    _atom_type_partial_charge
    O   O1    0.538787  0.931454  0.999237  -0.677522
    O   O2    0.068665  0.540714  0.000893  -0.676998
    O   O3    0.461223  0.068326  0.000833  -0.685297
    O   O4    0.931256  0.459064  0.999322  -0.669492
    O   O5    0.540675  0.068688  0.999136  -0.678565
    O   O6    0.068486  0.461259  0.999233  -0.685043
    O   O7    0.459326  0.931092  0.000621  -0.670129
    O   O8    0.931436  0.538528  0.000667  -0.677168
    O   O9    0.038601  0.431544  0.500763  -0.685225
    O   O10   0.568471  0.038812  0.500783  -0.684727
    O   O11   0.961467  0.568669  0.499418  -0.677514
    O   O12   0.431517  0.961409  0.499292  -0.676964
    O   O13   0.040929  0.568772  0.500801  -0.669623
    O   O14   0.568748  0.959361  0.499064  -0.677716
    O   O15   0.959147  0.431442  0.499067  -0.677275
    O   O16   0.431239  0.040869  0.500697  -0.669814
    C   C1    0.499139  0.909931  0.999884  0.979116
    C   C2    0.089917  0.500951  0.000064  1.005409
    C   C3    0.500866  0.089848  0.999999  1.008826
    C   C4    0.910004  0.498831  0.000017  0.977019
    C   C5    0.998890  0.410152  0.499895  1.005951
    C   C6    0.589951  0.999148  0.499918  1.006653
    C   C7    0.001183  0.590063  0.500106  0.977439
    C   C8    0.410036  0.001079  0.499968  0.977245
    O   O17   0.538626  0.000966  0.051446  -0.645060
    O   O18   0.000910  0.540737  0.051645  -0.627689
    O   O19   0.459211  0.998770  0.051596  -0.626334
    O   O20   0.998882  0.461308  0.051531  -0.647315
    O   O21   0.540798  0.001029  0.948323  -0.627525
    O   O22   0.999029  0.459052  0.948409  -0.625752
    O   O23   0.461376  0.998798  0.948474  -0.647493
    O   O24   0.001022  0.538469  0.948524  -0.645064
    O   O25   0.040831  0.500919  0.551652  -0.625416
    O   O26   0.498999  0.040884  0.551609  -0.626583
    O   O27   0.961412  0.498999  0.551498  -0.644832
    O   O28   0.501117  0.961466  0.551436  -0.645191
    O   O29   0.038666  0.501231  0.448530  -0.647681
    O   O30   0.501005  0.959338  0.448313  -0.627339
    O   O31   0.959235  0.499276  0.448376  -0.628762
    O   O32   0.498853  0.038763  0.448486  -0.647341
    C   C9    0.498959  0.999886  0.067664  0.248510
    C   C10   0.999845  0.500995  0.067723  0.255707
    C   C11   0.501045  0.999894  0.932261  0.254741
    C   C12   0.000074  0.498788  0.932321  0.249751
    C   C13   0.001080  0.499887  0.567720  0.248982
    C   C14   0.500106  0.001126  0.567666  0.249953
    C   C15   0.998992  0.500326  0.432317  0.256632
    C   C16   0.499878  0.999099  0.432262  0.255390
    Zn  Zn1   0.552134  0.999912  0.000024  1.341763
    Zn  Zn2   0.999865  0.552023  0.999937  1.340850
    Zn  Zn3   0.447872  0.999872  0.999895  1.341888
    Zn  Zn4   0.000061  0.447760  0.000117  1.342076
    Zn  Zn5   0.052168  0.499958  0.499948  1.341841
    Zn  Zn6   0.500031  0.052243  0.499909  1.342141
    Zn  Zn7   0.947904  0.500252  0.500079  1.341806
    Zn  Zn8   0.499960  0.947982  0.500012  1.340925
    C   C17   0.476285  0.965333  0.123815  -0.516750
    C   C18   0.033203  0.476522  0.123850  -0.513779
    C   C19   0.521997  0.034310  0.123791  -0.512678
    C   C20   0.966287  0.525219  0.123836  -0.516304
    C   C21   0.476190  0.033242  0.876230  -0.513633
    C   C22   0.034477  0.522133  0.876264  -0.509952
    C   C23   0.525527  0.966797  0.876045  -0.516487
    C   C24   0.965949  0.475752  0.876091  -0.512577
    C   C25   0.977692  0.465457  0.623763  -0.507617
    C   C26   0.534709  0.978037  0.623710  -0.512115
    C   C27   0.024098  0.533968  0.623964  -0.511667
    C   C28   0.465744  0.023764  0.623897  -0.516987
    C   C29   0.974836  0.533908  0.376192  -0.517099
    C   C30   0.532986  0.023953  0.376140  -0.512219
    C   C31   0.023508  0.466974  0.376203  -0.515502
    C   C32   0.466529  0.974632  0.376135  -0.515494
    C   C33   0.475651  0.966295  0.159488  0.274782
    C   C34   0.032124  0.475808  0.159526  0.277335
    C   C35   0.522825  0.033256  0.159465  0.272389
    C   C36   0.967241  0.525807  0.159512  0.280001
    C   C37   0.475413  0.032295  0.840556  0.274627
    C   C38   0.033534  0.522982  0.840591  0.269243
    C   C39   0.526082  0.967936  0.840369  0.277766
    C   C40   0.967074  0.475107  0.840418  0.271113
    C   C41   0.976842  0.466377  0.659437  0.267752
    C   C42   0.533779  0.977163  0.659383  0.272747
    C   C43   0.024740  0.532820  0.659635  0.270478
    C   C44   0.466828  0.024351  0.659571  0.276964
    C   C45   0.974288  0.532956  0.340514  0.279661
    C   C46   0.531867  0.024723  0.340465  0.274503
    C   C47   0.024263  0.468055  0.340529  0.277991
    C   C48   0.467497  0.974069  0.340460  0.276120
    H   H1    0.458159  0.939195  0.173307  -0.017056
    H   H2    0.058373  0.457073  0.173350  -0.017731
    H   H3    0.540403  0.060306  0.173276  -0.016949
    H   H4    0.940938  0.544489  0.173318  -0.017987
    H   H5    0.456419  0.058430  0.826809  -0.016572
    H   H6    0.060470  0.540816  0.826838  -0.015566
    H   H7    0.544995  0.941881  0.826474  -0.016380
    H   H8    0.940207  0.457359  0.826528  -0.014497
    H   H9    0.958996  0.439442  0.673182  -0.015149
    H   H10   0.560878  0.959563  0.673125  -0.017197
    H   H11   0.042497  0.559675  0.673534  -0.014223
    H   H12   0.439785  0.041834  0.673459  -0.017447
    H   H13   0.955628  0.559265  0.326697  -0.018370
    H   H14   0.557934  0.043711  0.326641  -0.016776
    H   H15   0.043002  0.441798  0.326716  -0.017797
    H   H16   0.441364  0.955162  0.326643  -0.015952
    C   C49   0.499284  0.999752  0.177449  -0.548576
    C   C50   0.999652  0.500777  0.177493  -0.555063
    C   C51   0.500695  0.000167  0.822491  -0.554688
    C   C52   0.000351  0.499095  0.822535  -0.549132
    C   C53   0.000741  0.499540  0.677505  -0.548245
    C   C54   0.500344  0.000686  0.677450  -0.550910
    C   C55   0.999326  0.500537  0.322547  -0.554507
    C   C56   0.499644  0.999446  0.322491  -0.553013
    C   C57   0.499081  0.999848  0.105600  0.657532
    C   C58   0.999776  0.500907  0.105648  0.658664
    C   C59   0.500917  0.999972  0.894334  0.660033
    C   C60   0.000171  0.498886  0.894382  0.654345
    C   C61   0.000957  0.499766  0.605659  0.652886
    C   C62   0.500191  0.000980  0.605601  0.656620
    C   C63   0.999117  0.500407  0.394393  0.660354
    C   C64   0.499796  0.999235  0.394335  0.658001
    N   N1    0.526904  0.028685  0.232887  -0.314485
    N   N2    0.971255  0.528931  0.232932  -0.314774
    N   N3    0.471952  0.970617  0.232896  -0.314492
    N   N4    0.027822  0.472440  0.232951  -0.314748
    N   N5    0.529533  0.972819  0.766953  -0.317692
    N   N6    0.972195  0.471031  0.767007  -0.317916
    N   N7    0.471571  0.027882  0.767144  -0.316493
    N   N8    0.028798  0.527493  0.767190  -0.316836
    N   N9    0.028829  0.527659  0.733034  -0.318055
    N   N10   0.471436  0.027950  0.732987  -0.315155
    N   N11   0.972348  0.471074  0.732850  -0.316919
    N   N12   0.529503  0.972999  0.732796  -0.313964
    N   N13   0.027698  0.472337  0.267108  -0.314945
    N   N14   0.471983  0.970597  0.267052  -0.316675
    N   N15   0.971225  0.528922  0.267089  -0.314229
    N   N16   0.527046  0.028559  0.267045  -0.316713
    C   C65   0.499557  0.999539  0.284555  0.883728
    C   C66   0.999422  0.500601  0.284607  0.880431
    C   C67   0.500428  0.000539  0.715385  0.881409
    C   C68   0.000636  0.499421  0.715438  0.885845
    C   C69   0.000450  0.499209  0.784603  0.886221
    C   C70   0.500594  0.000288  0.784555  0.885072
    C   C71   0.999577  0.500715  0.215433  0.880789
    C   C72   0.499383  0.999688  0.215385  0.880203
    C   C73   0.499351  0.860610  0.999914  -0.285462
    C   C74   0.139239  0.500840  0.000010  -0.297473
    C   C75   0.500651  0.139170  0.999990  -0.299333
    C   C76   0.860682  0.498943  0.000060  -0.284717
    C   C77   0.998955  0.360829  0.499842  -0.297399
    C   C78   0.639273  0.999304  0.499988  -0.298193
    C   C79   0.001114  0.639385  0.500183  -0.284383
    C   C80   0.360714  0.000919  0.499939  -0.284676
    C   C81   0.499505  0.819179  0.999978  0.118446
    C   C82   0.180670  0.500729  0.999936  0.125828
    C   C83   0.500488  0.180600  0.999958  0.126476
    C   C84   0.819251  0.499056  0.000114  0.118957
    C   C85   0.999029  0.319398  0.499793  0.125144
    C   C86   0.680704  0.999417  0.500081  0.125774
    C   C87   0.001031  0.680816  0.500266  0.118205
    C   C88   0.319283  0.000802  0.499902  0.118964
    C   C89   0.499661  0.770628  0.000085  -0.064719
    C   C90   0.229222  0.500582  0.999831  -0.069927
    C   C91   0.500317  0.229151  0.999887  -0.069913
    C   C92   0.770700  0.499204  0.000201  -0.065854
    C   C93   0.999137  0.270846  0.499725  -0.068957
    C   C94   0.729255  0.999535  0.500211  -0.069302
    C   C95   0.000907  0.729368  0.500373  -0.065153
    C   C96   0.270732  0.000680  0.499838  -0.065902
    C   C97   0.499774  0.729188  0.000194  0.067815
    C   C98   0.270661  0.500448  0.999729  0.071168
    C   C99   0.500190  0.270590  0.999800  0.071012
    C   C100  0.729260  0.499337  0.000293  0.069187
    C   C101  0.999246  0.229406  0.499655  0.070279
    C   C102  0.770694  0.999628  0.500331  0.070453
    C   C103  0.000782  0.770808  0.500470  0.069051
    C   C104  0.229292  0.000586  0.499764  0.069016
    C   C105  0.499882  0.680632  0.000339  -0.068452
    C   C106  0.319218  0.500290  0.999598  -0.070763
    C   C107  0.500065  0.319146  0.999670  -0.070410
    C   C108  0.680704  0.499494  0.000418  -0.069960
    C   C109  0.999392  0.180850  0.499559  -0.070081
    C   C110  0.819251  0.999728  0.500478  -0.070159
    C   C111  0.000620  0.819364  0.500587  -0.070710
    C   C112  0.180736  0.000485  0.499656  -0.069353
    C   C113  0.499951  0.639194  0.000474  -0.050090
    C   C114  0.360656  0.500160  0.999478  -0.048758
    C   C115  0.499983  0.360585  0.999540  -0.049010
    C   C116  0.639266  0.499621  0.000536  -0.048758
    C   C117  0.999528  0.139411  0.499467  -0.049121
    C   C118  0.860689  0.999808  0.500607  -0.049012
    C   C119  0.000471  0.860803  0.500690  -0.047956
    C   C120  0.139298  0.000404  0.499547  -0.049611
    O   O33   0.431511  0.501100  0.029126  -0.667228
    O   O34   0.501006  0.431460  0.029158  -0.667059
    O   O35   0.568755  0.500941  0.030602  -0.652557
    O   O36   0.501133  0.568705  0.030571  -0.652502
    O   O37   0.431167  0.498827  0.969413  -0.652300
    O   O38   0.498906  0.568319  0.970857  -0.667154
    O   O39   0.568411  0.498690  0.970889  -0.667411
    O   O40   0.498801  0.431074  0.969444  -0.651778
    O   O41   0.931205  0.998854  0.530676  -0.651960
    O   O42   0.999081  0.931345  0.530716  -0.652267
    O   O43   0.068449  0.999208  0.529199  -0.666990
    O   O44   0.998695  0.068586  0.529157  -0.667089
    O   O45   0.931539  0.000995  0.470961  -0.666517
    O   O46   0.000895  0.068869  0.469443  -0.651707
    O   O47   0.068781  0.001371  0.469484  -0.651736
    O   O48   0.001303  0.931628  0.471003  -0.666555
    C   C121  0.409992  0.500022  0.999327  0.720761
    C   C122  0.499919  0.409920  0.999369  0.720305
    C   C123  0.589930  0.499757  0.000687  0.721020
    C   C124  0.500003  0.589859  0.000646  0.721404
    C   C125  0.910024  0.999900  0.500760  0.720203
    C   C126  0.000287  0.910139  0.500814  0.720013
    C   C127  0.089962  0.000313  0.499399  0.720852
    C   C128  0.999701  0.090075  0.499345  0.720451
    Zn  Zn9   0.499964  0.499924  0.039176  1.302987
    Zn  Zn10  0.499958  0.499855  0.960839  1.302735
    Zn  Zn11  0.999991  0.000146  0.539249  1.302526
    Zn  Zn12  0.999996  0.000068  0.460911  1.301678
    C   C129  0.454235  0.925902  0.106567  0.835985
    O   O49   0.469936  0.910290  0.079809  -0.476053
    O   O50   0.418510  0.904591  0.121936  -0.343533
    C   C130  0.398444  0.866749  0.107110  0.042306
    H   H17   0.369746  0.854777  0.123702  0.071944
    H   H18   0.424137  0.838730  0.104640  0.045578
    H   H19   0.384729  0.875895  0.081251  0.042499
    C   C131  0.071611  0.452708  0.106598  0.836984
    O   O51   0.087734  0.467495  0.079715  -0.483102
    O   O52   0.091442  0.416214  0.122065  -0.341740
    C   C132  0.128322  0.394432  0.107239  0.034072
    H   H20   0.139129  0.365376  0.123931  0.074847
    H   H21   0.157404  0.418882  0.104589  0.048888
    H   H22   0.118479  0.380919  0.081465  0.042639
    C   C133  0.543996  0.073760  0.106527  0.841212
    O   O53   0.528254  0.089362  0.079780  -0.483305
    O   O54   0.579745  0.095078  0.121857  -0.345079
    C   C134  0.599779  0.132920  0.107007  0.042810
    H   H23   0.628506  0.144899  0.123567  0.072255
    H   H24   0.574077  0.160934  0.104560  0.046183
    H   H25   0.613448  0.123770  0.081134  0.041519
    C   C135  0.927929  0.549075  0.106560  0.828640
    O   O55   0.911842  0.534317  0.079656  -0.474110
    O   O56   0.908080  0.585553  0.122036  -0.339858
    C   C136  0.871225  0.607361  0.107195  0.033925
    H   H26   0.860400  0.636398  0.123898  0.074553
    H   H27   0.842143  0.582919  0.104504  0.048294
    H   H28   0.881109  0.620904  0.081438  0.043155
    C   C137  0.452092  0.071387  0.893584  0.839360
    O   O57   0.466887  0.087638  0.920421  -0.484257
    O   O58   0.415319  0.090875  0.878245  -0.343705
    C   C138  0.393264  0.127529  0.893160  0.037837
    H   H29   0.364007  0.138065  0.876569  0.073955
    H   H30   0.417444  0.156845  0.895744  0.048217
    H   H31   0.379997  0.117534  0.918974  0.041425
    C   C139  0.073684  0.544454  0.893604  0.841486
    O   O59   0.089431  0.528735  0.920311  -0.483556
    O   O60   0.094656  0.580482  0.878372  -0.345216
    C   C140  0.132288  0.600822  0.893288  0.041283
    H   H32   0.143992  0.629742  0.876806  0.072724
    H   H33   0.160555  0.575389  0.895679  0.046816
    H   H34   0.122988  0.614282  0.919192  0.041691
    C   C141  0.549738  0.928568  0.893203  0.829721
    O   O61   0.535135  0.912206  0.920062  -0.475083
    O   O62   0.586389  0.909134  0.877662  -0.340664
    C   C142  0.608539  0.872402  0.892387  0.033766
    H   H35   0.637666  0.861930  0.875645  0.074565
    H   H36   0.584366  0.843084  0.894996  0.048488
    H   H37   0.622003  0.882272  0.918170  0.043287
    C   C143  0.926640  0.453355  0.893247  0.833611
    O   O63   0.910759  0.468936  0.919956  -0.475832
    O   O64   0.905730  0.417427  0.877836  -0.343842
    C   C144  0.868002  0.397026  0.892568  0.040854
    H   H38   0.856373  0.368208  0.875956  0.072473
    H   H39   0.839738  0.422464  0.894950  0.046007
    H   H40   0.877149  0.383413  0.918457  0.042978
    C   C145  0.955351  0.426273  0.606406  0.840680
    O   O65   0.971040  0.410561  0.579677  -0.483407
    O   O66   0.919335  0.405287  0.621642  -0.345340
    C   C146  0.898975  0.367677  0.606709  0.040806
    H   H41   0.870070  0.355956  0.623199  0.073092
    H   H42   0.924401  0.339409  0.604283  0.046893
    H   H43   0.885491  0.377013  0.580820  0.041788
    C   C147  0.574100  0.956059  0.606355  0.841017
    O   O67   0.589638  0.971864  0.579608  -0.483120
    O   O68   0.595446  0.920266  0.621604  -0.345043
    C   C148  0.633242  0.900257  0.606668  0.042806
    H   H44   0.645256  0.871485  0.623171  0.072149
    H   H45   0.661258  0.925955  0.604214  0.046427
    H   H46   0.624019  0.886654  0.580791  0.041455
    C   C149  0.046507  0.573282  0.606824  0.833542
    O   O69   0.030920  0.589197  0.580129  -0.475583
    O   O70   0.082450  0.594163  0.622238  -0.344513
    C   C150  0.102859  0.631897  0.607522  0.042493
    H   H47   0.131690  0.643498  0.624132  0.072089
    H   H48   0.077432  0.660173  0.605162  0.045540
    H   H49   0.116456  0.622770  0.581624  0.042651
    C   C151  0.426265  0.045858  0.606739  0.835464
    O   O71   0.410597  0.030241  0.579972  -0.476151
    O   O72   0.404985  0.081532  0.622197  -0.343464
    C   C152  0.367105  0.101637  0.607456  0.041651
    H   H50   0.355168  0.130283  0.624113  0.072053
    H   H51   0.339085  0.075947  0.604979  0.045767
    H   H52   0.376188  0.115433  0.581609  0.042848
    C   C153  0.950968  0.572267  0.393456  0.828765
    O   O73   0.965684  0.588332  0.420381  -0.474598
    O   O74   0.914522  0.592137  0.377953  -0.338958
    C   C154  0.892700  0.628989  0.392785  0.033072
    H   H53   0.863695  0.639834  0.376057  0.074567
    H   H54   0.917146  0.658062  0.395509  0.048605
    H   H55   0.879109  0.619095  0.418525  0.043321
    C   C155  0.571212  0.048055  0.393392  0.838298
    O   O75   0.587544  0.033304  0.420216  -0.484115
    O   O76   0.590668  0.084789  0.377977  -0.343442
    C   C156  0.627385  0.106853  0.392796  0.038052
    H   H56   0.637880  0.136072  0.376153  0.073856
    H   H57   0.656698  0.082662  0.395349  0.048020
    H   H58   0.617486  0.120174  0.418615  0.041463
    C   C157  0.047279  0.428549  0.393466  0.836994
    O   O77   0.032426  0.412402  0.420320  -0.482780
    O   O78   0.083803  0.408724  0.378034  -0.341977
    C   C158  0.105544  0.371825  0.392868  0.035835
    H   H59   0.134636  0.361028  0.376208  0.074356
    H   H60   0.081082  0.342746  0.395471  0.048489
    H   H61   0.119000  0.381641  0.418665  0.042019
    C   C159  0.428366  0.950448  0.393395  0.830041
    O   O79   0.412076  0.965120  0.420257  -0.474807
    O   O80   0.408899  0.913750  0.377939  -0.341049
    C   C160  0.372220  0.891625  0.392760  0.034258
    H   H62   0.361708  0.862450  0.376079  0.074575
    H   H63   0.342901  0.915795  0.395384  0.048264
    H   H64   0.382174  0.878232  0.418545  0.043022
