# Generated by REPEAT Assigner based on pymatgen
data_DB0-m3_o146_o21_f0_fsc.sym.106_sqe
_audit_creation_date              2022-05-24
_audit_creation_method            REPEAT_Assigner
_cell_length_a                    12.383852
_cell_length_b                    15.315884
_cell_length_c                    11.897848
_cell_angle_alpha                 90.000000
_cell_angle_beta                  95.203695
_cell_angle_gamma                 90.000000
_cell_volume                      2247.359869
_symmetry_space_group_name_H-M    P1
_symmetry_Int_Tables_number       1
loop_
    _symmetry_equiv_pos_site_id
    _symmetry_equiv_pos_as_xyz
    1  x,y,z
loop_
    _atom_site_type_symbol
    _atom_site_label
    _atom_site_fract_x
    _atom_site_fract_y
    _atom_site_fract_z
    _atom_type_partial_charge
    C   C1   0.997242  0.277789  0.735959  -0.066126
    C   C2   0.005988  0.671506  0.269908  -0.055191
    C   C3   0.002691  0.277785  0.264128  -0.064845
    C   C4   0.993983  0.671519  0.730152  -0.054237
    C   C5   0.001049  0.051041  0.941682  -0.024536
    C   C6   0.998851  0.893907  0.057888  0.019243
    C   C7   0.998940  0.051039  0.058412  -0.025191
    C   C8   0.001186  0.893908  0.942202  0.017515
    C   C9   0.080806  0.144108  0.803107  -0.152002
    C   C10  0.912295  0.760013  0.124906  -0.252457
    C   C11  0.919153  0.144095  0.196981  -0.151983
    C   C12  0.087619  0.759897  0.875331  -0.249240
    H   H1   0.145242  0.096804  0.799844  0.096125
    H   H2   0.839191  0.774799  0.071627  0.116686
    H   H3   0.854727  0.096783  0.200243  0.096181
    H   H4   0.160675  0.774585  0.928739  0.115913
    C   C13  0.916590  0.266258  0.809301  -0.077990
    C   C14  0.096897  0.725351  0.266545  -0.035437
    C   C15  0.083348  0.266263  0.190790  -0.079240
    C   C16  0.903163  0.725483  0.733347  -0.034626
    C   C17  0.079490  0.216821  0.735247  -0.116755
    C   C18  0.914320  0.689740  0.197929  -0.048225
    C   C19  0.920453  0.216810  0.264838  -0.117287
    C   C20  0.085578  0.689630  0.802296  -0.050473
    H   H5   0.142182  0.223905  0.678372  0.119987
    H   H6   0.842806  0.649352  0.198332  0.107567
    H   H7   0.857758  0.223889  0.321712  0.120041
    H   H8   0.157019  0.649144  0.802014  0.107740
    C   C21  0.000723  0.131505  0.874494  0.189174
    C   C22  0.002061  0.812974  0.123042  0.201164
    C   C23  0.999243  0.131501  0.125599  0.189756
    C   C24  0.997943  0.812976  0.877037  0.198871
    C   C25  0.918599  0.192357  0.876938  -0.142817
    C   C26  0.093506  0.794894  0.192916  -0.136669
    C   C27  0.081355  0.192362  0.123156  -0.142531
    C   C28  0.906573  0.795020  0.806989  -0.136008
    H   H9   0.856383  0.182169  0.933559  0.092018
    H   H10  0.162086  0.838575  0.193218  0.064017
    H   H11  0.143575  0.182181  0.066537  0.091970
    H   H12  0.838088  0.838810  0.806560  0.064221
    C   C29  0.643033  0.472269  0.462613  0.219913
    C   C30  0.356909  0.472233  0.537468  0.219836
    H   H13  0.001739  0.971665  0.794228  0.096499
    H   H14  0.998270  0.971654  0.205864  0.096441
    O   O1   0.090929  0.567930  0.625122  -0.615848
    O   O2   0.908940  0.377542  0.374325  -0.662321
    O   O3   0.909023  0.567932  0.374953  -0.615667
    O   O4   0.090995  0.377540  0.625766  -0.662217
    O   O5   0.904480  0.563925  0.607956  -0.503536
    O   O6   0.095514  0.380229  0.392650  -0.622664
    O   O7   0.095468  0.563908  0.392120  -0.501926
    O   O8   0.904420  0.380244  0.607442  -0.622318
    C   C31  0.996475  0.596771  0.651894  0.567133
    C   C32  0.002910  0.349806  0.346017  0.709526
    C   C33  0.003481  0.596761  0.348174  0.566075
    C   C34  0.997022  0.349813  0.654076  0.709918
    H   H15  0.481121  0.472283  0.371260  0.160306
    H   H16  0.518822  0.472113  0.628821  0.159974
    C   C35  0.001844  0.972257  0.885097  -0.179624
    C   C36  0.998170  0.972252  0.114995  -0.180336
    Zn  Zn1  0.879322  0.472403  0.485851  1.039073
    Zn  Zn2  0.120620  0.472392  0.514233  1.039224
    N   N1   0.263030  0.472345  0.529949  -0.169784
    N   N2   0.736913  0.472364  0.470133  -0.169493
    C   C37  0.473677  0.472141  0.546389  -0.061101
    C   C38  0.526266  0.472198  0.453692  -0.062249
    C   C39  0.833119  0.332753  0.822982  0.275821
    C   C40  0.728883  0.314670  0.847123  -0.286114
    C   C41  0.680877  0.393557  0.857357  -0.144728
    C   C42  0.759064  0.454333  0.839701  -0.058528
    O   O9   0.852239  0.417803  0.819282  -0.085244
    H   H17  0.691673  0.251416  0.855339  0.153728
    H   H18  0.598367  0.405962  0.875740  0.126418
    H   H19  0.746987  0.524179  0.842415  0.082788
    C   C43  0.196082  0.716345  0.342511  0.216544
    C   C44  0.298266  0.719375  0.306621  -0.123666
    C   C45  0.366946  0.714422  0.401658  -0.337556
    C   C46  0.302038  0.709823  0.489245  -0.040747
    O   O10  0.197517  0.711668  0.453822  -0.079886
    H   H20  0.319859  0.724580  0.220845  0.130175
    H   H21  0.454371  0.714652  0.406473  0.176444
    H   H22  0.331868  0.705766  0.577323  0.120668
    C   C47  0.166810  0.332767  0.177108  0.276773
    C   C48  0.271050  0.314693  0.152972  -0.286415
    C   C49  0.319042  0.393584  0.142729  -0.144580
    C   C50  0.240844  0.454353  0.160376  -0.058888
    O   O11  0.147675  0.417815  0.180798  -0.085522
    H   H23  0.308270  0.251442  0.144762  0.153788
    H   H24  0.401551  0.405996  0.124345  0.126421
    H   H25  0.252909  0.524199  0.157652  0.082860
    C   C51  0.804105  0.716651  0.657143  0.213124
    C   C52  0.701816  0.720158  0.692719  -0.122244
    C   C53  0.633344  0.715362  0.597517  -0.335565
    C   C54  0.698470  0.710346  0.510151  -0.042072
    O   O12  0.802933  0.711812  0.545864  -0.077455
    H   H26  0.680011  0.725615  0.778394  0.129627
    H   H27  0.545916  0.716017  0.592447  0.174532
    H   H28  0.668839  0.706303  0.422016  0.120341
