# Generated by REPEAT Assigner based on pymatgen
data_DB0-m3_o7_o9_f0_nbo.sym.137
_audit_creation_date              2022-05-24
_audit_creation_method            REPEAT_Assigner
_cell_length_a                    41.234246
_cell_length_b                    35.540740
_cell_length_c                    21.823940
_cell_angle_alpha                 90.000000
_cell_angle_beta                  120.425066
_cell_angle_gamma                 90.000000
_cell_volume                      27578.595643
_symmetry_space_group_name_H-M    P1
_symmetry_Int_Tables_number       1
loop_
    _symmetry_equiv_pos_site_id
    _symmetry_equiv_pos_as_xyz
    1  x,y,z
loop_
    _atom_site_type_symbol
    _atom_site_label
    _atom_site_fract_x
    _atom_site_fract_y
    _atom_site_fract_z
    _atom_type_partial_charge
    O   O1    0.056241  0.954877  0.058665  -0.640077
    O   O2    0.944363  0.956894  0.939685  -0.661744
    O   O3    0.556241  0.454877  0.058665  -0.640081
    O   O4    0.444363  0.456894  0.939685  -0.661822
    O   O5    0.056112  0.019773  0.059844  -0.699049
    O   O6    0.944163  0.021756  0.943466  -0.688814
    O   O7    0.556112  0.519773  0.059844  -0.699081
    O   O8    0.444163  0.521756  0.943466  -0.688891
    C   C1    0.073763  0.987343  0.077947  0.633308
    C   C2    0.926679  0.989333  0.922882  0.646377
    C   C3    0.573763  0.487343  0.077947  0.633467
    C   C4    0.426679  0.489333  0.922882  0.646848
    O   O9    0.997360  0.956732  0.088775  -0.711482
    O   O10   0.004672  0.954959  0.913477  -0.689805
    O   O11   0.497360  0.456732  0.088775  -0.711512
    O   O12   0.504672  0.454959  0.913477  -0.689807
    O   O13   0.996657  0.021700  0.088280  -0.693667
    O   O14   0.002203  0.019874  0.911177  -0.704085
    O   O15   0.496657  0.521700  0.088280  -0.693745
    O   O16   0.502203  0.519874  0.911177  -0.704117
    C   C5    0.995864  0.989219  0.115865  0.654491
    C   C6    0.004536  0.987494  0.884933  0.641058
    C   C7    0.495864  0.489219  0.115865  0.654352
    C   C8    0.504536  0.487494  0.884933  0.641064
    Zn  Zn1   0.000070  0.945718  0.000370  1.312486
    Zn  Zn2   0.500070  0.445718  0.000370  1.312516
    Zn  Zn3   0.000354  0.030938  0.000431  1.326491
    Zn  Zn4   0.500354  0.530938  0.000431  1.326562
    H   H1    0.863735  0.882973  0.993865  0.110015
    H   H2    0.141140  0.886910  0.009623  0.106865
    H   H3    0.363735  0.382973  0.993865  0.110034
    H   H4    0.641140  0.386910  0.009623  0.106864
    C   C9    0.914126  0.883583  0.095301  -0.105459
    C   C10   0.090199  0.885296  0.909113  -0.113991
    C   C11   0.414126  0.383583  0.095301  -0.105445
    C   C12   0.590199  0.385296  0.909113  -0.113986
    H   H5    0.913834  0.853574  0.103034  0.110673
    H   H6    0.091502  0.855261  0.902889  0.112469
    H   H7    0.413834  0.353574  0.103034  0.110672
    H   H8    0.591502  0.355261  0.902889  0.112470
    C   C13   0.942284  0.905453  0.147081  -0.208200
    C   C14   0.061021  0.905952  0.856723  -0.201554
    C   C15   0.442284  0.405453  0.147081  -0.208157
    C   C16   0.561021  0.405952  0.856723  -0.201540
    H   H9    0.963985  0.892498  0.195377  0.119205
    H   H10   0.039544  0.892042  0.809422  0.118588
    H   H11   0.463985  0.392498  0.195377  0.119183
    H   H12   0.539544  0.392042  0.809422  0.118581
    C   C17   0.942960  0.943714  0.137022  0.289434
    C   C18   0.059066  0.944231  0.864905  0.274703
    C   C19   0.442960  0.443714  0.137022  0.289570
    C   C20   0.559066  0.444231  0.864905  0.274646
    C   C21   0.914755  0.960156  0.075746  -0.157320
    C   C22   0.086989  0.961933  0.924819  -0.138171
    C   C23   0.414755  0.460156  0.075746  -0.157523
    C   C24   0.586989  0.461933  0.924819  -0.138171
    H   H13   0.914430  0.990261  0.068394  0.093209
    H   H14   0.086267  0.992078  0.930611  0.087047
    H   H15   0.414430  0.490261  0.068394  0.093251
    H   H16   0.586267  0.492078  0.930611  0.087047
    C   C25   0.886214  0.938360  0.024692  -0.099796
    C   C26   0.116575  0.941375  0.976384  -0.108350
    C   C27   0.386214  0.438360  0.024692  -0.099626
    C   C28   0.616575  0.441375  0.976384  -0.108333
    H   H17   0.863706  0.951389  0.977613  0.104421
    H   H18   0.138871  0.955417  0.022324  0.103023
    H   H19   0.363706  0.451389  0.977613  0.104398
    H   H20   0.638871  0.455417  0.022324  0.103020
    C   C29   0.886071  0.900041  0.034104  -0.142716
    C   C30   0.118001  0.903015  0.968941  -0.130406
    C   C31   0.386071  0.400041  0.034104  -0.142818
    C   C32   0.618001  0.403015  0.968941  -0.130425
    C   C33   0.973278  0.968267  0.258137  -0.227307
    C   C34   0.027658  0.967636  0.742991  -0.233774
    C   C35   0.473278  0.468267  0.258137  -0.227021
    C   C36   0.527658  0.467636  0.742991  -0.233812
    H   H21   0.954360  0.950838  0.266437  0.134094
    H   H22   0.047183  0.950980  0.735120  0.132086
    H   H23   0.454360  0.450838  0.266437  0.134044
    H   H24   0.547183  0.450980  0.735120  0.132095
    C   C37   0.998377  0.991611  0.311823  0.097180
    C   C38   0.001776  0.990192  0.688767  0.108274
    C   C39   0.498377  0.491611  0.311823  0.097008
    C   C40   0.501776  0.490192  0.688767  0.108279
    C   C41   0.022157  0.014379  0.300469  0.011707
    C   C42   0.977306  0.012108  0.699604  0.002819
    C   C43   0.522157  0.514379  0.300469  0.011874
    C   C44   0.477306  0.512108  0.699604  0.002752
    C   C45   0.020506  0.013198  0.235872  -0.312236
    C   C46   0.978958  0.010795  0.764191  -0.302856
    C   C47   0.520506  0.513198  0.235872  -0.312509
    C   C48   0.478958  0.510795  0.764191  -0.302770
    H   H25   0.038862  0.031131  0.226868  0.152921
    H   H26   0.960038  0.028078  0.772745  0.151894
    H   H27   0.538862  0.531131  0.226868  0.152998
    H   H28   0.460038  0.528078  0.772745  0.151863
    C   C49   0.995652  0.989659  0.182532  0.193215
    C   C50   0.004615  0.988033  0.818127  0.189083
    C   C51   0.495652  0.489659  0.182532  0.193658
    C   C52   0.504615  0.488033  0.818127  0.188980
    C   C53   0.971767  0.967049  0.193606  -0.129531
    C   C54   0.029254  0.966352  0.807589  -0.121458
    C   C55   0.471767  0.467049  0.193606  -0.129929
    C   C56   0.529254  0.466352  0.807589  -0.121335
    C   C57   0.085665  0.039830  0.377684  -0.108031
    C   C58   0.913170  0.035817  0.621129  -0.108874
    C   C59   0.585665  0.539830  0.377684  -0.108009
    C   C60   0.413170  0.535817  0.621129  -0.108833
    H   H29   0.096850  0.017303  0.360543  0.097424
    H   H30   0.902471  0.012885  0.638362  0.098322
    H   H31   0.596850  0.517303  0.360543  0.097416
    H   H32   0.402471  0.512885  0.638362  0.098314
    C   C61   0.109641  0.066406  0.424867  -0.320572
    C   C62   0.888582  0.061701  0.572987  -0.326820
    C   C63   0.609641  0.566406  0.424867  -0.320576
    C   C64   0.388582  0.561701  0.572987  -0.326854
    H   H33   0.139535  0.064328  0.445161  0.154548
    H   H34   0.858704  0.058640  0.552006  0.158767
    H   H35   0.639535  0.564328  0.445162  0.154544
    H   H36   0.358704  0.558640  0.552006  0.158767
    C   C65   0.095502  0.095536  0.446179  0.318305
    C   C66   0.902087  0.091313  0.551445  0.321769
    C   C67   0.595502  0.595536  0.446179  0.318358
    C   C68   0.402087  0.591313  0.551445  0.321868
    C   C69   0.057451  0.097501  0.421326  -0.223167
    C   C70   0.940143  0.094414  0.577013  -0.216217
    C   C71   0.557451  0.597501  0.421326  -0.223248
    C   C72   0.440143  0.594414  0.577013  -0.216448
    H   H37   0.046293  0.120550  0.437243  0.109363
    H   H38   0.950815  0.117782  0.560835  0.105734
    H   H39   0.546293  0.620550  0.437243  0.109406
    H   H40   0.450815  0.617782  0.560835  0.105845
    C   C73   0.033502  0.070677  0.374876  -0.099615
    C   C74   0.964706  0.068286  0.624417  -0.105494
    C   C75   0.533502  0.570677  0.374876  -0.099547
    C   C76   0.464706  0.568286  0.624417  -0.105364
    H   H41   0.003605  0.072886  0.354518  0.052258
    H   H42   0.994575  0.071369  0.645244  0.055905
    H   H43   0.503605  0.572886  0.354518  0.052260
    H   H44   0.494575  0.571369  0.645244  0.055874
    C   C77   0.047596  0.041626  0.353203  0.158503
    C   C78   0.951242  0.038767  0.646309  0.159728
    C   C79   0.547596  0.541626  0.353203  0.158410
    C   C80   0.451242  0.538767  0.646309  0.159716
    C   C81   0.327032  0.990092  0.276709  -0.188426
    C   C82   0.673386  0.989442  0.724140  -0.192822
    C   C83   0.827032  0.490092  0.276709  -0.188750
    C   C84   0.173386  0.489442  0.724140  -0.192825
    H   H45   0.312007  0.990809  0.219299  0.137007
    H   H46   0.688398  0.988962  0.781558  0.137661
    H   H47   0.812007  0.490809  0.219299  0.137086
    H   H48   0.188398  0.488962  0.781558  0.137658
    C   C85   0.365814  0.990567  0.314162  -0.145502
    C   C86   0.634604  0.989664  0.686682  -0.142545
    C   C87   0.865814  0.490567  0.314162  -0.145185
    C   C88   0.134604  0.489664  0.686682  -0.142513
    H   H49   0.380580  0.991640  0.285062  0.130841
    H   H50   0.619824  0.989337  0.715790  0.130915
    H   H51   0.880580  0.491640  0.285062  0.130778
    H   H52   0.119824  0.489337  0.715790  0.130908
    C   C89   0.385235  0.989739  0.387677  0.013265
    C   C90   0.615199  0.990344  0.613163  0.012789
    C   C91   0.885235  0.489739  0.387677  0.012823
    C   C92   0.115199  0.490344  0.613163  0.012717
    C   C93   0.365356  0.988356  0.423120  -0.192738
    C   C94   0.635097  0.990730  0.577712  -0.191427
    C   C95   0.865356  0.488356  0.423120  -0.192351
    C   C96   0.135097  0.490730  0.577712  -0.191403
    H   H53   0.379755  0.987686  0.480473  0.124223
    H   H54   0.620708  0.991274  0.520355  0.123245
    H   H55   0.879755  0.487686  0.480473  0.124160
    H   H56   0.120708  0.491274  0.520355  0.123246
    C   C97   0.326561  0.987650  0.385428  0.123677
    C   C98   0.673899  0.990284  0.615396  0.117041
    C   C99   0.826561  0.487650  0.385428  0.123366
    C   C100  0.173899  0.490284  0.615396  0.117055
    C   C101  0.307378  0.988702  0.312222  0.146615
    C   C102  0.693060  0.989819  0.688623  0.155148
    C   C103  0.807378  0.488702  0.312222  0.146945
    C   C104  0.193060  0.489819  0.688623  0.155143
    C   C105  0.266991  0.988192  0.272937  -0.081163
    C   C106  0.733448  0.989516  0.727922  -0.087556
    C   C107  0.766991  0.488192  0.272937  -0.081323
    C   C108  0.233448  0.489516  0.727922  -0.087536
    C   C109  0.233095  0.987862  0.239963  -0.216063
    C   C110  0.767345  0.989354  0.760916  -0.209341
    C   C111  0.733095  0.487862  0.239963  -0.215924
    C   C112  0.267345  0.489354  0.760916  -0.209394
    C   C113  0.173380  0.020901  0.173694  -0.214553
    C   C114  0.826899  0.022388  0.829584  -0.207466
    C   C115  0.673380  0.520901  0.173694  -0.214584
    C   C116  0.326899  0.522388  0.829584  -0.207592
    H   H57   0.188640  0.047010  0.183115  0.144669
    H   H58   0.811514  0.048249  0.822007  0.144182
    H   H59   0.688640  0.547010  0.183115  0.144677
    H   H60   0.311514  0.548249  0.822007  0.144197
    C   C117  0.134629  0.020868  0.134447  -0.131700
    C   C118  0.865651  0.022479  0.868836  -0.140282
    C   C119  0.634629  0.520868  0.134447  -0.131554
    C   C120  0.365651  0.522479  0.868836  -0.139947
    H   H61   0.120106  0.047205  0.113408  0.123251
    H   H62   0.880048  0.048655  0.891735  0.125449
    H   H63   0.620106  0.547205  0.113408  0.123215
    H   H64   0.380048  0.548655  0.891735  0.125352
    C   C121  0.114945  0.987480  0.121422  0.122112
    C   C122  0.885495  0.989390  0.879472  0.120107
    C   C123  0.614945  0.487480  0.121422  0.121797
    C   C124  0.385495  0.489390  0.879472  0.119478
    C   C125  0.134487  0.954249  0.149043  -0.154821
    C   C126  0.866111  0.956356  0.849508  -0.153573
    C   C127  0.634487  0.454249  0.149043  -0.154537
    C   C128  0.366111  0.456356  0.849508  -0.153268
    H   H65   0.119801  0.927800  0.139798  0.120158
    H   H66   0.880921  0.930145  0.856857  0.120079
    H   H67   0.619801  0.427800  0.139798  0.120097
    H   H68   0.380921  0.430145  0.856857  0.120006
    C   C129  0.173271  0.954429  0.188338  -0.172844
    C   C130  0.827327  0.956412  0.810227  -0.170486
    C   C131  0.673271  0.454429  0.188338  -0.172889
    C   C132  0.327327  0.456412  0.810227  -0.170614
    H   H69   0.188440  0.928371  0.209273  0.137492
    H   H70   0.812283  0.930494  0.787427  0.136761
    H   H71   0.688440  0.428371  0.209273  0.137476
    H   H72   0.312283  0.430494  0.787427  0.136775
    C   C133  0.192726  0.987713  0.200382  0.289738
    C   C134  0.807713  0.989378  0.800530  0.280993
    C   C135  0.692726  0.487713  0.200382  0.289655
    C   C136  0.307713  0.489378  0.800530  0.281137
    O   O17   0.968407  0.046610  0.468682  -0.684039
    O   O18   0.033321  0.046845  0.534710  -0.669951
    O   O19   0.468407  0.546610  0.468682  -0.684091
    O   O20   0.533321  0.546845  0.534710  -0.669988
    C   C137  0.000805  0.064265  0.501820  0.578214
    C   C138  0.500805  0.564265  0.501820  0.578286
    O   O21   0.966524  0.989733  0.376964  -0.702874
    O   O22   0.033683  0.990630  0.623701  -0.702099
    O   O23   0.466524  0.489733  0.376964  -0.702877
    O   O24   0.533683  0.490630  0.623701  -0.702118
    O   O25   0.031381  0.992209  0.438920  -0.721112
    O   O26   0.968773  0.989709  0.561720  -0.720990
    O   O27   0.531381  0.492209  0.438920  -0.721116
    O   O28   0.468773  0.489709  0.561720  -0.721030
    C   C139  0.998887  0.991464  0.379318  0.713455
    C   C140  0.001277  0.990378  0.621309  0.712574
    C   C141  0.498887  0.491464  0.379318  0.713473
    C   C142  0.501277  0.490378  0.621309  0.712636
    Zn  Zn5   0.957520  0.990635  0.459955  1.315293
    Zn  Zn6   0.042686  0.990630  0.540698  1.317258
    Zn  Zn7   0.457520  0.490635  0.459955  1.315326
    Zn  Zn8   0.542686  0.490630  0.540698  1.317287
    O   O29   0.966916  0.934431  0.467227  -0.650973
    O   O30   0.031759  0.934677  0.530725  -0.669145
    O   O31   0.466916  0.434431  0.467227  -0.650967
    O   O32   0.531759  0.434677  0.530725  -0.669151
    C   C143  0.999394  0.916925  0.498864  0.586515
    C   C144  0.499394  0.416925  0.498864  0.586501
    O   O33   0.500691  0.046494  0.551969  -0.699447
    O   O34   0.499567  0.046498  0.445293  -0.681849
    O   O35   0.000691  0.546494  0.551969  -0.699503
    O   O36   0.999567  0.546498  0.445293  -0.681913
    C   C145  0.500125  0.064131  0.498611  0.618086
    C   C146  0.000125  0.564131  0.498611  0.618176
    O   O37   0.443979  0.989482  0.497301  -0.715522
    O   O38   0.556452  0.991230  0.503544  -0.711845
    O   O39   0.943979  0.489482  0.497301  -0.715594
    O   O40   0.056452  0.491230  0.503544  -0.711872
    O   O41   0.444350  0.991012  0.392059  -0.677975
    O   O42   0.556083  0.989717  0.608789  -0.680568
    O   O43   0.944350  0.491012  0.392059  -0.677960
    O   O44   0.056083  0.489717  0.608789  -0.680555
    C   C147  0.426517  0.990180  0.427612  0.721376
    C   C148  0.573915  0.990527  0.573236  0.720525
    C   C149  0.926517  0.490180  0.427612  0.721583
    C   C150  0.073915  0.490527  0.573236  0.720585
    Zn  Zn9   0.499804  0.990599  0.569331  1.323474
    Zn  Zn10  0.500629  0.990245  0.431482  1.319974
    Zn  Zn11  0.999804  0.490599  0.569331  1.323492
    Zn  Zn12  0.000629  0.490245  0.431482  1.319976
    O   O45   0.500891  0.934318  0.555560  -0.681902
    O   O46   0.499717  0.934320  0.448804  -0.698883
    O   O47   0.000891  0.434318  0.555560  -0.681917
    O   O48   0.999717  0.434320  0.448804  -0.698901
    C   C151  0.500307  0.916695  0.502202  0.621795
    C   C152  0.000307  0.416695  0.502202  0.621794
    C   C153  0.501038  0.817033  0.557543  -0.210081
    C   C154  0.499691  0.817026  0.447011  -0.211300
    C   C155  0.001038  0.317033  0.557543  -0.210011
    C   C156  0.999691  0.317026  0.447011  -0.211161
    H   H73   0.501577  0.801801  0.600916  0.142096
    H   H74   0.499171  0.801787  0.403662  0.142592
    H   H75   0.001577  0.301801  0.600916  0.142087
    H   H76   0.999171  0.301787  0.403662  0.142570
    C   C157  0.501015  0.855820  0.557638  -0.147613
    C   C158  0.499669  0.855812  0.446859  -0.147939
    C   C159  0.001015  0.355820  0.557638  -0.147679
    C   C160  0.999669  0.355812  0.446859  -0.148127
    H   H77   0.501542  0.870419  0.601555  0.135316
    H   H78   0.499125  0.870404  0.402920  0.136531
    H   H79   0.001542  0.370419  0.601555  0.135320
    H   H80   0.999125  0.370404  0.402920  0.136573
    C   C161  0.500332  0.875444  0.502235  0.121343
    C   C162  0.000332  0.375444  0.502235  0.121460
    C   C163  0.500375  0.797648  0.502291  0.288984
    C   C164  0.000375  0.297648  0.502291  0.288903
    C   C165  0.500406  0.757301  0.502322  -0.174974
    C   C166  0.000406  0.257301  0.502322  -0.174964
    C   C167  0.000438  0.223414  0.502332  -0.117412
    C   C168  0.500438  0.723414  0.502332  -0.117408
    C   C169  0.031330  0.163723  0.553418  -0.163315
    C   C170  0.969698  0.163669  0.451178  -0.173632
    C   C171  0.531330  0.663723  0.553418  -0.163336
    C   C172  0.469698  0.663669  0.451178  -0.173629
    H   H81   0.055458  0.178954  0.593608  0.135263
    H   H82   0.945522  0.178860  0.411031  0.135452
    H   H83   0.555458  0.678954  0.593608  0.135276
    H   H84   0.445522  0.678860  0.411031  0.135458
    C   C173  0.031408  0.124953  0.553488  -0.217474
    C   C174  0.969771  0.124900  0.450919  -0.198867
    C   C175  0.531408  0.624953  0.553488  -0.217489
    C   C176  0.469771  0.624900  0.450919  -0.198922
    H   H85   0.055571  0.110177  0.594502  0.144717
    H   H86   0.945672  0.110090  0.409815  0.142845
    H   H87   0.555571  0.610177  0.594502  0.144726
    H   H88   0.445672  0.610090  0.409815  0.142867
    C   C177  0.000644  0.105395  0.502119  0.331896
    C   C178  0.500644  0.605395  0.502119  0.331877
    C   C179  0.000485  0.183071  0.502321  0.199692
    C   C180  0.500485  0.683071  0.502321  0.199700
    C   C181  0.499421  0.163830  0.443327  -0.203291
    C   C182  0.500684  0.163823  0.553774  -0.205693
    C   C183  0.999421  0.663830  0.443327  -0.203325
    C   C184  0.000684  0.663823  0.553774  -0.205719
    H   H89   0.498907  0.179065  0.399979  0.141121
    H   H90   0.501162  0.179052  0.597094  0.141351
    H   H91   0.998907  0.679065  0.399979  0.141128
    H   H92   0.001162  0.679052  0.597094  0.141357
    C   C185  0.499453  0.125037  0.443228  -0.157616
    C   C186  0.500717  0.125031  0.553923  -0.153673
    C   C187  0.999453  0.625037  0.443228  -0.157583
    C   C188  0.000717  0.625031  0.553923  -0.153637
    H   H93   0.498959  0.110442  0.399339  0.136589
    H   H94   0.501230  0.110433  0.597828  0.136371
    H   H95   0.998959  0.610442  0.399339  0.136584
    H   H96   0.001230  0.610433  0.597828  0.136365
    C   C189  0.500098  0.105396  0.498585  0.129733
    C   C190  0.000098  0.605396  0.498585  0.129679
    C   C191  0.500035  0.183220  0.498539  0.283131
    C   C192  0.000035  0.683220  0.498539  0.283162
    C   C193  0.499971  0.223582  0.498498  -0.163072
    C   C194  0.999971  0.723582  0.498498  -0.163076
    C   C195  0.999898  0.757478  0.498482  -0.149293
    C   C196  0.499898  0.257478  0.498482  -0.149293
    C   C197  0.033248  0.817336  0.531642  -0.186459
    C   C198  0.966198  0.817128  0.465384  -0.181704
    C   C199  0.533248  0.317336  0.531642  -0.186462
    C   C200  0.466198  0.317128  0.465384  -0.181713
    H   H97   0.059602  0.802186  0.557625  0.132156
    H   H98   0.939939  0.801815  0.439370  0.131216
    H   H99   0.559602  0.302186  0.557625  0.132163
    H   H100  0.439939  0.301815  0.439370  0.131218
    C   C201  0.033201  0.856131  0.531804  -0.159511
    C   C202  0.965999  0.855920  0.465402  -0.162231
    C   C203  0.533201  0.356131  0.531804  -0.159521
    C   C204  0.465999  0.355920  0.465402  -0.162217
    H   H101  0.059801  0.870812  0.558199  0.138726
    H   H102  0.939303  0.870429  0.439106  0.137353
    H   H103  0.559801  0.370812  0.558199  0.138722
    H   H104  0.439303  0.370429  0.439106  0.137346
    C   C205  0.999537  0.875662  0.498665  0.129973
    C   C206  0.499537  0.375662  0.498665  0.129985
    C   C207  0.999783  0.797840  0.498481  0.261908
    C   C208  0.499783  0.297840  0.498481  0.261911
    C   C209  0.120644  0.123582  0.497043  -0.200959
    C   C210  0.139288  0.149756  0.478847  0.318049
    C   C211  0.133769  0.150770  0.405780  -0.414091
    C   C212  0.162169  0.176283  0.528236  -0.278501
    C   C213  0.166356  0.176820  0.595012  -0.078372
    C   C214  0.147546  0.151021  0.612714  -0.187486
    C   C215  0.124690  0.124550  0.563743  -0.015272
    H   H105  0.145326  0.124921  0.395613  0.109358
    H   H106  0.148611  0.175324  0.400113  0.107843
    H   H107  0.103380  0.153321  0.365993  0.098843
    H   H108  0.176826  0.196979  0.514942  0.140232
    H   H109  0.184261  0.197648  0.633387  0.104200
    H   H110  0.150717  0.151526  0.664996  0.110835
    H   H111  0.110191  0.104158  0.577953  0.069089
    C   C216  0.876324  0.118596  0.499417  -0.212323
    C   C217  0.855963  0.143681  0.515596  0.328690
    C   C218  0.860225  0.144423  0.587716  -0.424498
    C   C219  0.832552  0.169515  0.465132  -0.279284
    C   C220  0.829529  0.170465  0.399309  -0.072550
    C   C221  0.850070  0.145812  0.383658  -0.191840
    C   C222  0.873475  0.120043  0.433700  -0.015864
    H   H112  0.849125  0.118095  0.597373  0.111773
    H   H113  0.844242  0.168356  0.591950  0.110429
    H   H114  0.890306  0.147894  0.628720  0.101611
    H   H115  0.816562  0.189356  0.476844  0.138403
    H   H116  0.811196  0.190748  0.360097  0.102680
    H   H117  0.847832  0.146668  0.332146  0.112409
    H   H118  0.889360  0.100567  0.421068  0.069371
    C   C223  0.620644  0.623582  0.497043  -0.201014
    C   C224  0.639288  0.649756  0.478847  0.318091
    C   C225  0.633769  0.650770  0.405780  -0.414143
    C   C226  0.662169  0.676283  0.528236  -0.278521
    C   C227  0.666356  0.676820  0.595012  -0.078368
    C   C228  0.647546  0.651021  0.612714  -0.187494
    C   C229  0.624690  0.624550  0.563743  -0.015236
    H   H119  0.645326  0.624921  0.395613  0.109374
    H   H120  0.648611  0.675324  0.400113  0.107858
    H   H121  0.603380  0.653321  0.365993  0.098851
    H   H122  0.676826  0.696979  0.514942  0.140237
    H   H123  0.684261  0.697648  0.633387  0.104200
    H   H124  0.650717  0.651526  0.664996  0.110834
    H   H125  0.610191  0.604158  0.577953  0.069080
    C   C230  0.376324  0.618596  0.499417  -0.212393
    C   C231  0.355963  0.643681  0.515596  0.328703
    C   C232  0.360225  0.644423  0.587716  -0.424287
    C   C233  0.332552  0.669515  0.465132  -0.279417
    C   C234  0.329529  0.670465  0.399309  -0.072322
    C   C235  0.350070  0.645812  0.383658  -0.192080
    C   C236  0.373475  0.620043  0.433700  -0.015741
    H   H126  0.349125  0.618095  0.597373  0.111720
    H   H127  0.344242  0.668356  0.591950  0.110389
    H   H128  0.390306  0.647894  0.628720  0.101531
    H   H129  0.316562  0.689356  0.476845  0.138417
    H   H130  0.311196  0.690748  0.360097  0.102632
    H   H131  0.347832  0.646668  0.332146  0.112468
    H   H132  0.389360  0.600567  0.421068  0.069357
    C   C237  0.305805  0.986446  0.423216  -0.036856
    C   C238  0.297307  0.952453  0.442748  0.350668
    C   C239  0.309217  0.916276  0.425444  -0.470406
    C   C240  0.277404  0.952108  0.478074  -0.334113
    C   C241  0.266110  0.985439  0.493808  -0.089327
    C   C242  0.274641  0.019232  0.474367  -0.175152
    C   C243  0.294480  0.019715  0.439148  -0.085483
    H   H133  0.296489  0.913616  0.367076  0.113217
    H   H134  0.299787  0.892200  0.444796  0.119676
    H   H135  0.340309  0.915328  0.451502  0.120015
    H   H136  0.270467  0.925814  0.493595  0.154602
    H   H137  0.250522  0.985056  0.521409  0.124845
    H   H138  0.265752  0.045350  0.486692  0.116143
    H   H139  0.301110  0.046229  0.423773  0.083815
    C   C244  0.694687  0.990952  0.577644  -0.040442
    C   C245  0.703007  0.957919  0.554883  0.345133
    C   C246  0.690892  0.920877  0.568636  -0.465796
    C   C247  0.722982  0.959333  0.519739  -0.327104
    C   C248  0.734531  0.993456  0.507398  -0.082742
    C   C249  0.726193  0.026290  0.530077  -0.192942
    C   C250  0.706285  0.025021  0.565129  -0.068084
    H   H140  0.703509  0.916613  0.626661  0.113065
    H   H141  0.700294  0.897757  0.547196  0.118215
    H   H142  0.659790  0.919927  0.542303  0.119314
    H   H143  0.729787  0.933804  0.501734  0.152131
    H   H144  0.750179  0.994447  0.479939  0.122284
    H   H145  0.735293  0.053030  0.520431  0.120891
    H   H146  0.699812  0.050782  0.583053  0.079849
    C   C251  0.805805  0.486446  0.423216  -0.036567
    C   C252  0.797307  0.452453  0.442748  0.350516
    C   C253  0.809217  0.416276  0.425444  -0.470346
    C   C254  0.777404  0.452108  0.478074  -0.334102
    C   C255  0.766110  0.485439  0.493808  -0.089284
    C   C256  0.774641  0.519232  0.474367  -0.175122
    C   C257  0.794480  0.519715  0.439148  -0.085680
    H   H147  0.796489  0.413616  0.367076  0.113198
    H   H148  0.799787  0.392200  0.444795  0.119678
    H   H149  0.840309  0.415328  0.451502  0.119997
    H   H150  0.770467  0.425814  0.493595  0.154604
    H   H151  0.750522  0.485056  0.521409  0.124824
    H   H152  0.765752  0.545350  0.486692  0.116150
    H   H153  0.801110  0.546229  0.423773  0.083831
    C   C258  0.194687  0.490952  0.577644  -0.040476
    C   C259  0.203007  0.457919  0.554883  0.345152
    C   C260  0.190892  0.420877  0.568636  -0.465819
    C   C261  0.222982  0.459333  0.519739  -0.327108
    C   C262  0.234531  0.493456  0.507398  -0.082731
    C   C263  0.226193  0.526290  0.530077  -0.192945
    C   C264  0.206285  0.525021  0.565129  -0.068075
    H   H154  0.203509  0.416613  0.626661  0.113072
    H   H155  0.200294  0.397757  0.547196  0.118220
    H   H156  0.159790  0.419927  0.542303  0.119318
    H   H157  0.229787  0.433804  0.501734  0.152130
    H   H158  0.250179  0.494447  0.479939  0.122281
    H   H159  0.235293  0.553030  0.520431  0.120888
    H   H160  0.199812  0.550782  0.583053  0.079848
