# Generated by REPEAT Assigner based on pymatgen
data_DB0-m3_o12_o16_f0_pcu.sym.84_sqe
_audit_creation_date              2022-05-24
_audit_creation_method            REPEAT_Assigner
_cell_length_a                    9.984200
_cell_length_b                    11.251498
_cell_length_c                    13.305264
_cell_angle_alpha                 91.367321
_cell_angle_beta                  109.530977
_cell_angle_gamma                 92.440713
_cell_volume                      1406.243393
_symmetry_space_group_name_H-M    P1
_symmetry_Int_Tables_number       1
loop_
    _symmetry_equiv_pos_site_id
    _symmetry_equiv_pos_as_xyz
    1  x,y,z
loop_
    _atom_site_type_symbol
    _atom_site_label
    _atom_site_fract_x
    _atom_site_fract_y
    _atom_site_fract_z
    _atom_type_partial_charge
    O   O1   0.926895  0.669007  0.513912  -0.703835
    O   O2   0.133986  0.636694  0.479187  -0.707233
    C   C1   0.040513  0.707580  0.493464  0.863460
    O   O3   0.000891  0.507815  0.680055  -0.684050
    O   O4   0.209025  0.478084  0.647214  -0.638416
    C   C2   0.138981  0.495756  0.713544  0.777046
    Zn  Zn1  0.860759  0.499707  0.529000  1.086935
    Zn  Zn2  0.135689  0.457059  0.485980  1.056539
    O   O5   0.861346  0.319930  0.534374  -0.700068
    O   O6   0.070500  0.287813  0.502244  -0.698409
    O   O7   0.787197  0.480605  0.367629  -0.657157
    O   O8   0.995714  0.447252  0.334889  -0.640367
    C   C3   0.955772  0.249177  0.521265  0.847547
    C   C4   0.857644  0.458804  0.302274  0.720583
    C   C5   0.751801  0.337777  0.023149  -0.229372
    H   H1   0.937076  0.333711  0.159755  0.098096
    H   H2   0.579355  0.277713  0.833904  0.133875
    H   H3   0.794851  0.280920  0.976178  0.117849
    C   C6   0.776911  0.436804  0.188548  -0.082946
    C   C7   0.157655  0.583029  0.887361  -0.083703
    C   C8   0.227550  0.611824  0.994208  0.012371
    C   C9   0.357826  0.565093  0.043692  -0.179184
    C   C10  0.422841  0.493488  0.988592  -0.013070
    C   C11  0.348823  0.462865  0.881363  0.210230
    C   C12  0.559397  0.450661  0.038349  0.035715
    C   C13  0.616401  0.377422  0.979670  0.248745
    C   C14  0.537486  0.340001  0.877416  -0.269566
    C   C15  0.404222  0.379547  0.829610  -0.206699
    C   C16  0.642231  0.478852  0.144670  -0.167184
    C   C17  0.832643  0.368276  0.126754  -0.070351
    C   C18  0.217522  0.511632  0.829612  -0.255173
    H   H4   0.607407  0.534633  0.196553  0.110626
    H   H5   0.055368  0.616149  0.846511  0.124812
    H   H6   0.403461  0.584299  0.127855  0.124048
    H   H7   0.345255  0.339726  0.752348  0.147190
    H   H8   0.106790  0.072108  0.486111  0.120834
    H   H9   0.889951  0.884673  0.529142  0.110920
    C   C19  0.067121  0.836064  0.488447  -0.391398
    C   C20  0.982257  0.914365  0.509127  0.020390
    H   H10  0.836305  0.089178  0.544754  0.159523
    C   C21  0.929154  0.120684  0.526216  -0.374882
    C   C22  0.014303  0.042408  0.505891  -0.009777
    H   H11  0.159656  0.867532  0.469478  0.162443
    H   H12  0.572231  0.403947  0.440266  0.141515
    H   H13  0.424423  0.553263  0.575007  0.132426
    N   N1   0.316857  0.428510  0.458260  -0.275264
    C   C23  0.430043  0.488247  0.515317  0.098120
    H   H14  0.667680  0.589341  0.611946  0.259679
    N   N2   0.679933  0.528464  0.557167  -0.276154
    C   C24  0.566676  0.468853  0.500061  0.069178
    H   H15  0.329242  0.367529  0.403611  0.258455
    C   C25  0.165729  0.686455  0.062748  0.177899
    C   C26  0.257995  0.799599  0.109714  -0.033376
    C   C27  0.234897  0.895303  0.028628  0.073508
    C   C28  0.081612  0.928348  0.994712  0.001415
    C   C29  0.987033  0.821520  0.938893  0.018982
    C   C30  0.009537  0.716209  0.012003  -0.012510
    H   H16  0.168747  0.631302  0.131388  -0.050674
    H   H17  0.372524  0.781918  0.139852  -0.014926
    H   H18  0.229380  0.833549  0.178400  -0.000113
    H   H19  0.261277  0.863229  0.958388  -0.025184
    H   H20  0.304839  0.974961  0.065748  -0.028736
    H   H21  0.065763  0.002136  0.938791  -0.013420
    H   H22  0.054175  0.957455  0.065322  0.001543
    H   H23  0.008658  0.800250  0.864478  -0.001048
    H   H24  0.874418  0.845204  0.916818  -0.020232
    H   H25  0.943640  0.636843  0.969294  -0.022473
    H   H26  0.969919  0.740357  0.077952  0.014453
