# Generated by REPEAT Assigner based on pymatgen
data_DB0-m29_o93_o1470_f0_pts.sym.44
_audit_creation_date              2022-05-24
_audit_creation_method            REPEAT_Assigner
_cell_length_a                    15.155142
_cell_length_b                    11.817995
_cell_length_c                    13.621415
_cell_angle_alpha                 88.783947
_cell_angle_beta                  101.582987
_cell_angle_gamma                 106.018201
_cell_volume                      2295.651505
_symmetry_space_group_name_H-M    P1
_symmetry_Int_Tables_number       1
loop_
    _symmetry_equiv_pos_site_id
    _symmetry_equiv_pos_as_xyz
    1  x,y,z
loop_
    _atom_site_type_symbol
    _atom_site_label
    _atom_site_fract_x
    _atom_site_fract_y
    _atom_site_fract_z
    _atom_type_partial_charge
    C   C1   0.828706  0.048842  0.165880  0.062940
    C   C2   0.915269  0.062975  0.140938  -0.290451
    C   C3   0.920362  0.029269  0.046267  0.391498
    C   C4   0.839277  0.994430  0.972982  -0.260556
    H   H1   0.843759  0.976580  0.896956  0.168046
    C   C5   0.752583  0.988892  0.995080  0.117582
    C   C6   0.746750  0.007941  0.093858  -0.172964
    N   N1   0.008991  0.028199  0.028066  -0.053709
    N   N2   0.004410  0.955510  0.961004  -0.236340
    C   C7   0.109055  0.952110  0.851351  -0.187722
    H   H2   0.051977  0.950578  0.788928  0.153187
    C   C8   0.197081  0.962609  0.833968  -0.139256
    H   H3   0.208292  0.969589  0.757908  0.177685
    C   C9   0.272048  0.970985  0.912403  -0.017379
    C   C10  0.257781  0.959062  0.010779  0.074596
    C   C11  0.167902  0.951096  0.028333  -0.223717
    C   C12  0.094422  0.952444  0.947724  0.372463
    O   O1   0.532895  0.154679  0.733036  -0.601291
    C   C13  0.459064  0.160612  0.665649  0.664758
    O   O2   0.422514  0.103551  0.906748  -0.482622
    O   O3   0.384006  0.070366  0.653496  -0.575959
    O   O4   0.385358  0.922464  0.831558  -0.514289
    C   C14  0.365100  0.997270  0.887318  0.630428
    Fe  Fe1  0.505773  0.996430  0.790305  1.428920
    O   O5   0.597174  0.007648  0.921118  -0.531789
    O   O6   0.675719  0.936832  0.822890  -0.521092
    C   C15  0.670345  0.972076  0.911593  0.542280
    O   O7   0.512355  0.897390  0.675567  -0.530720
    O   O8   0.415766  0.738615  0.734745  -0.472967
    C   C16  0.468007  0.784273  0.670001  0.645758
    O   O9   0.513990  0.082058  0.339418  -0.553750
    O   O10  0.447993  0.195223  0.227018  -0.414845
    C   C17  0.481212  0.174034  0.319973  0.500467
    O   O11  0.423397  0.997329  0.088535  -0.479037
    O   O12  0.317545  0.889505  0.173420  -0.445726
    C   C18  0.335441  0.949203  0.094035  0.524360
    O   O13  0.612529  0.902509  0.370378  -0.452014
    O   O14  0.634964  0.056299  0.177965  -0.613038
    C   C19  0.655188  0.980308  0.123479  0.733016
    O   O15  0.474756  0.826092  0.263753  -0.530040
    C   C20  0.537734  0.813854  0.342098  0.609836
    O   O16  0.594574  0.876955  0.098617  -0.561636
    Fe  Fe2  0.512731  0.989057  0.217301  1.422143
    C   C21  0.491603  0.779142  0.500723  -0.068533
    C   C22  0.474123  0.715249  0.583862  -0.122878
    C   C23  0.471375  0.595901  0.583332  0.147960
    C   C24  0.449819  0.519519  0.669594  -0.114297
    C   C25  0.501468  0.425835  0.681078  -0.034875
    C   C26  0.508799  0.730749  0.418678  -0.066051
    C   C27  0.508738  0.613449  0.418350  0.195733
    C   C28  0.488865  0.546025  0.499841  -0.135596
    C   C29  0.485714  0.420720  0.496934  0.159547
    C   C30  0.483874  0.358881  0.584532  0.017968
    C   C31  0.471034  0.238042  0.580982  -0.076562
    C   C32  0.540844  0.562114  0.337815  -0.384226
    C   C33  0.486458  0.434257  0.313691  0.348430
    C   C34  0.482227  0.364223  0.406750  -0.210374
    C   C35  0.475418  0.243681  0.405730  0.052121
    C   C36  0.466733  0.182989  0.492131  -0.119166
    H   H4   0.473522  0.570731  0.741510  0.093865
    H   H5   0.577683  0.469629  0.703514  0.052181
    H   H6   0.616065  0.567003  0.363844  0.124284
    H   H7   0.525192  0.401369  0.265279  0.005803
    H   H8   0.493510  0.871177  0.498868  0.145614
    H   H9   0.457725  0.089096  0.491778  0.174959
    H   H10  0.373258  0.477062  0.657231  0.079059
    H   H11  0.479196  0.367722  0.741616  0.076246
    H   H12  0.532928  0.610991  0.267806  0.130900
    C   C37  0.824869  0.076632  0.269164  0.731900
    O   O17  0.787326  0.999591  0.320323  -0.517023
    O   O18  0.868261  0.189760  0.310746  -0.589087
    H   H13  0.860862  0.193234  0.382736  0.421136
    C   C38  0.389716  0.425949  0.256112  0.615796
    O   O19  0.332089  0.449386  0.297081  -0.494509
    O   O20  0.365101  0.390708  0.155184  -0.569124
    H   H14  0.297663  0.389411  0.127438  0.425470
    C   C39  0.002528  0.103641  0.216820  0.755071
    O   O21  0.069549  0.177332  0.196004  -0.519509
    O   O22  0.010368  0.056783  0.311817  -0.567637
    H   H15  0.074961  0.093863  0.353571  0.410922
    C   C40  0.149733  0.939494  0.130880  0.665813
    O   O23  0.197132  0.011536  0.197063  -0.460695
    O   O24  0.075374  0.849224  0.151519  -0.519285
    H   H16  0.071800  0.854693  0.224589  0.381597
