# Generated by REPEAT Assigner based on pymatgen
data_DB0-m3_o24_o28_f0_pcu.sym.19
_audit_creation_date              2022-05-24
_audit_creation_method            REPEAT_Assigner
_cell_length_a                    23.444514
_cell_length_b                    10.775971
_cell_length_c                    9.750099
_cell_angle_alpha                 90.008048
_cell_angle_beta                  89.979230
_cell_angle_gamma                 90.002152
_cell_volume                      2463.239425
_symmetry_space_group_name_H-M    P1
_symmetry_Int_Tables_number       1
loop_
    _symmetry_equiv_pos_site_id
    _symmetry_equiv_pos_as_xyz
    1  x,y,z
loop_
    _atom_site_type_symbol
    _atom_site_label
    _atom_site_fract_x
    _atom_site_fract_y
    _atom_site_fract_z
    _atom_type_partial_charge
    O   O1   0.500533  0.315423  0.619301  -0.670996
    O   O2   0.499471  0.684548  0.380700  -0.670882
    O   O3   0.500035  0.314765  0.382334  -0.664648
    O   O4   0.499968  0.685207  0.617667  -0.664596
    C   C1   0.500297  0.257395  0.501058  0.668170
    C   C2   0.499707  0.742577  0.498943  0.668048
    O   O5   0.415548  0.499776  0.622959  -0.668538
    O   O6   0.584456  0.500195  0.377042  -0.668431
    O   O7   0.414548  0.498946  0.386210  -0.645095
    O   O8   0.585456  0.501026  0.613791  -0.645109
    C   C3   0.388339  0.499181  0.505194  0.718462
    C   C4   0.611665  0.500791  0.494807  0.718532
    Zn  Zn1  0.500864  0.500448  0.656246  1.049528
    Zn  Zn2  0.499140  0.499524  0.343756  1.049522
    C   C5   0.882317  0.591315  0.431093  0.468084
    C   C6   0.117687  0.408657  0.568908  0.468605
    N   N1   0.853467  0.499336  0.494483  -0.204479
    N   N2   0.146537  0.500636  0.505518  -0.204989
    C   C7   0.881658  0.407447  0.559696  0.460618
    C   C8   0.118346  0.592525  0.440305  0.461454
    C   C9   0.940649  0.406513  0.562950  -0.104908
    C   C10  0.059354  0.593459  0.437051  -0.105884
    C   C11  0.970569  0.499794  0.498771  0.095990
    C   C12  0.029435  0.500178  0.501230  0.097086
    C   C13  0.941331  0.592712  0.432176  -0.108468
    C   C14  0.058672  0.407260  0.567825  -0.109031
    C   C15  0.969920  0.312852  0.629556  -0.060556
    C   C16  0.030083  0.687120  0.370445  -0.060392
    C   C17  0.028703  0.313219  0.631978  -0.063925
    C   C18  0.971300  0.686753  0.368023  -0.063847
    O   O9   0.853470  0.683640  0.369706  -0.487930
    O   O10  0.146533  0.316332  0.630295  -0.487989
    O   O11  0.852191  0.315041  0.619272  -0.485155
    O   O12  0.147813  0.684931  0.380729  -0.485235
    H   H1   0.947541  0.238396  0.680690  0.128614
    H   H2   0.052462  0.761575  0.319312  0.128586
    H   H3   0.050526  0.239013  0.684869  0.129715
    H   H4   0.949478  0.760959  0.315132  0.129631
    C   C19  0.237139  0.498552  0.383696  -0.216227
    C   C20  0.762865  0.501420  0.616305  -0.216865
    H   H5   0.214444  0.496322  0.287224  0.141078
    H   H6   0.785559  0.503650  0.712777  0.141191
    C   C21  0.295924  0.498020  0.383545  -0.050665
    C   C22  0.704080  0.501952  0.616456  -0.050291
    H   H7   0.317981  0.496535  0.286249  0.118658
    H   H8   0.682022  0.503438  0.713752  0.118620
    C   C23  0.325739  0.499121  0.505952  -0.076725
    C   C24  0.674265  0.500850  0.494049  -0.077151
    C   C25  0.295958  0.500441  0.628442  -0.098946
    C   C26  0.704046  0.499530  0.371559  -0.098580
    H   H9   0.318129  0.501660  0.725545  0.129103
    H   H10  0.681875  0.498312  0.274457  0.129118
    C   C27  0.237104  0.500730  0.628294  -0.180696
    C   C28  0.762900  0.499241  0.371707  -0.181420
    H   H11  0.214360  0.503221  0.724735  0.133635
    H   H12  0.785643  0.496750  0.275266  0.133758
    C   C29  0.207442  0.500004  0.505934  0.280857
    C   C30  0.792562  0.499968  0.494067  0.281715
    C   C31  0.495923  0.039154  0.627885  -0.050982
    C   C32  0.504081  0.960818  0.372116  -0.051009
    C   C33  0.543788  0.958601  0.571715  -0.089629
    C   C34  0.456216  0.041371  0.428286  -0.089551
    H   H13  0.580281  0.921473  0.631286  0.043272
    H   H14  0.419723  0.078499  0.368716  0.043262
    H   H15  0.491993  0.072001  0.735001  0.039061
    H   H16  0.508011  0.927970  0.265000  0.039045
    C   C35  0.499917  0.880725  0.498571  0.059818
    C   C36  0.500087  0.119246  0.501430  0.059742
    C   C37  0.452070  0.959097  0.554685  -0.006292
    C   C38  0.547934  0.040875  0.445316  -0.006239
    H   H17  0.412137  0.922286  0.600130  0.023628
    H   H18  0.587867  0.077685  0.399871  0.023625
    C   C39  0.477187  0.402609  0.044245  0.009989
    C   C40  0.522817  0.597363  0.955756  0.010158
    C   C41  0.528632  0.410657  0.954830  0.148617
    C   C42  0.471372  0.589315  0.045172  0.148643
    N   N3   0.502775  0.501066  0.861565  -0.139182
    N   N4   0.497229  0.498906  0.138436  -0.139095
    C   C43  0.450792  0.492937  0.945614  0.003669
    C   C44  0.549212  0.507035  0.054387  0.003499
    H   H19  0.408044  0.486705  0.897827  0.096273
    H   H20  0.591960  0.513267  0.102174  0.096243
    C   C45  0.565078  0.304252  0.901655  0.072952
    C   C46  0.603998  0.254565  0.013186  -0.344613
    H   H21  0.638527  0.322202  0.034283  0.074122
    H   H22  0.579511  0.236941  0.108345  0.073704
    H   H23  0.623528  0.166482  0.977743  0.096802
    H   H24  0.537240  0.228429  0.865176  0.034085
    H   H25  0.591888  0.337274  0.815556  0.025249
    C   C47  0.434925  0.695720  0.098346  0.072352
    C   C48  0.396006  0.745407  0.986815  -0.344451
    H   H26  0.420493  0.763031  0.891656  0.073700
    H   H27  0.361477  0.677770  0.965718  0.074082
    H   H28  0.376476  0.833490  0.022258  0.096817
    H   H29  0.408116  0.662698  0.184446  0.025382
    H   H30  0.462764  0.771543  0.134826  0.034249
    C   C49  0.447514  0.286413  0.096913  0.190285
    C   C50  0.411569  0.227166  0.985358  -0.421942
    H   H31  0.372886  0.283906  0.966862  0.088971
    H   H32  0.436390  0.219243  0.889169  0.098717
    H   H33  0.398184  0.133310  0.019136  0.109302
    H   H34  0.479632  0.218531  0.132926  0.024372
    H   H35  0.419053  0.311571  0.183339  0.004950
    C   C51  0.552490  0.713559  0.903088  0.190111
    C   C52  0.588435  0.772806  0.014643  -0.421718
    H   H36  0.563614  0.780729  0.110832  0.098646
    H   H37  0.627118  0.716066  0.033139  0.088894
    H   H38  0.601819  0.866662  0.980866  0.109285
    H   H39  0.580951  0.688400  0.816662  0.004960
    H   H40  0.520372  0.781441  0.867075  0.024438
