# Generated by REPEAT Assigner based on pymatgen
data_DB0-m1_o30_zxc
_audit_creation_date              2022-05-24
_audit_creation_method            REPEAT_Assigner
_cell_length_a                    14.884652
_cell_length_b                    14.886726
_cell_length_c                    16.816005
_cell_angle_alpha                 89.982384
_cell_angle_beta                  63.757308
_cell_angle_gamma                 59.994352
_cell_volume                      2774.752174
_symmetry_space_group_name_H-M    P1
_symmetry_Int_Tables_number       1
loop_
    _symmetry_equiv_pos_site_id
    _symmetry_equiv_pos_as_xyz
    1  x,y,z
loop_
    _atom_site_type_symbol
    _atom_site_label
    _atom_site_fract_x
    _atom_site_fract_y
    _atom_site_fract_z
    _atom_type_partial_charge
    Zn  Zn1  0.412411  0.543893  0.631615  1.459656
    Zn  Zn2  0.657592  0.374122  0.455258  1.419929
    Zn  Zn3  0.419216  0.468174  0.455195  1.419565
    Zn  Zn4  0.513322  0.612525  0.455083  1.419062
    O   O1   0.500327  0.499841  0.499770  -1.744958
    O   O2   0.503017  0.444915  0.682788  -0.693231
    O   O3   0.688381  0.250500  0.384441  -0.654050
    O   O4   0.276724  0.483281  0.552322  -0.677533
    O   O5   0.687980  0.328887  0.552341  -0.676984
    O   O6   0.262333  0.552335  0.682751  -0.693867
    O   O7   0.515884  0.322817  0.377587  -0.655517
    O   O8   0.366559  0.560862  0.384190  -0.654542
    O   O9   0.431319  0.740015  0.552061  -0.678007
    O   O10  0.445751  0.661012  0.377290  -0.655310
    O   O11  0.369809  0.685588  0.682630  -0.693704
    O   O12  0.783943  0.393093  0.377459  -0.656003
    O   O13  0.677065  0.572364  0.384142  -0.653849
    C   C1   0.385216  0.635378  0.355535  0.531100
    C   C2   0.780158  0.479197  0.355609  0.530172
    C   C3   0.379514  0.758783  0.642283  0.603248
    C   C4   0.616503  0.362029  0.642552  0.600192
    C   C5   0.219630  0.521747  0.642526  0.600815
    C   C6   0.623768  0.240519  0.355876  0.528625
    C   C7   0.906869  0.249996  0.750050  0.161251
    C   C8   0.000219  0.343386  0.750039  0.160655
    C   C9   0.093777  0.156564  0.749813  0.161501
    C   C10  0.907443  0.342751  0.750120  -0.276680
    H   H1   0.834824  0.415308  0.750224  0.124137
    C   C11  0.093064  0.249963  0.749883  -0.276890
    H   H2   0.165639  0.249945  0.749820  0.124191
    C   C12  0.000350  0.157229  0.749903  -0.275891
    H   H3   0.000388  0.084685  0.749857  0.123946
    C   C13  0.665078  0.027982  0.199970  0.211624
    C   C14  0.807952  0.941853  0.250305  0.102207
    C   C15  0.671569  0.135000  0.300568  0.217842
    C   C16  0.757622  0.935348  0.200174  -0.245432
    H   H4   0.793831  0.857935  0.157824  0.153746
    C   C17  0.764398  0.042255  0.300417  -0.247877
    H   H5   0.799576  0.048342  0.342729  0.154665
    C   C18  0.622032  0.127778  0.250251  -0.319047
    H   H6   0.549493  0.200327  0.250198  0.197972
    C   C19  0.893182  0.471686  0.300240  0.217951
    C   C20  0.000166  0.557872  0.249977  0.105663
    C   C21  0.107218  0.364735  0.199586  0.214959
    C   C22  0.893261  0.564338  0.300117  -0.249305
    H   H7   0.809726  0.641739  0.342506  0.154260
    C   C23  0.107103  0.457485  0.199802  -0.247434
    H   H8   0.190634  0.451403  0.157461  0.153922
    C   C24  0.000209  0.371909  0.249886  -0.321093
    H   H9   0.000231  0.299339  0.249845  0.198188
    C   C25  0.807670  0.249987  0.750071  0.178332
    C   C26  0.665640  0.305231  0.698681  0.261957
    C   C27  0.669585  0.194689  0.801415  0.260662
    C   C28  0.760491  0.302952  0.696801  -0.326619
    H   H10  0.797076  0.343285  0.653249  0.163846
    C   C29  0.621214  0.249961  0.750041  -0.383909
    H   H11  0.548596  0.249960  0.750028  0.189740
    C   C30  0.760263  0.196992  0.803323  -0.327344
    H   H12  0.793681  0.156656  0.846874  0.164329
    C   C31  0.192099  0.749823  0.249880  0.101627
    C   C32  0.328484  0.806602  0.199545  0.218954
    C   C33  0.335042  0.693034  0.300144  0.214865
    C   C34  0.235629  0.806701  0.199745  -0.248291
    H   H13  0.200423  0.847984  0.157443  0.154627
    C   C35  0.378068  0.749809  0.249835  -0.320893
    H   H14  0.450644  0.749801  0.249828  0.198262
    C   C36  0.242465  0.692955  0.299992  -0.246018
    H   H15  0.206267  0.651716  0.342344  0.153985
    C   C37  0.000181  0.442597  0.750081  0.181077
    C   C38  0.106736  0.529415  0.698663  0.264381
    C   C39  0.893590  0.635946  0.801561  0.266405
    C   C40  0.106325  0.436856  0.696750  -0.330399
    H   H16  0.190141  0.359979  0.653133  0.165109
    C   C41  0.000161  0.629079  0.750117  -0.387231
    H   H17  0.000158  0.701696  0.750121  0.190451
    C   C42  0.894018  0.542958  0.803434  -0.329998
    H   H18  0.810208  0.549844  0.847016  0.164929
    C   C43  0.193062  0.057346  0.749708  0.177748
    C   C44  0.331212  0.863997  0.698299  0.259647
    C   C45  0.335199  0.970526  0.801013  0.261930
    C   C46  0.240488  0.956983  0.696434  -0.327238
    H   H19  0.207020  0.950092  0.652925  0.164566
    C   C47  0.379637  0.870861  0.749635  -0.382747
    H   H20  0.452255  0.798237  0.749645  0.189246
    C   C48  0.240279  0.063086  0.802951  -0.326983
    H   H21  0.203652  0.139963  0.846546  0.164627
    Zn  Zn5  0.487141  0.125713  0.044792  1.423026
    Zn  Zn6  0.588151  0.955966  0.868409  1.458053
    Zn  Zn7  0.581041  0.887145  0.044791  1.421253
    Zn  Zn8  0.342806  0.031614  0.044512  1.422944
    O   O14  0.500069  0.999991  0.000177  -1.748911
    O   O15  0.569258  0.171073  0.947750  -0.677850
    O   O16  0.738258  0.814460  0.817313  -0.692335
    O   O17  0.633482  0.927398  0.115927  -0.656203
    O   O18  0.630796  0.054987  0.817298  -0.692287
    O   O19  0.554674  0.106498  0.122535  -0.658396
    O   O20  0.723515  0.759598  0.947867  -0.676588
    O   O21  0.484205  0.838700  0.122484  -0.655573
    O   O22  0.216601  0.176937  0.122226  -0.657879
    O   O23  0.311791  0.938797  0.115500  -0.654874
    O   O24  0.323393  0.249223  0.115706  -0.656066
    O   O25  0.497824  0.947386  0.816996  -0.692233
    O   O26  0.312478  0.016787  0.947402  -0.677330
    C   C49  0.376328  0.864280  0.144170  0.528498
    C   C50  0.384245  0.978183  0.857216  0.599130
    C   C51  0.220254  0.259270  0.144199  0.534235
    C   C52  0.621144  0.137896  0.857537  0.601235
    C   C53  0.614996  0.020473  0.144522  0.535931
    C   C54  0.780685  0.741152  0.857666  0.597366
    C   C55  0.000118  0.656719  0.250022  0.164437
    C   C56  0.093241  0.749834  0.249953  0.167331
    C   C57  0.906834  0.843017  0.250234  0.165988
    C   C58  0.092760  0.657239  0.249910  -0.283452
    H   H22  0.165333  0.584739  0.249796  0.149704
    C   C59  0.000015  0.842453  0.250115  -0.283521
    H   H23  0.999990  0.914935  0.250141  0.150007
    C   C60  0.907422  0.749886  0.250185  -0.283142
    H   H24  0.834892  0.749915  0.250259  0.150029
