# Generated by REPEAT Assigner based on pymatgen
data_DB0-m2_o1_o4_f0_pcu.sym.29_sqe
_audit_creation_date              2022-05-24
_audit_creation_method            REPEAT_Assigner
_cell_length_a                    10.892881
_cell_length_b                    9.435376
_cell_length_c                    10.878816
_cell_angle_alpha                 90.000000
_cell_angle_beta                  90.005488
_cell_angle_gamma                 90.000000
_cell_volume                      1118.107595
_symmetry_space_group_name_H-M    P1
_symmetry_Int_Tables_number       1
loop_
    _symmetry_equiv_pos_site_id
    _symmetry_equiv_pos_as_xyz
    1  x,y,z
loop_
    _atom_site_type_symbol
    _atom_site_label
    _atom_site_fract_x
    _atom_site_fract_y
    _atom_site_fract_z
    _atom_type_partial_charge
    O   O1   0.317067  0.624451  0.507223  -0.607869
    O   O2   0.673624  0.623989  0.510035  -0.475301
    O   O3   0.316856  0.381668  0.498016  -0.551413
    O   O4   0.673900  0.380473  0.502552  -0.528523
    C   C1   0.258956  0.503657  0.499770  0.684557
    C   C2   0.731820  0.502637  0.504394  0.601970
    O   O5   0.500578  0.623970  0.325891  -0.660315
    O   O6   0.497806  0.625075  0.683344  -0.580586
    O   O7   0.501976  0.380293  0.326152  -0.515963
    O   O8   0.496452  0.382019  0.683167  -0.498697
    C   C3   0.498586  0.502046  0.268579  0.842670
    C   C4   0.493548  0.503230  0.740977  0.738557
    Cu  Cu1  0.496343  0.644378  0.504139  0.888535
    Cu  Cu2  0.494865  0.360850  0.504937  0.567883
    C   C5   0.500609  0.623308  0.066088  0.265200
    C   C6   0.499325  0.623366  0.943956  0.131232
    C   C7   0.499295  0.500904  0.134070  -0.406920
    C   C8   0.495579  0.501349  0.875502  -0.281052
    C   C9   0.496558  0.374516  0.068772  0.034004
    C   C10  0.494317  0.374663  0.940694  -0.027723
    H   H1   0.496062  0.274159  0.116546  0.043082
    H   H2   0.491255  0.274107  0.893314  0.060013
    C   C11  0.502623  0.779832  0.932845  -0.045836
    C   C12  0.503943  0.780015  0.076414  -0.241908
    H   H3   0.589828  0.818398  0.891961  0.037535
    H   H4   0.418671  0.824063  0.116797  0.048431
    H   H5   0.416426  0.822961  0.893391  0.046584
    H   H6   0.591719  0.818796  0.115504  0.098428
    C   C13  0.059778  0.385867  0.533833  -0.139530
    C   C14  0.932940  0.385133  0.534613  -0.029396
    H   H7   0.108569  0.292972  0.565385  0.104262
    H   H8   0.886153  0.291037  0.565822  0.086466
    C   C15  0.867171  0.503804  0.499250  -0.011129
    C   C16  0.123648  0.504927  0.496808  -0.066939
    C   C17  0.931408  0.621570  0.457323  -0.108973
    C   C18  0.057733  0.622179  0.456478  0.200353
    C   C19  0.425542  0.074527  0.423994  -0.067554
    C   C20  0.568480  0.073889  0.583137  -0.060947
    C   C21  0.429359  0.928551  0.421490  0.018712
    C   C22  0.566678  0.927808  0.583495  0.041190
    H   H9   0.376160  0.872248  0.353774  0.168875
    H   H10  0.623418  0.870780  0.648075  0.046241
    N   N1   0.494946  0.856408  0.504678  -0.020333
    N   N2   0.495107  0.148255  0.505398  0.222232
    Br  Br1  0.854241  0.785529  0.388181  -0.013116
    Br  Br2  0.131880  0.787303  0.387727  -0.159503
    Br  Br3  0.316462  0.162611  0.309356  0.077572
    Br  Br4  0.677588  0.161599  0.697395  0.044945
