# Generated by REPEAT Assigner based on pymatgen
data_DB0-m3_o1500_o21_f0_fsc.sym.40
_audit_creation_date              2022-05-24
_audit_creation_method            REPEAT_Assigner
_cell_length_a                    8.481661
_cell_length_b                    15.030183
_cell_length_c                    12.298991
_cell_angle_alpha                 98.462147
_cell_angle_beta                  95.227951
_cell_angle_gamma                 89.847437
_cell_volume                      1544.274256
_symmetry_space_group_name_H-M    P1
_symmetry_Int_Tables_number       1
loop_
    _symmetry_equiv_pos_site_id
    _symmetry_equiv_pos_as_xyz
    1  x,y,z
loop_
    _atom_site_type_symbol
    _atom_site_label
    _atom_site_fract_x
    _atom_site_fract_y
    _atom_site_fract_z
    _atom_type_partial_charge
    H   H1   0.994247  0.434618  0.932817  0.137820
    H   H2   0.005467  0.566411  0.070028  0.138277
    C   C1   0.134184  0.322125  0.964706  -0.071739
    C   C2   0.865527  0.678905  0.038143  -0.065935
    C   C3   0.132496  0.235690  0.990588  -0.056369
    C   C4   0.867215  0.765341  0.012264  -0.060953
    H   H3   0.242698  0.204416  0.013036  0.057191
    H   H4   0.757012  0.796614  0.989818  0.058677
    C   C5   0.990849  0.188022  0.981409  -0.144724
    C   C6   0.008862  0.813009  0.021444  -0.147328
    C   C7   0.849966  0.231894  0.959483  0.150679
    C   C8   0.149745  0.769137  0.043369  0.153901
    C   C9   0.851678  0.321078  0.945770  -0.198190
    C   C10  0.148034  0.679952  0.057079  -0.196611
    C   C11  0.993363  0.364316  0.942320  -0.137521
    C   C12  0.006350  0.636714  0.060527  -0.140929
    C   C13  0.900619  0.030085  0.919469  0.024347
    C   C14  0.099091  0.970946  0.083386  0.020938
    H   H5   0.827811  0.051229  0.851420  0.010312
    H   H6   0.171900  0.949800  0.151433  0.012031
    C   C15  0.907495  0.939444  0.928261  -0.101461
    C   C16  0.092215  0.061587  0.074594  -0.101037
    H   H7   0.836303  0.892062  0.869319  0.057770
    H   H8   0.163407  0.108969  0.133535  0.057809
    C   C17  0.007602  0.909095  0.009658  0.219750
    C   C18  0.992109  0.091936  0.993197  0.216591
    O   O1   0.317900  0.409944  0.888623  -0.724656
    O   O2   0.681812  0.591086  0.114225  -0.725314
    O   O3   0.348560  0.400824  0.074866  -0.701514
    O   O4   0.651153  0.600207  0.927983  -0.701705
    C   C19  0.280078  0.375674  0.975244  0.822758
    C   C20  0.719634  0.625356  0.027605  0.821988
    O   O5   0.673946  0.397807  0.063469  -0.707308
    O   O6   0.325766  0.603223  0.939380  -0.706353
    O   O7   0.645611  0.413083  0.878686  -0.713115
    O   O8   0.354101  0.587948  0.124162  -0.713365
    C   C21  0.710661  0.375835  0.961553  0.912552
    C   C22  0.289051  0.625195  0.041295  0.911871
    Zn  Zn1  0.522802  0.493122  0.121421  1.096484
    Zn  Zn2  0.476910  0.507908  0.881428  1.092907
    N   N1   0.449760  0.515799  0.739929  -0.105062
    N   N2   0.549952  0.485231  0.262919  -0.107922
    C   C23  0.440512  0.518262  0.528933  -0.053276
    C   C24  0.559200  0.482769  0.473915  -0.054053
    C   C25  0.555469  0.483718  0.356969  0.154774
    C   C26  0.444243  0.517313  0.645881  0.152645
    H   H9   0.658455  0.453213  0.517171  0.182151
    H   H10  0.341251  0.547820  0.485685  0.181923
    C   C27  0.697951  0.185463  0.947016  -0.029068
    C   C28  0.648557  0.142985  0.029959  -0.200593
    C   C29  0.505115  0.097810  0.014074  -0.057212
    C   C30  0.416438  0.090922  0.913218  0.347941
    Cl  Cl1  0.241167  0.027316  0.888963  -0.284187
    C   C31  0.464708  0.134975  0.831357  -0.334781
    C   C32  0.604034  0.183675  0.849165  0.047320
    H   H11  0.720258  0.146861  0.107829  0.120979
    H   H12  0.463180  0.067011  0.080188  0.082435
    H   H13  0.393742  0.130986  0.753160  0.136622
    H   H14  0.643066  0.217620  0.784598  0.066582
    C   C33  0.301761  0.815568  0.055837  -0.037679
    C   C34  0.395676  0.817356  0.153688  0.051741
    C   C35  0.535002  0.866056  0.171498  -0.337539
    C   C36  0.583273  0.910109  0.089637  0.350009
    Cl  Cl2  0.758544  0.973715  0.113893  -0.283235
    C   C37  0.494598  0.903221  0.988781  -0.060724
    C   C38  0.351155  0.858046  0.972895  -0.194380
    H   H15  0.356641  0.783410  0.218253  0.066044
    H   H16  0.605967  0.870044  0.249694  0.136854
    H   H17  0.536534  0.934021  0.922667  0.082528
    H   H18  0.279456  0.854171  0.895024  0.120637
