data_DB0-m3_o11_o23_f0_pcu.sym.147_repeat
_audit_creation_date              2024-02-23
_audit_creation_method            'Materials Studio'
_symmetry_space_group_name_H-M    'P1'
_symmetry_Int_Tables_number       1
_symmetry_cell_setting            triclinic
loop_
_symmetry_equiv_pos_as_xyz
  x,y,z
_cell_length_a                    15.9439
_cell_length_b                    11.1755
_cell_length_c                    9.9122
_cell_angle_alpha                 89.9974
_cell_angle_beta                  89.9750
_cell_angle_gamma                 89.9982
loop_
_atom_site_label
_atom_site_type_symbol
_atom_site_fract_x
_atom_site_fract_y
_atom_site_fract_z
_atom_site_U_iso_or_equiv
_atom_site_adp_type
_atom_site_occupancy
O1     O     0.49724   0.32311   0.61318   0.00000  Uiso   1.00
O2     O     0.49536   0.32067   0.38057   0.00000  Uiso   1.00
C1     C     0.49417   0.26616   0.49798   0.00000  Uiso   1.00
O3     O     0.37794   0.50861   0.62127   0.00000  Uiso   1.00
O4     O     0.37493   0.50563   0.38854   0.00000  Uiso   1.00
C2     C     0.33749   0.50924   0.50611   0.00000  Uiso   1.00
Zn1    Zn    0.50347   0.50075   0.65190   0.00000  Uiso   1.00
Zn2    Zn    0.49896   0.49922   0.34488   0.00000  Uiso   1.00
O5     O     0.50870   0.67921   0.61628   0.00000  Uiso   1.00
O6     O     0.50535   0.67699   0.38332   0.00000  Uiso   1.00
O7     O     0.62750   0.49275   0.60852   0.00000  Uiso   1.00
O8     O     0.62453   0.49156   0.37522   0.00000  Uiso   1.00
C3     C     0.50785   0.73427   0.49892   0.00000  Uiso   1.00
C4     C     0.66489   0.49014   0.49067   0.00000  Uiso   1.00
C5     C     0.04772   0.43308   0.62249   0.00000  Uiso   1.00
C6     C     0.05235   0.44281   0.37315   0.00000  Uiso   1.00
C7     C     0.95784   0.42936   0.37388   0.00000  Uiso   1.00
H1     H     0.92767   0.34487   0.63069   0.00000  Uiso   1.00
H2     H     0.06897   0.33881   0.61510   0.00000  Uiso   1.00
H3     H     0.07161   0.49785   0.28534   0.00000  Uiso   1.00
H4     H     0.08185   0.35323   0.36496   0.00000  Uiso   1.00
H5     H     0.94119   0.33319   0.38065   0.00000  Uiso   1.00
H6     H     0.93165   0.46683   0.27924   0.00000  Uiso   1.00
C8     C     0.75489   0.48981   0.48879   0.00000  Uiso   1.00
C9     C     0.08025   0.50330   0.50256   0.00000  Uiso   1.00
C10    C     0.95278   0.43718   0.62325   0.00000  Uiso   1.00
C11    C     0.92213   0.49560   0.49429   0.00000  Uiso   1.00
C12    C     0.95105   0.62484   0.49066   0.00000  Uiso   1.00
C13    C     0.04542   0.62942   0.50714   0.00000  Uiso   1.00
C14    C     0.83045   0.49161   0.49013   0.00000  Uiso   1.00
C15    C     0.17193   0.50736   0.50670   0.00000  Uiso   1.00
C16    C     0.24749   0.50929   0.50802   0.00000  Uiso   1.00
H7     H     0.06119   0.67134   0.60532   0.00000  Uiso   1.00
H8     H     0.07304   0.68361   0.42458   0.00000  Uiso   1.00
H9     H     0.92092   0.67579   0.57356   0.00000  Uiso   1.00
H10    H     0.07202   0.47249   0.71743   0.00000  Uiso   1.00
H11    H     0.93089   0.48967   0.71145   0.00000  Uiso   1.00
H12    H     0.93331   0.66573   0.39279   0.00000  Uiso   1.00
C17    C     0.48726   0.93544   0.39942   0.00000  Uiso   1.00
C18    C     0.51797   0.86528   0.49878   0.00000  Uiso   1.00
C19    C     0.49946   0.06645   0.39612   0.00000  Uiso   1.00
C20    C     0.48700   0.13559   0.50409   0.00000  Uiso   1.00
H13    H     0.51079   0.10789   0.29898   0.00000  Uiso   1.00
H14    H     0.46882   0.09663   0.59970   0.00000  Uiso   1.00
C21    C     0.53379   0.58666   0.92693   0.00000  Uiso   1.00
N1     N     0.50826   0.49924   0.85355   0.00000  Uiso   1.00
H15    H     0.55397   0.66903   0.87929   0.00000  Uiso   1.00
H16    H     0.50019   0.41843   0.90108   0.00000  Uiso   1.00
C22    C     0.54111   0.57524   0.07531   0.00000  Uiso   1.00
N2     N     0.49556   0.50174   0.14319   0.00000  Uiso   1.00
H17    H     0.58391   0.63409   0.12832   0.00000  Uiso   1.00
H18    H     0.44768   0.45969   0.09269   0.00000  Uiso   1.00
C23    C     0.44116   0.88471   0.28839   0.00000  Uiso   1.00
N3     N     0.40402   0.84432   0.19905   0.00000  Uiso   1.00
C24    C     0.56849   0.91480   0.60546   0.00000  Uiso   1.00
N4     N     0.60922   0.95429   0.69118   0.00000  Uiso   1.00
