# Generated by REPEAT Assigner based on pymatgen
data_DB0-m2_o2_o23_f0_nbo.sym.41
_audit_creation_date              2022-05-24
_audit_creation_method            REPEAT_Assigner
_cell_length_a                    43.377077
_cell_length_b                    30.076697
_cell_length_c                    29.828318
_cell_angle_alpha                 90.000000
_cell_angle_beta                  132.887997
_cell_angle_gamma                 90.000000
_cell_volume                      28512.597776
_symmetry_space_group_name_H-M    P1
_symmetry_Int_Tables_number       1
loop_
    _symmetry_equiv_pos_site_id
    _symmetry_equiv_pos_as_xyz
    1  x,y,z
loop_
    _atom_site_type_symbol
    _atom_site_label
    _atom_site_fract_x
    _atom_site_fract_y
    _atom_site_fract_z
    _atom_type_partial_charge
    O   O1    0.507066  0.958092  0.571658  -0.643140
    O   O2    0.492934  0.958092  0.428342  -0.643126
    O   O3    0.007066  0.458092  0.571658  -0.643185
    O   O4    0.992934  0.458092  0.428342  -0.643173
    O   O5    0.483950  0.031461  0.546954  -0.626900
    O   O6    0.516050  0.031461  0.453046  -0.626920
    O   O7    0.983950  0.531461  0.546954  -0.626915
    O   O8    0.016050  0.531461  0.453046  -0.626929
    C   C1    0.493078  0.994450  0.577631  0.684073
    C   C2    0.506922  0.994450  0.422369  0.684035
    C   C3    0.993078  0.494450  0.577631  0.684169
    C   C4    0.006922  0.494450  0.422369  0.684188
    O   O9    0.439254  0.958088  0.447430  -0.565233
    O   O10   0.560746  0.958088  0.552570  -0.565208
    O   O11   0.939254  0.458088  0.447430  -0.565246
    O   O12   0.060746  0.458088  0.552570  -0.565252
    O   O13   0.440952  0.031469  0.424558  -0.621035
    O   O14   0.559048  0.031469  0.575442  -0.621011
    O   O15   0.940952  0.531469  0.424558  -0.621048
    O   O16   0.059048  0.531469  0.575442  -0.621046
    C   C5    0.420344  0.994868  0.415193  0.798938
    C   C6    0.579656  0.994868  0.584807  0.798913
    C   C7    0.920344  0.494868  0.415193  0.799099
    C   C8    0.079656  0.494868  0.584807  0.799064
    Cu  Cu1   0.500000  0.951332  0.500000  1.071276
    Cu  Cu2   -0.000000  0.451332  0.500000  1.071308
    Cu  Cu3   0.500000  0.038216  0.500000  1.007317
    Cu  Cu4   0.000000  0.538216  0.500000  1.007279
    C   C9    0.273522  0.956066  0.290863  -0.149219
    C   C10   0.726478  0.956066  0.709137  -0.149444
    C   C11   0.773522  0.456066  0.290863  -0.149292
    C   C12   0.226478  0.456066  0.709137  -0.149302
    C   C13   0.275540  0.038173  0.295339  -0.122321
    C   C14   0.724460  0.038173  0.704661  -0.122287
    C   C15   0.775540  0.538173  0.295339  -0.122280
    C   C16   0.224460  0.538173  0.704661  -0.122307
    C   C17   0.227917  0.037537  0.251456  -0.136521
    C   C18   0.772083  0.037537  0.748544  -0.136591
    C   C19   0.727917  0.537537  0.251456  -0.136563
    C   C20   0.272083  0.537537  0.748544  -0.136526
    H   H1    0.212478  0.951124  0.261656  0.039639
    H   H2    0.787522  0.951124  0.738344  0.039559
    H   H3    0.712478  0.451124  0.261656  0.039624
    H   H4    0.287522  0.451124  0.738344  0.039626
    H   H5    0.283326  0.955850  0.336243  0.039091
    H   H6    0.716674  0.955850  0.663757  0.039161
    H   H7    0.783326  0.455850  0.336243  0.039124
    H   H8    0.216674  0.455850  0.663757  0.039112
    H   H9    0.285754  0.068572  0.287447  0.020803
    H   H10   0.714246  0.068572  0.712553  0.020815
    H   H11   0.785754  0.568572  0.287447  0.020803
    H   H12   0.214246  0.568572  0.712553  0.020804
    H   H13   0.289208  0.038388  0.343067  0.035067
    H   H14   0.710792  0.038388  0.656933  0.035080
    H   H15   0.789208  0.538388  0.343067  0.035062
    H   H16   0.210792  0.538388  0.656933  0.035071
    H   H17   0.218441  0.033015  0.277565  0.018767
    H   H18   0.781559  0.033015  0.722435  0.018778
    H   H19   0.718441  0.533015  0.277565  0.018770
    H   H20   0.281559  0.533015  0.722435  0.018769
    H   H21   0.215168  0.069568  0.226421  0.038749
    H   H22   0.784832  0.069568  0.773579  0.038754
    H   H23   0.715168  0.569568  0.226421  0.038747
    H   H24   0.284832  0.569568  0.773578  0.038746
    C   C21   0.126317  0.002145  0.123703  -0.202225
    C   C22   0.873683  0.002145  0.876297  -0.202273
    C   C23   0.626317  0.502145  0.123703  -0.202283
    C   C24   0.373683  0.502145  0.876297  -0.202262
    C   C25   0.290586  0.997401  0.284986  0.716234
    C   C26   0.709414  0.997401  0.715014  0.715839
    C   C27   0.790586  0.497401  0.284986  0.716131
    C   C28   0.209414  0.497401  0.715014  0.716166
    C   C29   0.225840  0.955840  0.240872  -0.156342
    C   C30   0.774160  0.955840  0.759128  -0.156072
    C   C31   0.725840  0.455840  0.240872  -0.156302
    C   C32   0.274160  0.455840  0.759128  -0.156255
    C   C33   0.210648  0.999589  0.206424  0.588263
    C   C34   0.789352  0.999589  0.793576  0.588502
    C   C35   0.710648  0.499589  0.206424  0.588339
    C   C36   0.289352  0.499589  0.793576  0.588218
    C   C37   0.226657  0.004019  0.174570  -0.018246
    C   C38   0.773343  0.004019  0.825429  -0.018206
    C   C39   0.726657  0.504019  0.174571  -0.018214
    C   C40   0.273343  0.504019  0.825429  -0.018252
    C   C41   0.274203  0.999271  0.221063  -0.232319
    C   C42   0.725797  0.999271  0.778937  -0.232336
    C   C43   0.774203  0.499271  0.221063  -0.232312
    C   C44   0.225797  0.499271  0.778937  -0.232290
    C   C45   0.164367  0.000956  0.161001  -0.335564
    C   C46   0.835634  0.000956  0.838999  -0.335655
    C   C47   0.664367  0.500956  0.161001  -0.335600
    C   C48   0.335634  0.500956  0.838999  -0.335536
    C   C49   0.336884  0.996262  0.330704  -0.376983
    C   C50   0.663116  0.996262  0.669296  -0.376709
    C   C51   0.836884  0.496262  0.330704  -0.376846
    C   C52   0.163116  0.496262  0.669296  -0.376892
    C   C53   0.374948  0.995534  0.368846  -0.161471
    C   C54   0.625052  0.995534  0.631154  -0.161554
    C   C55   0.874948  0.495534  0.368846  -0.161622
    C   C56   0.125052  0.495534  0.631154  -0.161581
    H   H25   0.282938  0.968292  0.211830  0.036815
    H   H26   0.717062  0.968292  0.788170  0.036843
    H   H27   0.782938  0.468292  0.211830  0.036818
    H   H28   0.217062  0.468292  0.788170  0.036810
    H   H29   0.288247  0.028076  0.217232  0.045518
    H   H30   0.711753  0.028076  0.782768  0.045540
    H   H31   0.788247  0.528076  0.217232  0.045522
    H   H32   0.211753  0.528076  0.782768  0.045520
    H   H33   0.212442  0.977795  0.139212  0.010874
    H   H34   0.787558  0.977795  0.860788  0.010839
    H   H35   0.712442  0.477795  0.139212  0.010853
    H   H36   0.287558  0.477795  0.860788  0.010876
    H   H37   0.286129  0.925969  0.286594  0.030809
    H   H38   0.713871  0.925969  0.713406  0.030866
    H   H39   0.786129  0.425969  0.286594  0.030824
    H   H40   0.213871  0.425969  0.713406  0.030825
    H   H41   0.215414  0.928076  0.208756  0.054334
    H   H42   0.784586  0.928076  0.791244  0.054278
    H   H43   0.715414  0.428076  0.208756  0.054329
    H   H44   0.284586  0.428076  0.791244  0.054324
    H   H45   0.217786  0.037067  0.152295  0.004825
    H   H46   0.782214  0.037067  0.847705  0.004804
    H   H47   0.717786  0.537067  0.152295  0.004807
    H   H48   0.282214  0.537067  0.847705  0.004821
    C   C57   0.504304  0.034730  0.705131  -0.105286
    C   C58   0.495696  0.034730  0.294869  -0.105260
    C   C59   0.004304  0.534730  0.705131  -0.105260
    C   C60   0.995696  0.534730  0.294869  -0.105272
    H   H49   0.514581  0.064890  0.731664  0.107339
    H   H50   0.485419  0.064890  0.268336  0.107334
    H   H51   0.014581  0.564890  0.731664  0.107336
    H   H52   0.985419  0.564890  0.268336  0.107339
    C   C61   0.503231  0.033088  0.658138  -0.130513
    C   C62   0.496769  0.033088  0.341862  -0.130535
    C   C63   0.003231  0.533088  0.658138  -0.130578
    C   C64   0.996769  0.533088  0.341862  -0.130522
    H   H53   0.514048  0.061517  0.649921  0.136997
    H   H54   0.485952  0.061517  0.350079  0.137004
    H   H55   0.014048  0.561517  0.649921  0.137008
    H   H56   0.985953  0.561517  0.350079  0.137001
    C   C65   0.490012  0.995112  0.623313  0.064575
    C   C66   0.509988  0.995112  0.376687  0.064641
    C   C67   0.990012  0.495112  0.623313  0.064693
    C   C68   0.009988  0.495112  0.376687  0.064533
    C   C69   0.476248  0.958684  0.634422  -0.241407
    C   C70   0.523752  0.958684  0.365578  -0.241443
    C   C71   0.976248  0.458684  0.634422  -0.241670
    C   C72   0.023752  0.458684  0.365578  -0.241388
    C   C73   0.477869  0.960546  0.682168  -0.068502
    C   C74   0.522131  0.960546  0.317832  -0.068484
    C   C75   0.977869  0.460546  0.682168  -0.068393
    C   C76   0.022131  0.460546  0.317832  -0.068507
    H   H57   0.467765  0.932244  0.691679  0.089522
    H   H58   0.532235  0.932244  0.308321  0.089517
    H   H59   0.967765  0.432244  0.691679  0.089485
    H   H60   0.032235  0.432244  0.308321  0.089519
    C   C77   0.491839  0.998366  0.717454  0.067252
    C   C78   0.508161  0.998366  0.282546  0.067219
    C   C79   0.991839  0.498366  0.717454  0.067257
    C   C80   0.008161  0.498366  0.282546  0.067247
    C   C81   0.459511  0.983914  0.758872  -0.105929
    C   C82   0.540489  0.983914  0.241128  -0.105945
    C   C83   0.959511  0.483914  0.758872  -0.105904
    C   C84   0.040489  0.483914  0.241128  -0.105962
    H   H61   0.431945  0.970677  0.715110  0.104649
    H   H62   0.568055  0.970677  0.284890  0.104658
    H   H63   0.931945  0.470677  0.715110  0.104638
    H   H64   0.068055  0.470677  0.284890  0.104661
    C   C85   0.460577  0.985444  0.805941  -0.124494
    C   C86   0.539423  0.985444  0.194059  -0.124493
    C   C87   0.960577  0.485444  0.805941  -0.124508
    C   C88   0.039423  0.485444  0.194059  -0.124476
    H   H65   0.434060  0.972586  0.798280  0.122356
    H   H66   0.565940  0.972586  0.201720  0.122361
    H   H67   0.934060  0.472586  0.798280  0.122357
    H   H68   0.065940  0.472586  0.201720  0.122355
    C   C89   0.495258  0.002842  0.861904  -0.016656
    C   C90   0.504742  0.002842  0.138096  -0.016631
    C   C91   0.995258  0.502842  0.861904  -0.016623
    C   C92   0.004742  0.502842  0.138096  -0.016644
    C   C93   0.528655  0.019087  0.870312  -0.099059
    C   C94   0.471345  0.019087  0.129688  -0.099094
    C   C95   0.028655  0.519087  0.870312  -0.099050
    C   C96   0.971345  0.519087  0.129688  -0.099066
    H   H69   0.556132  0.032833  0.913705  0.130973
    H   H70   0.443868  0.032833  0.086295  0.130983
    H   H71   0.056132  0.532833  0.913705  0.130974
    H   H72   0.943868  0.532833  0.086295  0.130978
    C   C97   0.527355  0.017908  0.823009  -0.141736
    C   C98   0.472645  0.017908  0.176991  -0.141706
    C   C99   0.027355  0.517908  0.823009  -0.141743
    C   C100  0.972645  0.517908  0.176991  -0.141723
    H   H73   0.554016  0.030069  0.830547  0.106735
    H   H74   0.445984  0.030069  0.169453  0.106723
    H   H75   0.054016  0.530070  0.830547  0.106738
    H   H76   0.945984  0.530069  0.169453  0.106724
    C   C101  0.492903  0.000095  0.767300  0.071343
    C   C102  0.507097  0.000095  0.232700  0.071349
    C   C103  0.992903  0.500095  0.767300  0.071306
    C   C104  0.007097  0.500095  0.232700  0.071346
    O   O17   0.998708  0.938846  0.037389  -0.581477
    O   O18   0.001292  0.938846  0.962611  -0.581611
    O   O19   0.498708  0.438846  0.037389  -0.581472
    O   O20   0.501292  0.438846  0.962611  -0.581536
    C   C105  0.000000  0.918051  0.000000  0.623247
    C   C106  0.500000  0.418051  0.000000  0.622908
    O   O21   0.061429  0.001975  0.098630  -0.623108
    O   O22   0.938571  0.001975  0.901370  -0.623241
    O   O23   0.561429  0.501975  0.098630  -0.623140
    O   O24   0.438571  0.501975  0.901370  -0.623171
    O   O25   0.060955  0.001560  0.020919  -0.637384
    O   O26   0.939045  0.001560  0.979081  -0.637414
    O   O27   0.560955  0.501560  0.020919  -0.637374
    O   O28   0.439045  0.501560  0.979081  -0.637447
    C   C107  0.080923  0.003491  0.079141  0.864372
    C   C108  0.919077  0.003491  0.920859  0.864573
    C   C109  0.580923  0.503491  0.079141  0.864498
    C   C110  0.419077  0.503491  0.920859  0.864526
    Cu  Cu5   0.000294  0.003479  0.044949  1.002375
    Cu  Cu6   0.999706  0.003479  0.955051  1.002479
    Cu  Cu7   0.500294  0.503479  0.044949  1.002340
    Cu  Cu8   0.499706  0.503479  0.955051  1.002466
    O   O29   0.998310  0.068094  0.036879  -0.617225
    O   O30   0.001691  0.068094  0.963121  -0.617369
    O   O31   0.498310  0.568094  0.036879  -0.617261
    O   O32   0.501691  0.568094  0.963121  -0.617354
    C   C111  0.000000  0.088947  0.000000  0.633420
    C   C112  0.500000  0.588947  0.000000  0.633378
    O   O33   0.464974  0.067046  0.954051  -0.577128
    O   O34   0.535026  0.067046  0.045949  -0.577133
    O   O35   0.964974  0.567046  0.954051  -0.577085
    O   O36   0.035026  0.567046  0.045949  -0.577103
    C   C113  0.500000  0.087978  0.000000  0.676670
    C   C114  0.000000  0.587978  0.000000  0.676550
    O   O37   0.463041  0.990964  0.901182  -0.579866
    O   O38   0.536959  0.990964  0.098818  -0.579872
    O   O39   0.963041  0.490964  0.901182  -0.579861
    O   O40   0.036959  0.490964  0.098818  -0.579877
    O   O41   0.532135  0.016440  0.966561  -0.611122
    O   O42   0.467865  0.016440  0.033439  -0.611123
    O   O43   0.032135  0.516440  0.966561  -0.611104
    O   O44   0.967865  0.516440  0.033439  -0.611095
    C   C115  0.496832  0.003589  0.912242  0.670648
    C   C116  0.503168  0.003589  0.087758  0.670635
    C   C117  0.996832  0.503589  0.912242  0.670605
    C   C118  0.003168  0.503589  0.087758  0.670633
    Cu  Cu9   0.459015  0.003720  0.961230  0.952956
    Cu  Cu10  0.540985  0.003720  0.038770  0.953074
    Cu  Cu11  0.959015  0.503720  0.961230  0.952966
    Cu  Cu12  0.040985  0.503720  0.038770  0.953058
    O   O45   0.465954  0.940394  0.980631  -0.596479
    O   O46   0.534046  0.940394  0.019369  -0.596490
    O   O47   0.965954  0.440394  0.980631  -0.596460
    O   O48   0.034046  0.440394  0.019369  -0.596482
    C   C119  0.500000  0.919508  0.000000  0.683569
    C   C120  0.000000  0.419508  0.000000  0.683472
    C   C121  0.998180  0.800479  0.038166  -0.105661
    C   C122  0.001820  0.800479  0.961834  -0.105707
    C   C123  0.498180  0.300479  0.038166  -0.105558
    C   C124  0.501820  0.300479  0.961834  -0.105587
    H   H77   0.996705  0.782486  0.068029  0.097492
    H   H78   0.003295  0.782486  0.931971  0.097498
    H   H79   0.496705  0.282486  0.068029  0.097489
    H   H80   0.503295  0.282486  0.931971  0.097494
    C   C125  0.998140  0.846256  0.038186  -0.044768
    C   C126  0.001860  0.846256  0.961814  -0.044744
    C   C127  0.498140  0.346256  0.038186  -0.044967
    C   C128  0.501860  0.346256  0.961814  -0.044920
    H   H81   0.996648  0.863508  0.068430  0.092150
    H   H82   0.003352  0.863508  0.931570  0.092160
    H   H83   0.496648  0.363508  0.068430  0.092193
    H   H84   0.503352  0.363508  0.931570  0.092182
    C   C129  0.000000  0.869384  0.000000  0.000302
    C   C130  0.500000  0.369384  0.000000  0.000729
    C   C131  0.000000  0.777567  0.000000  -0.040336
    C   C132  0.500000  0.277567  0.000000  -0.040560
    C   C133  0.536459  0.205779  0.047439  -0.274090
    C   C134  0.463541  0.205779  0.952561  -0.274087
    C   C135  0.036459  0.705779  0.047439  -0.274060
    C   C136  0.963541  0.705779  0.952561  -0.274059
    C   C137  0.535839  0.159833  0.047249  0.024584
    C   C138  0.464161  0.159833  0.952751  0.024565
    C   C139  0.035839  0.659833  0.047249  0.024543
    C   C140  0.964161  0.659833  0.952751  0.024532
    H   H85   0.564048  0.141782  0.083818  0.120237
    H   H86   0.435952  0.141782  0.916182  0.120243
    H   H87   0.064048  0.641782  0.083818  0.120244
    H   H88   0.935952  0.641782  0.916182  0.120248
    C   C141  0.500000  0.136774  0.000000  -0.117803
    C   C142  0.000000  0.636774  0.000000  -0.117708
    C   C143  0.500000  0.229016  0.000000  0.243954
    C   C144  0.000000  0.729016  0.000000  0.243859
    C   C145  0.008777  0.206674  0.969819  -0.129829
    C   C146  0.991223  0.206674  0.030181  -0.129786
    C   C147  0.508777  0.706674  0.969819  -0.129823
    C   C148  0.491223  0.706674  0.030181  -0.129785
    H   H89   0.015065  0.224170  0.945117  0.117655
    H   H90   0.984935  0.224170  0.054883  0.117643
    H   H91   0.515065  0.724170  0.945117  0.117657
    H   H92   0.484935  0.724170  0.054883  0.117645
    C   C149  0.008434  0.160847  0.969366  -0.140448
    C   C150  0.991566  0.160847  0.030634  -0.140485
    C   C151  0.508434  0.660847  0.969366  -0.140458
    C   C152  0.491566  0.660847  0.030634  -0.140505
    H   H93   0.015177  0.143535  0.945126  0.135922
    H   H94   0.984823  0.143535  0.054874  0.135917
    H   H95   0.515177  0.643535  0.945126  0.135921
    H   H96   0.484823  0.643535  0.054874  0.135923
    C   C153  0.000000  0.137670  0.000000  0.047992
    C   C154  0.500000  0.637670  0.000000  0.048038
    C   C155  0.000000  0.229852  0.000000  0.059406
    C   C156  0.500000  0.729852  0.000000  0.059398
    C   C157  0.468568  0.801789  0.990722  -0.147943
    C   C158  0.531432  0.801789  0.009278  -0.147974
    C   C159  0.968568  0.301789  0.990722  -0.147950
    C   C160  0.031432  0.301789  0.009278  -0.147974
    H   H97   0.443328  0.784293  0.982419  0.117819
    H   H98   0.556672  0.784293  0.017581  0.117828
    H   H99   0.943328  0.284293  0.982419  0.117821
    H   H100  0.056672  0.284293  0.017581  0.117827
    C   C161  0.468351  0.847615  0.990198  -0.103863
    C   C162  0.531649  0.847615  0.009802  -0.103840
    C   C163  0.968351  0.347615  0.990198  -0.103873
    C   C164  0.031649  0.347615  0.009802  -0.103860
    H   H101  0.443283  0.864926  0.982531  0.129295
    H   H102  0.556717  0.864926  0.017469  0.129294
    H   H103  0.943283  0.364926  0.982531  0.129300
    H   H104  0.056717  0.364926  0.017469  0.129300
    C   C165  0.500000  0.870791  0.000000  -0.039728
    C   C166  0.000000  0.370791  0.000000  -0.039669
    C   C167  0.500000  0.778612  0.000000  0.095762
    C   C168  0.000000  0.278612  0.000000  0.095762
    C   C169  0.457618  0.918849  0.595289  0.847104
    O   O49   0.437613  0.921679  0.540722  -0.556290
    O   O50   0.459711  0.879574  0.618989  -0.498695
    C   C170  0.441121  0.842273  0.583126  0.523568
    C   C171  0.448783  0.803408  0.621882  -0.321951
    H   H105  0.454926  0.834723  0.563489  -0.056760
    H   H106  0.406738  0.847710  0.545764  -0.052705
    H   H107  0.483119  0.797812  0.659316  0.083254
    H   H108  0.433761  0.773154  0.593038  0.068888
    H   H109  0.435101  0.810847  0.641709  0.080763
    C   C172  0.542382  0.918849  0.404711  0.847134
    O   O51   0.562387  0.921679  0.459278  -0.556307
    O   O52   0.540289  0.879574  0.381011  -0.498709
    C   C173  0.558879  0.842273  0.416874  0.523578
    C   C174  0.551217  0.803407  0.378118  -0.321942
    H   H110  0.545074  0.834723  0.436511  -0.056767
    H   H111  0.593262  0.847710  0.454235  -0.052706
    H   H112  0.516881  0.797812  0.340684  0.083250
    H   H113  0.566239  0.773154  0.406962  0.068892
    H   H114  0.564899  0.810847  0.358291  0.080759
    C   C175  0.957618  0.418849  0.595289  0.847292
    O   O53   0.937613  0.421679  0.540722  -0.556343
    O   O54   0.959711  0.379574  0.618989  -0.498716
    C   C176  0.941121  0.342273  0.583126  0.523643
    C   C177  0.948783  0.303408  0.621882  -0.322022
    H   H115  0.954926  0.334723  0.563489  -0.056777
    H   H116  0.906738  0.347710  0.545764  -0.052742
    H   H117  0.983119  0.297812  0.659316  0.083260
    H   H118  0.933761  0.273154  0.593038  0.068908
    H   H119  0.935101  0.310847  0.641709  0.080776
    C   C178  0.042382  0.418849  0.404711  0.847094
    O   O55   0.062387  0.421679  0.459278  -0.556298
    O   O56   0.040289  0.379574  0.381011  -0.498704
    C   C179  0.058879  0.342273  0.416874  0.523589
    C   C180  0.051217  0.303407  0.378118  -0.321942
    H   H120  0.045074  0.334723  0.436511  -0.056770
    H   H121  0.093262  0.347710  0.454235  -0.052710
    H   H122  0.016881  0.297812  0.340684  0.083249
    H   H123  0.066239  0.273154  0.406962  0.068890
    H   H124  0.064899  0.310847  0.358291  0.080754
    C   C181  0.576499  0.228262  0.098354  0.750046
    O   O57   0.603526  0.207942  0.145651  -0.556960
    O   O58   0.584466  0.270182  0.092646  -0.376980
    C   C182  0.621500  0.291089  0.139779  0.320548
    C   C183  0.620571  0.338007  0.120469  -0.210909
    H   H125  0.648257  0.272781  0.151114  0.000389
    H   H126  0.625290  0.292515  0.180471  -0.014276
    H   H127  0.615331  0.336909  0.078544  0.053053
    H   H128  0.650949  0.354698  0.157716  0.042339
    H   H129  0.594654  0.356812  0.110927  0.064599
    C   C184  0.423502  0.228262  0.901646  0.750030
    O   O59   0.396474  0.207942  0.854349  -0.556955
    O   O60   0.415534  0.270182  0.907354  -0.376968
    C   C185  0.378500  0.291089  0.860221  0.320519
    C   C186  0.379429  0.338007  0.879531  -0.211036
    H   H130  0.351744  0.272781  0.848886  0.000415
    H   H131  0.374710  0.292515  0.819529  -0.014263
    H   H132  0.384669  0.336909  0.921456  0.053095
    H   H133  0.349051  0.354698  0.842284  0.042356
    H   H134  0.405346  0.356812  0.889073  0.064653
    C   C187  0.076499  0.728262  0.098354  0.750031
    O   O61   0.103526  0.707942  0.145651  -0.556953
    O   O62   0.084466  0.770182  0.092646  -0.376992
    C   C188  0.121500  0.791089  0.139779  0.320566
    C   C189  0.120571  0.838007  0.120469  -0.210935
    H   H135  0.148257  0.772781  0.151114  0.000384
    H   H136  0.125290  0.792515  0.180471  -0.014278
    H   H137  0.115331  0.836909  0.078544  0.053064
    H   H138  0.150949  0.854698  0.157716  0.042341
    H   H139  0.094654  0.856812  0.110927  0.064604
    C   C190  0.923502  0.728262  0.901646  0.750011
    O   O63   0.896474  0.707942  0.854349  -0.556952
    O   O64   0.915534  0.770182  0.907354  -0.376964
    C   C191  0.878500  0.791089  0.860221  0.320543
    C   C192  0.879429  0.838007  0.879531  -0.211071
    H   H140  0.851744  0.772781  0.848886  0.000411
    H   H141  0.874710  0.792515  0.819529  -0.014267
    H   H142  0.884669  0.836909  0.921456  0.053091
    H   H143  0.849051  0.854698  0.842284  0.042357
    H   H144  0.905346  0.856812  0.889073  0.064664
