# Generated by REPEAT Assigner based on pymatgen
data_DB0-m3_o11_o16_f0_pcu.sym.51_sqe
_audit_creation_date              2022-05-24
_audit_creation_method            REPEAT_Assigner
_cell_length_a                    9.914209
_cell_length_b                    11.168701
_cell_length_c                    13.644213
_cell_angle_alpha                 89.992799
_cell_angle_beta                  74.588020
_cell_angle_gamma                 89.997442
_cell_volume                      1456.478840
_symmetry_space_group_name_H-M    P1
_symmetry_Int_Tables_number       1
loop_
    _symmetry_equiv_pos_site_id
    _symmetry_equiv_pos_as_xyz
    1  x,y,z
loop_
    _atom_site_type_symbol
    _atom_site_label
    _atom_site_fract_x
    _atom_site_fract_y
    _atom_site_fract_z
    _atom_type_partial_charge
    O   O1   0.387030  0.686205  0.498086  -0.677926
    O   O2   0.620270  0.689664  0.494506  -0.624298
    C   C1   0.502350  0.743947  0.496374  0.792776
    O   O3   0.329380  0.509150  0.651960  -0.675865
    O   O4   0.561494  0.514703  0.649247  -0.635482
    C   C2   0.429088  0.511004  0.698920  0.759164
    Zn  Zn1  0.348308  0.508064  0.500317  1.095757
    Zn  Zn2  0.655308  0.511163  0.498139  0.988060
    O   O5   0.384070  0.329416  0.501378  -0.608352
    O   O6   0.617075  0.332949  0.499856  -0.518963
    O   O7   0.441231  0.505276  0.348981  -0.642952
    O   O8   0.675180  0.507937  0.346419  -0.641055
    C   C3   0.501482  0.274869  0.502067  0.623686
    C   C4   0.574530  0.505433  0.300097  0.680568
    C   C5   0.769458  0.419879  0.037658  -0.152444
    H   H1   0.819708  0.430733  0.178908  0.137175
    H   H2   0.871137  0.382966  0.002663  0.063241
    C   C6   0.611642  0.491367  0.189172  -0.072193
    C   C7   0.262198  0.569550  0.857174  -0.093760
    C   C8   0.226087  0.593957  0.959118  -0.030513
    C   C9   0.317082  0.569850  0.016861  -0.238251
    C   C10  0.445579  0.514597  0.974400  0.142957
    C   C11  0.479186  0.485109  0.871272  0.097065
    C   C12  0.541651  0.489043  0.031785  -0.092565
    C   C13  0.669758  0.436898  0.984275  0.281474
    C   C14  0.695619  0.398612  0.884576  -0.195374
    C   C15  0.599407  0.419170  0.830729  -0.111772
    C   C16  0.513282  0.512950  0.135921  -0.089072
    C   C17  0.741302  0.448455  0.138862  -0.132139
    C   C18  0.389800  0.518282  0.811234  -0.165033
    H   H3   0.414545  0.547262  0.179364  0.097728
    H   H4   0.191159  0.595901  0.813198  0.104123
    H   H5   0.281498  0.596849  0.094974  0.136765
    H   H6   0.126958  0.636517  0.993805  0.084007
    H   H7   0.621236  0.378590  0.756679  0.123962
    C   C19  0.605630  0.072967  0.515338  0.037253
    C   C20  0.503062  0.142955  0.498257  -0.206196
    H   H8   0.414925  0.103466  0.477910  0.139335
    C   C21  0.605340  0.940905  0.506161  0.034071
    C   C22  0.495610  0.875109  0.499041  -0.325444
    H   H9   0.700535  0.895670  0.509805  0.038699
    H   H10  0.396025  0.914984  0.500063  0.155067
    C   C23  0.093688  0.431392  0.449928  0.264829
    N   N1   0.147178  0.508439  0.498732  -0.397000
    H   H11  0.157335  0.357319  0.412234  0.072752
    H   H12  0.092625  0.586344  0.520406  0.275746
    C   C24  0.949331  0.443577  0.438991  0.049929
    N   N2   0.856753  0.509522  0.498853  -0.248271
    H   H13  0.920097  0.391550  0.380788  0.107182
    H   H14  0.880658  0.543469  0.562051  0.227022
    I   I1   0.876162  0.301790  0.807406  0.020681
    I   I2   0.780768  0.138939  0.560367  -0.056148
