# Generated by REPEAT Assigner based on pymatgen
data_DB0-m2_o6_o25_f0_nbo.sym.160_sqe
_audit_creation_date              2022-05-24
_audit_creation_method            REPEAT_Assigner
_cell_length_a                    27.684031
_cell_length_b                    27.678629
_cell_length_c                    27.760996
_cell_angle_alpha                 109.311911
_cell_angle_beta                  109.737295
_cell_angle_gamma                 109.216191
_cell_volume                      16404.822506
_symmetry_space_group_name_H-M    P1
_symmetry_Int_Tables_number       1
loop_
    _symmetry_equiv_pos_site_id
    _symmetry_equiv_pos_as_xyz
    1  x,y,z
loop_
    _atom_site_type_symbol
    _atom_site_label
    _atom_site_fract_x
    _atom_site_fract_y
    _atom_site_fract_z
    _atom_type_partial_charge
    O   O1    0.932281  0.970803  0.529525  -0.604433
    O   O2    0.936361  0.898112  0.462651  -0.568742
    C   C1    0.915259  0.915316  0.496679  0.773508
    O   O3    0.933723  0.031261  0.468353  -0.592103
    O   O4    0.930995  0.955109  0.398104  -0.607908
    C   C2    0.912646  0.992630  0.413438  0.731661
    Cu  Cu1   0.993721  0.036666  0.535455  1.007220
    Cu  Cu2   0.994432  0.952569  0.454079  1.002152
    O   O5    0.051835  0.091112  0.526918  -0.566483
    O   O6    0.055910  0.018404  0.460019  -0.600000
    O   O7    0.057191  0.034191  0.591458  -0.616559
    O   O8    0.054462  0.958023  0.521180  -0.595008
    C   C3    0.073151  0.073896  0.493132  0.762832
    C   C4    0.075735  0.996871  0.576050  0.806996
    C   C5    0.695062  0.970315  0.242402  -0.137658
    C   C6    0.725936  0.934358  0.233698  -0.240933
    H   H1    0.710662  0.890117  0.229722  0.095245
    H   H2    0.653152  0.955577  0.243344  0.067759
    C   C7    0.867483  0.991569  0.367722  -0.060225
    C   C8    0.621104  0.992158  0.119807  -0.045777
    C   C9    0.753900  0.024870  0.291289  -0.176363
    C   C10   0.784109  0.989168  0.281764  0.768159
    C   C11   0.762309  0.041090  0.246388  -0.133037
    C   C12   0.704052  0.986492  0.198027  0.739420
    C   C13   0.793576  0.005572  0.237696  -0.241104
    C   C14   0.734815  0.950812  0.189085  -0.061989
    C   C15   0.829721  0.990593  0.329081  -0.437063
    C   C16   0.658500  0.989725  0.155346  -0.455170
    H   H3    0.835607  0.021704  0.237127  0.094356
    H   H4    0.776511  0.085424  0.250652  0.066028
    H   H5    0.762949  0.055697  0.334934  0.065517
    C   C17   0.753881  0.700270  0.503347  -0.268902
    H   H6    0.759485  0.664635  0.507225  0.157641
    C   C18   0.703257  0.702223  0.497659  0.248545
    C   C19   0.695583  0.747197  0.492076  -0.194175
    H   H7    0.655850  0.748692  0.487607  0.150536
    C   C20   0.738520  0.790166  0.492030  -0.207217
    H   H8    0.732440  0.825361  0.487482  0.156643
    C   C21   0.789315  0.788437  0.497949  0.202160
    C   C22   0.797354  0.743692  0.504167  0.091407
    C   C23   0.658636  0.657510  0.497771  -0.060462
    C   C24   0.833838  0.833641  0.498159  -0.074290
    C   C25   0.871070  0.871126  0.497739  -0.196390
    C   C26   0.621229  0.620002  0.497987  -0.218430
    C   C27   0.300191  0.009418  0.748821  -0.177510
    H   H9    0.340973  0.016188  0.748921  0.126638
    C   C28   0.291222  0.000677  0.791854  0.187539
    C   C29   0.239037  0.991532  0.791482  -0.214048
    H   H10   0.231887  0.984034  0.824916  0.147651
    C   C30   0.195838  0.991544  0.748256  -0.040035
    C   C31   0.204719  0.999920  0.705004  0.220081
    C   C32   0.256734  0.008641  0.705135  -0.049427
    C   C33   0.335817  0.000100  0.836528  -0.027592
    C   C34   0.159739  0.999470  0.659709  -0.039962
    C   C35   0.121506  0.998478  0.621560  -0.204909
    C   C36   0.373136  0.999284  0.873871  -0.234246
    H   H11   0.157336  0.164956  0.402096  0.148164
    C   C37   0.240270  0.243263  0.445098  -0.203411
    H   H12   0.235733  0.242310  0.404517  0.152681
    C   C38   0.290167  0.287648  0.498165  0.229702
    C   C39   0.296051  0.288933  0.549977  -0.246087
    H   H13   0.335199  0.323834  0.591548  0.138445
    C   C40   0.251597  0.246268  0.548851  0.128962
    C   C41   0.201947  0.201342  0.495499  0.166905
    C   C42   0.196285  0.199996  0.443751  -0.179232
    C   C43   0.335689  0.332723  0.499317  -0.049835
    C   C44   0.156283  0.155776  0.493687  -0.077813
    C   C45   0.118154  0.118125  0.492994  -0.183537
    C   C46   0.373510  0.370485  0.499763  -0.222232
    O   O9    0.459394  0.020827  0.056659  -0.589118
    O   O10   0.535597  0.092962  0.061067  -0.566541
    C   C47   0.497659  0.076189  0.078470  0.803002
    O   O11   0.521178  0.960603  0.058705  -0.619159
    O   O12   0.594011  0.032824  0.059920  -0.603552
    C   C48   0.576760  0.994236  0.076471  0.756090
    Cu  Cu3   0.455056  0.954792  0.997054  1.020568
    Cu  Cu4   0.539200  0.038176  0.998307  1.004262
    O   O13   0.458694  0.900118  0.934249  -0.609974
    O   O14   0.534904  0.972069  0.938828  -0.605572
    O   O15   0.400273  0.963333  0.938652  -0.595972
    O   O16   0.473087  0.035355  0.939692  -0.612596
    C   C49   0.496797  0.916739  0.917075  0.758874
    C   C50   0.417469  0.997947  0.918051  0.801575
    O   O17   0.462489  0.436457  0.402099  -0.584399
    O   O18   0.531655  0.433020  0.474065  -0.608771
    C   C51   0.497074  0.415342  0.418680  0.786503
    O   O19   0.521138  0.554280  0.460703  -0.591136
    O   O20   0.593689  0.557637  0.536048  -0.604640
    C   C52   0.576715  0.575354  0.498278  0.792557
    Cu  Cu5   0.455467  0.495384  0.457481  1.008590
    Cu  Cu6   0.539376  0.495338  0.540581  1.005054
    O   O21   0.463191  0.557709  0.523994  -0.604455
    O   O22   0.532364  0.554281  0.595960  -0.586417
    O   O23   0.401161  0.433088  0.462018  -0.611131
    O   O24   0.473700  0.436435  0.537357  -0.586206
    C   C53   0.497839  0.575454  0.579381  0.770235
    C   C54   0.418119  0.415340  0.499758  0.792932
    C   C55   0.495887  0.292963  0.243129  -0.246864
    H   H14   0.493517  0.329430  0.238299  0.137691
    C   C56   0.498221  0.289091  0.292028  0.239282
    C   C57   0.501242  0.242637  0.298300  -0.208397
    H   H15   0.503008  0.239610  0.336631  0.153037
    C   C58   0.501592  0.199838  0.255499  -0.175841
    H   H16   0.503387  0.163107  0.260135  0.150473
    C   C59   0.499386  0.203708  0.206641  0.147186
    C   C60   0.497292  0.250750  0.200760  0.134329
    C   C61   0.497647  0.333492  0.336509  -0.056196
    C   C62   0.498518  0.158379  0.161635  -0.046762
    C   C63   0.498034  0.120728  0.123702  -0.229184
    C   C64   0.497305  0.370816  0.373975  -0.217035
    H   H17   0.580463  0.803847  0.850721  0.167801
    C   C65   0.544280  0.735307  0.763197  -0.175678
    H   H18   0.580740  0.726702  0.774687  0.147817
    C   C66   0.497893  0.703032  0.705923  0.277050
    C   C67   0.451375  0.713984  0.691248  -0.178384
    H   H19   0.415027  0.688669  0.646347  0.148889
    C   C68   0.451237  0.757230  0.733832  -0.198112
    H   H20   0.414770  0.765823  0.722343  0.151310
    C   C69   0.497621  0.789525  0.791088  0.303185
    C   C70   0.544136  0.778555  0.805801  -0.225129
    C   C71   0.498004  0.658082  0.661517  -0.121622
    C   C72   0.497378  0.834447  0.835374  -0.140401
    C   C73   0.497103  0.872081  0.872591  -0.141464
    C   C74   0.497971  0.620345  0.624086  -0.179383
    C   C75   0.265594  0.016859  0.658890  0.051169
    C   C76   0.248180  0.968915  0.606958  0.256904
    C   C77   0.220637  0.907960  0.597620  -0.391733
    C   C78   0.256208  0.977677  0.563428  -0.266005
    C   C79   0.281475  0.033859  0.571712  -0.064437
    C   C80   0.298897  0.081499  0.623476  -0.186806
    C   C81   0.290940  0.073015  0.667014  -0.150392
    H   H21   0.251789  0.904436  0.632120  0.098022
    H   H22   0.209954  0.875587  0.553883  0.109452
    H   H23   0.179168  0.897249  0.599316  0.102029
    H   H24   0.242761  0.940725  0.522574  0.142367
    H   H25   0.287670  0.040556  0.537553  0.100211
    H   H26   0.318798  0.125463  0.629839  0.144437
    H   H27   0.304355  0.110407  0.707512  0.112486
    C   C82   0.140011  0.980975  0.747028  0.032052
    C   C83   0.136902  0.024191  0.786898  0.228503
    C   C84   0.190569  0.082919  0.832152  -0.338921
    C   C85   0.083079  0.013495  0.783395  -0.257982
    C   C86   0.032724  0.960343  0.740268  -0.068362
    C   C87   0.035879  0.917640  0.700485  -0.168479
    C   C88   0.089405  0.927787  0.704029  -0.139384
    H   H28   0.223563  0.077908  0.863236  0.094152
    H   H29   0.178691  0.112440  0.857638  0.097089
    H   H30   0.209986  0.103438  0.810228  0.090958
    H   H31   0.079814  0.046799  0.813982  0.139408
    H   H32   0.990642  0.952308  0.737407  0.099973
    H   H33   0.996349  0.876333  0.666289  0.146750
    H   H34   0.091621  0.894165  0.672567  0.108512
    C   C89   0.258397  0.247599  0.603957  -0.023666
    C   C90   0.224579  0.260860  0.627895  0.242846
    C   C91   0.181386  0.278612  0.601693  -0.344933
    C   C92   0.231350  0.258742  0.678619  -0.213192
    C   C93   0.272026  0.244924  0.706233  -0.135338
    C   C94   0.306558  0.233399  0.683434  -0.098582
    C   C95   0.299694  0.234695  0.632454  -0.152701
    H   H35   0.182941  0.285083  0.564894  0.081452
    H   H36   0.191582  0.320863  0.636400  0.084689
    H   H37   0.136113  0.244366  0.585671  0.107147
    H   H38   0.204923  0.268541  0.697211  0.134900
    H   H39   0.277169  0.243619  0.746072  0.118472
    H   H40   0.338794  0.222999  0.705361  0.103841
    H   H41   0.326258  0.224650  0.614192  0.098216
    C   C96   0.493868  0.254680  0.148577  -0.050124
    C   C97   0.541765  0.268414  0.139207  0.265765
    C   C98   0.601550  0.283791  0.183087  -0.360429
    C   C99   0.534809  0.268953  0.087793  -0.239627
    C   C100  0.481362  0.257031  0.046438  -0.077774
    C   C101  0.434407  0.244707  0.056343  -0.164189
    C   C102  0.440742  0.243654  0.107301  -0.108277
    H   H42   0.604943  0.287952  0.225276  0.086294
    H   H43   0.634749  0.326673  0.192787  0.086368
    H   H44   0.612129  0.249423  0.163803  0.110318
    H   H45   0.571695  0.279224  0.080023  0.136231
    H   H46   0.476407  0.257702  0.006378  0.102619
    H   H47   0.392494  0.235519  0.024002  0.119764
    H   H48   0.403514  0.233164  0.114536  0.095670
    C   C103  0.727428  0.907375  0.133043  -0.017589
    C   C104  0.760763  0.878688  0.134329  0.241462
    C   C105  0.805748  0.888468  0.190429  -0.407067
    C   C106  0.752572  0.839318  0.082013  -0.238902
    C   C107  0.712072  0.827902  0.028653  -0.095595
    C   C108  0.679222  0.855747  0.026989  -0.117043
    C   C109  0.686783  0.895011  0.078556  -0.196742
    H   H49   0.784784  0.875195  0.214872  0.122838
    H   H50   0.841571  0.935001  0.218044  0.122616
    H   H51   0.826376  0.861116  0.180613  0.105955
    H   H52   0.777952  0.816850  0.082270  0.134194
    H   H53   0.706101  0.797061  0.988121  0.105336
    H   H54   0.647287  0.846830  0.985060  0.103969
    H   H55   0.659927  0.915427  0.074645  0.137012
    C   C110  0.851167  0.741628  0.510456  -0.045744
    C   C111  0.893564  0.753457  0.563662  0.247060
    C   C112  0.885986  0.769510  0.616476  -0.361053
    C   C113  0.944455  0.752277  0.568445  -0.242984
    C   C114  0.952967  0.739200  0.520629  -0.093765
    C   C115  0.910695  0.727160  0.467744  -0.144247
    C   C116  0.859921  0.728327  0.462678  -0.095964
    H   H56   0.879440  0.808347  0.626236  0.098499
    H   H57   0.925872  0.780781  0.655380  0.083921
    H   H58   0.847644  0.731840  0.608665  0.104025
    H   H59   0.978202  0.761908  0.609727  0.133180
    H   H60   0.992917  0.738481  0.524678  0.111153
    H   H61   0.917400  0.716909  0.430250  0.118569
    H   H62   0.826865  0.718921  0.421102  0.096723
