# Generated by REPEAT Assigner based on pymatgen
data_DB0-m3_o1490_o4_f0_fsc.sym.14
_audit_creation_date              2022-05-24
_audit_creation_method            REPEAT_Assigner
_cell_length_a                    8.536541
_cell_length_b                    9.286095
_cell_length_c                    10.740395
_cell_angle_alpha                 97.906118
_cell_angle_beta                  90.008380
_cell_angle_gamma                 90.098704
_cell_volume                      843.309246
_symmetry_space_group_name_H-M    P1
_symmetry_Int_Tables_number       1
loop_
    _symmetry_equiv_pos_site_id
    _symmetry_equiv_pos_as_xyz
    1  x,y,z
loop_
    _atom_site_type_symbol
    _atom_site_label
    _atom_site_fract_x
    _atom_site_fract_y
    _atom_site_fract_z
    _atom_type_partial_charge
    C   C1   0.001966  0.935219  0.310297  -0.127862
    C   C2   0.862042  0.960475  0.254710  0.003369
    C   C3   0.859683  0.997859  0.135787  -0.271980
    C   C4   0.140157  0.955768  0.249665  -0.308502
    C   C5   0.137833  0.977841  0.124435  0.558057
    C   C6   0.995737  0.991190  0.063989  -0.005536
    C   C7   0.994886  0.008061  0.936544  -0.014006
    C   C8   0.857610  0.004845  0.865510  0.365829
    C   C9   0.861348  0.041605  0.746256  -0.345988
    N   N1   0.273448  0.986938  0.062197  -0.698400
    C   C10  0.275231  0.006950  0.940400  0.443220
    C   C11  0.137129  0.019093  0.875678  -0.167196
    C   C12  0.139882  0.042214  0.750362  -0.059066
    C   C13  0.001792  0.064911  0.690464  -0.044144
    H   H1   0.003929  0.916602  0.407306  0.133987
    H   H2   0.003880  0.083604  0.593474  0.116935
    H   H3   0.750393  0.039270  0.107123  0.108362
    H   H4   0.386029  0.014440  0.893851  -0.019344
    O   O1   0.668942  0.103822  0.370396  -0.685505
    O   O2   0.664962  0.854617  0.369547  -0.726504
    C   C14  0.720552  0.972627  0.330792  0.818270
    O   O3   0.668823  0.897382  0.629733  -0.657935
    O   O4   0.664209  0.146724  0.630634  -0.707010
    C   C15  0.720140  0.028925  0.669420  0.880830
    O   O5   0.331219  0.896908  0.629768  -0.687032
    O   O6   0.335901  0.145232  0.630997  -0.653985
    C   C16  0.281639  0.028397  0.672376  0.746811
    O   O7   0.331479  0.101649  0.369384  -0.713825
    O   O8   0.336796  0.853487  0.368086  -0.705430
    C   C17  0.282612  0.969928  0.326413  0.924240
    Zn  Zn1  0.500131  0.839415  0.501399  1.053457
    Zn  Zn2  0.499669  0.160560  0.498254  0.983650
    C   C18  0.500599  0.444586  0.603830  -0.237027
    N   N2   0.498745  0.349680  0.498075  0.170883
    C   C19  0.496300  0.408354  0.389616  -0.189280
    H   H5   0.494376  0.338027  0.300625  0.203336
    C   C20  0.496819  0.559518  0.391285  -0.011881
    H   H6   0.495053  0.603932  0.303408  0.166901
    N   N3   0.500106  0.650272  0.501292  -0.051141
    C   C21  0.502015  0.586289  0.605295  0.296217
    C   C22  0.508203  0.621176  0.744088  -0.467844
    C   C23  0.506125  0.451678  0.742374  0.646320
    H   H7   0.621011  0.671976  0.777411  0.142915
    H   H8   0.399986  0.675268  0.783747  0.151501
    H   H9   0.613261  0.404678  0.778950  -0.020752
    O   O9   0.365999  0.404416  0.789854  -0.634740
    H   H10  0.286747  0.418569  0.725343  0.366615
    O   O10  0.719459  0.953347  0.905329  -0.404888
    H   H11  0.649010  0.038581  0.912537  0.335097
