# Generated by REPEAT Assigner based on pymatgen
data_DB0-m29_o81_o530_f0_pts.sym.10
_audit_creation_date              2022-05-24
_audit_creation_method            REPEAT_Assigner
_cell_length_a                    15.681764
_cell_length_b                    19.200060
_cell_length_c                    13.233192
_cell_angle_alpha                 90.373381
_cell_angle_beta                  87.072291
_cell_angle_gamma                 70.319466
_cell_volume                      3745.555519
_symmetry_space_group_name_H-M    P1
_symmetry_Int_Tables_number       1
loop_
    _symmetry_equiv_pos_site_id
    _symmetry_equiv_pos_as_xyz
    1  x,y,z
loop_
    _atom_site_type_symbol
    _atom_site_label
    _atom_site_fract_x
    _atom_site_fract_y
    _atom_site_fract_z
    _atom_type_partial_charge
    C   C1   0.894883  0.995047  0.865059  -0.267561
    C   C2   0.299257  0.997180  0.913457  0.072479
    C   C3   0.218139  0.990572  0.887057  -0.202995
    C   C4   0.152311  0.988791  0.959711  0.174155
    C   C5   0.071676  0.985055  0.928493  -0.194377
    C   C6   0.001480  0.985466  0.997377  -0.034655
    C   C7   0.812796  0.994576  0.835300  -0.049363
    C   C8   0.749954  0.983157  0.903188  -0.043344
    C   C9   0.917181  0.984833  0.965564  0.185673
    C   C10  0.851774  0.977458  0.035971  0.093774
    C   C11  0.768476  0.974772  0.004906  -0.046311
    C   C12  0.315516  0.998178  0.015818  -0.138635
    C   C13  0.250783  0.993350  0.087621  -0.151353
    C   C14  0.166680  0.991859  0.060978  0.121136
    C   C15  0.097193  0.993156  0.132711  -0.169239
    C   C16  0.016225  0.986437  0.099985  0.165246
    C   C17  0.949332  0.980406  0.168624  -0.163978
    C   C18  0.869274  0.976011  0.137451  -0.142030
    H   H1   0.937458  0.006701  0.806177  0.151405
    H   H2   0.204494  0.988526  0.808138  0.140490
    H   H3   0.068070  0.979261  0.848306  0.156899
    H   H4   0.799146  0.002091  0.756169  0.157917
    H   H5   0.268546  0.992287  0.165156  0.228694
    H   H6   0.957283  0.976793  0.248902  0.162058
    H   H7   0.820739  0.973615  0.196613  0.133313
    O   O1   0.614236  0.015610  0.076409  -0.545626
    C   C19  0.697660  0.968838  0.078936  0.482073
    O   O2   0.597395  0.834573  0.193324  -0.455596
    O   O3   0.716888  0.915858  0.144861  -0.408461
    O   O4   0.569515  0.935982  0.298509  -0.628189
    C   C20  0.593391  0.863936  0.284029  0.680820
    Fe  Fe1  0.529164  0.004682  0.185911  1.480934
    O   O5   0.442185  0.963601  0.122182  -0.642172
    O   O6   0.412443  0.070448  0.036711  -0.501033
    C   C21  0.396871  0.008392  0.053807  0.849245
    O   O7   0.484250  0.107137  0.247948  -0.668263
    O   O8   0.350275  0.086110  0.255961  -0.626171
    C   C22  0.398438  0.127258  0.279642  0.767088
    O   O9   0.530951  0.908988  0.664520  -0.613018
    O   O10  0.681917  0.875006  0.688501  -0.530149
    C   C23  0.614267  0.863587  0.645365  0.645670
    O   O11  0.636516  0.018339  0.781259  -0.667920
    O   O12  0.624659  0.936336  0.899669  -0.463289
    C   C24  0.665227  0.981162  0.863017  0.763428
    O   O13  0.348720  0.992979  0.736826  -0.494636
    O   O14  0.491370  0.081061  0.627049  -0.585456
    C   C25  0.414848  0.136760  0.640935  0.508799
    O   O15  0.443213  0.007309  0.852710  -0.585197
    C   C26  0.366091  0.999428  0.831719  0.616154
    O   O16  0.367460  0.147216  0.727704  -0.460491
    Fe  Fe2  0.524003  0.004908  0.731862  1.481298
    C   C27  0.884444  0.646166  0.399157  0.464504
    N   N1   0.804960  0.647777  0.445161  -0.171622
    C   C28  0.798551  0.588362  0.494748  0.451158
    C   C29  0.873680  0.524989  0.499787  -0.091947
    C   C30  0.955339  0.522946  0.454130  0.104491
    C   C31  0.960726  0.583605  0.402783  -0.128480
    C   C32  0.868146  0.464097  0.551389  -0.063602
    C   C33  0.944070  0.401928  0.557446  -0.047011
    C   C34  0.026251  0.400202  0.512210  -0.120555
    C   C35  0.031434  0.460829  0.460574  0.092555
    C   C36  0.113134  0.459056  0.415376  -0.096176
    C   C37  0.118706  0.519853  0.363648  -0.054221
    C   C38  0.042821  0.581902  0.357435  -0.050126
    C   C39  0.103020  0.337981  0.516855  0.437938
    N   N2   0.182566  0.336849  0.471494  -0.123548
    C   C40  0.188602  0.396263  0.421641  0.435206
    O   O17  0.890352  0.706766  0.353344  -0.472050
    O   O18  0.718660  0.591087  0.539744  -0.487006
    H   H8   0.804917  0.464134  0.587927  0.137686
    H   H9   0.937857  0.355158  0.598260  0.123093
    O   O19  0.097790  0.277558  0.563740  -0.465136
    O   O20  0.268783  0.394367  0.378307  -0.480397
    H   H10  0.181982  0.519958  0.327404  0.133233
    H   H11  0.049128  0.628714  0.316807  0.124520
    C   C41  0.293038  0.235188  0.376314  -0.243526
    H   H12  0.258410  0.255354  0.308253  0.141296
    C   C42  0.369797  0.173470  0.371084  0.081919
    C   C43  0.412404  0.146295  0.457537  -0.205574
    C   C44  0.376123  0.177361  0.551159  0.164745
    C   C45  0.299716  0.240459  0.556829  -0.282586
    H   H13  0.271189  0.266126  0.629472  0.168123
    C   C46  0.259703  0.270663  0.468595  0.265634
    C   C47  0.702835  0.751367  0.544563  -0.207259
    H   H14  0.737709  0.727766  0.611169  0.152582
    C   C48  0.633761  0.818511  0.552274  0.064867
    C   C49  0.593448  0.850751  0.466554  -0.113568
    C   C50  0.623661  0.818140  0.372290  -0.042053
    C   C51  0.690499  0.749120  0.364605  -0.172990
    H   H15  0.715728  0.723483  0.291089  0.158899
    C   C52  0.729899  0.715441  0.451390  0.247179
    H   H16  0.469537  0.095421  0.450839  0.147185
    H   H17  0.542913  0.905354  0.472972  0.129829
    C   C53  0.106173  0.008428  0.243213  0.193539
    C   C54  0.149001  0.936803  0.298140  -0.162209
    H   H18  0.106700  0.900984  0.293383  0.046160
    H   H19  0.217639  0.906631  0.263741  0.033944
    H   H20  0.154492  0.949793  0.378815  0.057753
    H   H21  0.145870  0.045708  0.252748  0.002112
    H   H22  0.040204  0.040726  0.281598  -0.017746
