data_DB0-m3_o11_o25_f0_pcu.sym.56_repeat
_audit_creation_date              2024-02-23
_audit_creation_method            'Materials Studio'
_symmetry_space_group_name_H-M    'P1'
_symmetry_Int_Tables_number       1
_symmetry_cell_setting            triclinic
loop_
_symmetry_equiv_pos_as_xyz
  x,y,z
_cell_length_a                    16.0049
_cell_length_b                    11.1377
_cell_length_c                    9.9111
_cell_angle_alpha                 89.9974
_cell_angle_beta                  89.9946
_cell_angle_gamma                 90.0034
loop_
_atom_site_label
_atom_site_type_symbol
_atom_site_fract_x
_atom_site_fract_y
_atom_site_fract_z
_atom_site_U_iso_or_equiv
_atom_site_adp_type
_atom_site_occupancy
O1     O     0.49381   0.32529   0.60960   0.00000  Uiso   1.00
O2     O     0.49096   0.32588   0.37702   0.00000  Uiso   1.00
C1     C     0.49197   0.26958   0.49351   0.00000  Uiso   1.00
O3     O     0.36966   0.50464   0.61945   0.00000  Uiso   1.00
O4     O     0.36671   0.50581   0.38671   0.00000  Uiso   1.00
C2     C     0.32936   0.50539   0.50429   0.00000  Uiso   1.00
Zn1    Zn    0.49480   0.50333   0.65044   0.00000  Uiso   1.00
Zn2    Zn    0.49036   0.50545   0.34323   0.00000  Uiso   1.00
O5     O     0.49514   0.68275   0.61696   0.00000  Uiso   1.00
O6     O     0.49217   0.68383   0.38349   0.00000  Uiso   1.00
O7     O     0.61851   0.50294   0.60736   0.00000  Uiso   1.00
O8     O     0.61556   0.50424   0.37383   0.00000  Uiso   1.00
C3     C     0.49361   0.73919   0.50056   0.00000  Uiso   1.00
C4     C     0.65577   0.50324   0.48943   0.00000  Uiso   1.00
C5     C     0.96713   0.39622   0.55526   0.00000  Uiso   1.00
C6     C     0.02314   0.40339   0.43213   0.00000  Uiso   1.00
H1     H     0.04978   0.32606   0.37629   0.00000  Uiso   1.00
H2     H     0.94430   0.50483   0.26752   0.00000  Uiso   1.00
C7     C     0.23971   0.50436   0.50623   0.00000  Uiso   1.00
C8     C     0.74540   0.50047   0.48789   0.00000  Uiso   1.00
C9     C     0.01866   0.49130   0.62642   0.00000  Uiso   1.00
C10    C     0.07307   0.49944   0.50267   0.00000  Uiso   1.00
C11    C     0.96268   0.58865   0.56701   0.00000  Uiso   1.00
C12    C     0.91200   0.49271   0.49660   0.00000  Uiso   1.00
C13    C     0.01883   0.59684   0.44354   0.00000  Uiso   1.00
C14    C     0.96711   0.50092   0.37308   0.00000  Uiso   1.00
C15    C     0.16443   0.50264   0.50544   0.00000  Uiso   1.00
C16    C     0.82066   0.49699   0.49049   0.00000  Uiso   1.00
H3     H     0.04235   0.68087   0.39706   0.00000  Uiso   1.00
H4     H     0.93607   0.66586   0.62306   0.00000  Uiso   1.00
H5     H     0.04151   0.48725   0.73196   0.00000  Uiso   1.00
C17    C     0.49158   0.93662   0.39053   0.00000  Uiso   1.00
C18    C     0.49423   0.87077   0.50381   0.00000  Uiso   1.00
H6     H     0.48933   0.89143   0.29381   0.00000  Uiso   1.00
H7     H     0.49700   0.91105   0.60266   0.00000  Uiso   1.00
C19    C     0.49175   0.06973   0.38773   0.00000  Uiso   1.00
C20    C     0.49171   0.13814   0.49866   0.00000  Uiso   1.00
H8     H     0.49159   0.11257   0.28957   0.00000  Uiso   1.00
H9     H     0.49137   0.09971   0.59850   0.00000  Uiso   1.00
C21    C     0.53016   0.58571   0.92392   0.00000  Uiso   1.00
N1     N     0.49941   0.50045   0.85210   0.00000  Uiso   1.00
H10    H     0.55497   0.66493   0.87470   0.00000  Uiso   1.00
H11    H     0.48672   0.42113   0.90077   0.00000  Uiso   1.00
C22    C     0.53697   0.57566   0.07246   0.00000  Uiso   1.00
N2     N     0.48694   0.50949   0.14154   0.00000  Uiso   1.00
H12    H     0.58334   0.62942   0.12442   0.00000  Uiso   1.00
H13    H     0.43696   0.47274   0.09138   0.00000  Uiso   1.00
C23    C     0.94760   0.27848   0.62120   0.00000  Uiso   1.00
C24    C     0.01330   0.20944   0.66763   0.00000  Uiso   1.00
C25    C     0.99876   0.10040   0.72918   0.00000  Uiso   1.00
C26    C     0.91805   0.05928   0.74478   0.00000  Uiso   1.00
C27    C     0.90129   0.94177   0.81110   0.00000  Uiso   1.00
C28    C     0.85227   0.12758   0.69841   0.00000  Uiso   1.00
C29    C     0.86675   0.23666   0.63681   0.00000  Uiso   1.00
H14    H     0.07681   0.24075   0.65593   0.00000  Uiso   1.00
H15    H     0.05107   0.04787   0.76487   0.00000  Uiso   1.00
H16    H     0.96067   0.89855   0.84198   0.00000  Uiso   1.00
H17    H     0.86796   0.88203   0.73956   0.00000  Uiso   1.00
H18    H     0.86180   0.95625   0.90161   0.00000  Uiso   1.00
H19    H     0.78892   0.09559   0.71024   0.00000  Uiso   1.00
H20    H     0.81388   0.28719   0.60161   0.00000  Uiso   1.00
