# Generated by REPEAT Assigner based on pymatgen
data_DB0-m2_o12_o13_f0_pcu.sym.14_sqe
_audit_creation_date              2022-05-24
_audit_creation_method            REPEAT_Assigner
_cell_length_a                    9.690130
_cell_length_b                    11.158923
_cell_length_c                    13.048593
_cell_angle_alpha                 90.872146
_cell_angle_beta                  75.479011
_cell_angle_gamma                 110.958756
_cell_volume                      1271.186229
_symmetry_space_group_name_H-M    P1
_symmetry_Int_Tables_number       1
loop_
    _symmetry_equiv_pos_site_id
    _symmetry_equiv_pos_as_xyz
    1  x,y,z
loop_
    _atom_site_type_symbol
    _atom_site_label
    _atom_site_fract_x
    _atom_site_fract_y
    _atom_site_fract_z
    _atom_type_partial_charge
    O   O1   0.581808  0.335319  0.491149  -0.683278
    O   O2   0.418517  0.668181  0.507657  -0.664385
    O   O3   0.326619  0.298978  0.518556  -0.644071
    O   O4   0.674328  0.704152  0.483111  -0.674087
    C   C1   0.439402  0.258058  0.506939  0.870238
    C   C2   0.561222  0.745884  0.494573  0.929110
    O   O5   0.607698  0.509532  0.634949  -0.615716
    O   O6   0.390905  0.491576  0.364755  -0.544817
    O   O7   0.355362  0.485181  0.668099  -0.618958
    O   O8   0.645695  0.520122  0.331251  -0.597025
    C   C3   0.476702  0.497699  0.700735  0.827926
    C   C4   0.523789  0.507278  0.298520  0.730503
    Cu  Cu1  0.649203  0.523473  0.480352  0.882409
    Cu  Cu2  0.350371  0.478422  0.519389  0.768521
    C   C5   0.538292  0.509331  0.182815  -0.285490
    C   C6   0.462588  0.496842  0.815643  -0.359466
    C   C7   0.304963  0.473807  0.993405  -0.214949
    C   C8   0.696468  0.535147  0.004641  -0.200373
    C   C9   0.321633  0.476747  0.885478  -0.031194
    C   C10  0.680329  0.532414  0.112584  -0.065517
    C   C11  0.588243  0.516461  0.855928  0.453373
    C   C12  0.412385  0.489336  0.142503  0.385929
    C   C13  0.571393  0.514153  0.964558  -0.039387
    C   C14  0.429553  0.492024  0.033578  0.006091
    H   H1   0.780672  0.546533  0.140610  0.134033
    H   H2   0.222069  0.462718  0.857209  0.122205
    H   H3   0.192912  0.459302  0.044897  0.111235
    H   H4   0.808853  0.554608  0.951614  0.122273
    H   H5   0.367327  0.868526  0.518409  0.101794
    H   H6   0.638756  0.137429  0.481785  0.093044
    C   C15  0.406579  0.118586  0.512956  -0.462960
    C   C16  0.596035  0.884719  0.491913  -0.470328
    C   C17  0.519490  0.072088  0.498737  0.063704
    C   C18  0.484940  0.932008  0.504538  0.042218
    H   H7   0.713415  0.949123  0.479328  0.199084
    H   H8   0.288404  0.053050  0.529508  0.197536
    H   H9   0.831263  0.399668  0.554212  0.158295
    H   H10  0.164109  0.603017  0.450543  0.155370
    N   N1   0.127831  0.450479  0.548557  0.178397
    N   N2   0.871764  0.552476  0.452299  0.097213
    C   C19  0.080152  0.517180  0.497361  -0.063551
    C   C20  0.916394  0.483168  0.504356  0.033709
    O   O9   0.270236  0.464463  0.209759  -0.405173
    H   H11  0.224784  0.369328  0.221958  0.286448
    O   O10  0.730481  0.540402  0.789414  -0.473751
    H   H12  0.735070  0.454265  0.775473  0.318664
    O   O11  0.979264  0.662153  0.401164  -0.425704
    H   H13  0.965573  0.730999  0.446603  0.365200
    O   O12  0.024447  0.333484  0.592627  -0.460265
    H   H14  0.054235  0.269874  0.547378  0.365922
