# Generated by REPEAT Assigner based on pymatgen
data_DB0-m9_o2_o25_f0_sra.sym.131
_audit_creation_date              2022-05-24
_audit_creation_method            REPEAT_Assigner
_cell_length_a                    6.325854
_cell_length_b                    16.949562
_cell_length_c                    19.889152
_cell_angle_alpha                 67.461071
_cell_angle_beta                  90.867735
_cell_angle_gamma                 90.987595
_cell_volume                      1969.263559
_symmetry_space_group_name_H-M    P1
_symmetry_Int_Tables_number       1
loop_
    _symmetry_equiv_pos_site_id
    _symmetry_equiv_pos_as_xyz
    1  x,y,z
loop_
    _atom_site_type_symbol
    _atom_site_label
    _atom_site_fract_x
    _atom_site_fract_y
    _atom_site_fract_z
    _atom_type_partial_charge
    O  O1   0.562489  0.415217  0.973786  -0.549220
    O  O2   0.766450  0.391272  0.058867  -0.532986
    O  O3   0.990642  0.516082  0.086626  -0.789872
    C  C1   0.648066  0.393893  0.112859  0.786711
    O  O4   0.852228  0.477149  0.908761  -0.661558
    O  O5   0.068713  0.601068  0.937341  -0.512688
    C  C2   0.676682  0.434066  0.915357  0.871912
    O  O6   0.485299  0.445404  0.100529  -0.444201
    O  O7   0.673921  0.564463  0.986373  -0.585458
    V  V1   0.945286  0.489629  0.999402  1.478197
    O  O8   0.357002  0.561298  0.892289  -0.597991
    C  C3   0.186793  0.606603  0.882272  0.916993
    O  O9   0.273377  0.592081  0.019102  -0.549822
    C  C4   0.159916  0.565054  0.079531  0.922069
    V  V2   0.446067  0.510042  0.995445  1.308300
    O  O10  0.168864  0.434700  0.011035  -0.613867
    C  C5   0.099637  0.701979  0.312023  -0.234369
    C  C6   0.293810  0.694233  0.270881  -0.145518
    H  H1   0.416410  0.644424  0.291504  0.077761
    H  H2   0.060191  0.661076  0.369071  0.085506
    H  H3   0.485267  0.822628  0.244301  0.061196
    C  C7   0.164877  0.615544  0.123233  -0.142300
    C  C8   0.127395  0.888475  0.367352  -0.051327
    C  C9   0.961273  0.715424  0.245416  -0.171689
    C  C10  0.155343  0.708568  0.205071  0.827227
    C  C11  0.999192  0.811431  0.218365  -0.246367
    C  C12  0.137679  0.797080  0.284179  0.821552
    C  C13  0.193388  0.803670  0.177199  -0.220006
    C  C14  0.331754  0.790236  0.243831  -0.186343
    C  C15  0.162985  0.657717  0.160103  -0.441134
    C  C16  0.129821  0.847336  0.329630  -0.481439
    H  H4   0.232825  0.844571  0.120149  0.080249
    H  H5   0.876609  0.861246  0.197749  0.109809
    H  H6   0.807759  0.683033  0.244944  0.055912
    H  H7   0.352446  0.515403  0.691252  0.109674
    C  C17  0.068937  0.772658  0.873970  -0.274563
    C  C18  0.009777  0.851866  0.870776  -0.085771
    C  C19  0.988167  0.918526  0.804530  -0.116803
    C  C20  0.027244  0.906093  0.741444  -0.221146
    C  C21  0.084113  0.826551  0.744183  0.295550
    C  C22  0.103341  0.759058  0.810638  0.262802
    C  C23  0.128845  0.816059  0.680341  -0.591195
    C  C24  0.192045  0.737070  0.682774  0.385541
    C  C25  0.210903  0.669493  0.749232  0.224228
    C  C26  0.165288  0.679908  0.813061  -0.512007
    C  C27  0.227822  0.723714  0.619435  -0.426216
    C  C28  0.287420  0.644557  0.622598  -0.035615
    C  C29  0.308207  0.577761  0.688825  -0.120102
    C  C30  0.268143  0.590014  0.751935  -0.204118
    H  H8   0.092701  0.722993  0.926793  0.173064
    H  H9   0.983372  0.861937  0.920452  0.088062
    H  H10  0.944370  0.980947  0.802063  0.116140
    H  H11  0.016879  0.959685  0.689998  0.123433
    H  H12  0.205478  0.773694  0.566666  0.270531
    H  H13  0.315006  0.634642  0.572920  0.082879
    H  H14  0.278387  0.536397  0.803374  0.121003
    H  H15  0.534311  0.370152  0.424101  0.090406
    C  C31  0.701558  0.088016  0.255578  -0.213573
    C  C32  0.728942  0.073234  0.192941  -0.101690
    C  C33  0.725890  0.140466  0.126558  -0.080343
    C  C34  0.698233  0.222498  0.122833  -0.347937
    C  C35  0.677420  0.238312  0.185832  0.334424
    C  C36  0.675739  0.170194  0.252280  0.252028
    C  C37  0.648183  0.320615  0.182902  -0.479984
    C  C38  0.610755  0.333508  0.246704  0.033447
    C  C39  0.607499  0.264600  0.313061  0.448497
    C  C40  0.639732  0.182778  0.315659  -0.583180
    C  C41  0.580782  0.415421  0.244761  0.203442
    C  C42  0.550756  0.427990  0.308515  -0.261862
    C  C43  0.551611  0.359770  0.374128  -0.002540
    C  C44  0.581495  0.278619  0.376567  -0.449381
    H  H16  0.696185  0.034457  0.307200  0.116484
    H  H17  0.748129  0.008769  0.195808  0.100779
    H  H18  0.741986  0.128817  0.077126  0.091964
    H  H19  0.686811  0.272674  0.069736  0.240626
    H  H20  0.538666  0.491521  0.308280  0.143277
    H  H21  0.590920  0.227491  0.429209  0.269028
    O  O11  0.802561  0.056320  0.395150  -0.561680
    O  O12  0.434918  0.017396  0.588235  -0.660360
    O  O13  0.220140  0.896130  0.555505  -0.465900
    C  C45  0.610062  0.060526  0.582775  0.867301
    O  O14  0.522635  0.108193  0.439133  -0.545646
    O  O15  0.300487  0.985982  0.406799  -0.617566
    C  C46  0.640872  0.108039  0.384495  0.935519
    O  O16  0.725821  0.081120  0.524452  -0.572386
    O  O17  0.615162  0.934234  0.507540  -0.582770
    V  V3   0.343640  0.008597  0.495985  1.411363
    O  O18  0.016731  0.908138  0.472865  -0.601440
    C  C47  0.131188  0.937150  0.412567  0.778786
    O  O19  0.932511  0.933686  0.602136  -0.601030
    C  C48  0.103558  0.889182  0.611220  0.928056
    V  V4   0.843255  0.987926  0.499178  1.383238
    O  O20  0.119900  0.063226  0.485372  -0.584470
    C  C49  0.752759  0.316749  0.718190  -0.089692
    C  C50  0.555803  0.291058  0.686293  -0.197473
    H  H22  0.485132  0.327376  0.632007  0.082289
    H  H23  0.845069  0.376895  0.692621  0.038096
    H  H24  0.281593  0.282299  0.767479  0.062810
    C  C51  0.629547  0.110102  0.627150  -0.130075
    C  C52  0.655054  0.383030  0.872277  -0.139364
    C  C53  0.837939  0.226681  0.741431  -0.176397
    C  C54  0.641070  0.201865  0.710320  0.699392
    C  C55  0.726893  0.200798  0.814223  -0.195223
    C  C56  0.641620  0.289989  0.790181  0.692402
    C  C57  0.529901  0.175088  0.782312  -0.103028
    C  C58  0.444733  0.265182  0.759076  -0.167719
    C  C59  0.637840  0.151586  0.664660  -0.409483
    C  C60  0.645551  0.340732  0.835460  -0.400079
    H  H25  0.437576  0.114946  0.807876  0.041675
    H  H26  0.797580  0.164471  0.868505  0.082166
    H  H27  0.001082  0.209577  0.733019  0.065002
    N  N1   0.596802  0.486646  0.178490  -0.495578
    C  C61  0.513178  0.560167  0.176376  0.630380
    O  O21  0.372471  0.558937  0.217966  -0.363973
    C  C62  0.584722  0.643024  0.120087  -0.585435
    H  H28  0.724781  0.491041  0.146198  0.368153
    H  H29  0.709953  0.631246  0.086750  0.159674
    H  H30  0.648693  0.684835  0.147099  0.150331
    H  H31  0.449445  0.674766  0.084458  0.155617
