# Generated by REPEAT Assigner based on pymatgen
data_DB0-m3_o11_o15_f0_nbo.sym.106_sqe
_audit_creation_date              2022-05-24
_audit_creation_method            REPEAT_Assigner
_cell_length_a                    19.242750
_cell_length_b                    19.068603
_cell_length_c                    19.134865
_cell_angle_alpha                 109.126545
_cell_angle_beta                  110.008368
_cell_angle_gamma                 109.317826
_cell_volume                      5402.049123
_symmetry_space_group_name_H-M    P1
_symmetry_Int_Tables_number       1
loop_
    _symmetry_equiv_pos_site_id
    _symmetry_equiv_pos_as_xyz
    1  x,y,z
loop_
    _atom_site_type_symbol
    _atom_site_label
    _atom_site_fract_x
    _atom_site_fract_y
    _atom_site_fract_z
    _atom_type_partial_charge
    O   O1   0.411262  0.360688  0.445067  -0.683277
    O   O2   0.403817  0.456598  0.549555  -0.657431
    C   C1   0.380953  0.378363  0.496454  0.680120
    O   O3   0.593590  0.465527  0.544040  -0.674660
    O   O4   0.579747  0.557520  0.645047  -0.636488
    C   C2   0.615741  0.512975  0.623850  0.677854
    Zn  Zn1  0.500803  0.440911  0.433245  1.274308
    Zn  Zn2  0.486597  0.566921  0.565102  1.272417
    O   O5   0.583553  0.551307  0.448825  -0.633197
    O   O6   0.576143  0.647086  0.553252  -0.696388
    O   O7   0.407479  0.450049  0.353241  -0.673327
    O   O8   0.393741  0.542327  0.454326  -0.685839
    C   C3   0.606551  0.629619  0.501964  0.679752
    C   C4   0.371335  0.494184  0.374612  0.713072
    H   H1   0.538532  0.223194  0.566283  0.090395
    C   C5   0.764911  0.668994  0.764371  -0.257684
    C   C6   0.831100  0.745597  0.835505  -0.063538
    C   C7   0.885385  0.746416  0.904776  -0.071099
    C   C8   0.876373  0.670615  0.901366  -0.237910
    C   C9   0.812052  0.592412  0.828242  0.141887
    C   C10  0.752407  0.591619  0.761463  0.178398
    C   C11  0.806844  0.515655  0.821729  -0.206423
    C   C12  0.738295  0.437969  0.750685  0.147845
    C   C13  0.673406  0.437267  0.688956  0.153684
    C   C14  0.681840  0.514022  0.692410  -0.206330
    C   C15  0.734020  0.360424  0.739643  -0.231518
    C   C16  0.663078  0.283915  0.673174  -0.077007
    C   C17  0.595323  0.283339  0.617152  -0.077573
    C   C18  0.600253  0.359202  0.624538  -0.225938
    H   H2   0.724857  0.672499  0.711674  0.172979
    H   H3   0.839524  0.805210  0.837298  0.090782
    H   H4   0.936096  0.806674  0.961616  0.087804
    H   H5   0.920402  0.675316  0.958152  0.178356
    H   H6   0.785336  0.356564  0.781112  0.162286
    H   H7   0.660171  0.224206  0.665983  0.091454
    H   H8   0.544590  0.354551  0.579069  0.161645
    C   C19  0.249043  0.249058  0.564172  -0.061721
    C   C20  0.169388  0.197548  0.498079  -0.167920
    H   H9   0.266326  0.245460  0.622555  0.132405
    H   H10  0.149325  0.207362  0.443502  0.127293
    C   C21  0.311233  0.318778  0.563825  -0.121240
    C   C22  0.318438  0.307262  0.494501  -0.140532
    H   H11  0.355514  0.379130  0.623272  0.146945
    H   H12  0.281046  0.244471  0.437689  0.121274
    C   C23  0.178192  0.505121  0.247741  -0.100828
    C   C24  0.188294  0.522202  0.188443  -0.167666
    H   H13  0.119291  0.491709  0.248604  0.142428
    H   H14  0.249881  0.545053  0.192483  0.129616
    C   C25  0.248366  0.512455  0.317970  -0.071467
    C   C26  0.303321  0.489591  0.305347  -0.174652
    H   H15  0.251018  0.530960  0.379154  0.134849
    H   H16  0.295632  0.462554  0.242010  0.128522
    C   C27  0.744313  0.757716  0.436555  -0.036174
    C   C28  0.815741  0.824379  0.508269  -0.202764
    H   H17  0.831831  0.825262  0.568728  0.129439
    C   C29  0.684158  0.688058  0.439097  -0.118837
    C   C30  0.668684  0.701247  0.503887  -0.134496
    H   H18  0.647688  0.624794  0.383120  0.100673
    H   H19  0.698352  0.765383  0.556550  0.117705
    O   O9   0.940722  0.373791  0.922153  -0.696826
    O   O10  0.035776  0.467346  0.904022  -0.659270
    C   C31  0.984566  0.389679  0.884261  0.699312
    O   O11  0.856348  0.472894  0.925221  -0.676272
    O   O12  0.954098  0.562646  0.906572  -0.662951
    C   C32  0.875697  0.517208  0.887966  0.707376
    Zn  Zn3  0.932410  0.455733  0.013872  1.278150
    Zn  Zn4  0.061981  0.579207  0.995405  1.283337
    O   O13  0.958793  0.567521  0.105410  -0.668072
    O   O14  0.053477  0.661184  0.086966  -0.688142
    O   O15  0.040272  0.472064  0.102576  -0.664406
    O   O16  0.138149  0.562440  0.084341  -0.696408
    C   C33  0.009743  0.645124  0.125009  0.685230
    C   C34  0.118620  0.518196  0.121445  0.715952
    O   O17  0.049395  0.099536  0.650369  -0.678206
    O   O18  0.946417  0.104764  0.548967  -0.697708
    C   C35  0.999130  0.130473  0.628856  0.698821
    O   O19  0.131349  0.104116  0.553432  -0.688184
    O   O20  0.024932  0.102735  0.448613  -0.679002
    C   C36  0.105574  0.131848  0.500659  0.706110
    Zn  Zn5  0.062564  0.011264  0.570322  1.299539
    Zn  Zn6  0.922575  0.013725  0.438286  1.282746
    O   O21  0.038984  0.920475  0.459651  -0.718284
    O   O22  0.935643  0.925407  0.358176  -0.649198
    O   O23  0.960137  0.922068  0.559759  -0.672995
    O   O24  0.853904  0.920974  0.455354  -0.677378
    C   C37  0.986377  0.894938  0.379763  0.668639
    C   C38  0.879442  0.892279  0.507252  0.731934
    C   C39  0.979481  0.252497  0.684787  -0.079963
    C   C40  0.003314  0.197644  0.698012  -0.154305
    H   H20  0.959453  0.249304  0.623031  0.143476
    H   H21  0.032639  0.206372  0.761933  0.126942
    C   C41  0.990309  0.324795  0.755302  -0.116843
    C   C42  0.975190  0.316855  0.816167  -0.149394
    H   H22  0.005342  0.384097  0.753771  0.145401
    H   H23  0.950888  0.255231  0.813051  0.125162
    C   C43  0.013274  0.778340  0.324687  -0.170351
    C   C44  0.984077  0.829645  0.310707  -0.031797
    H   H24  0.035834  0.782336  0.386840  0.174516
    H   H25  0.952697  0.819655  0.246464  0.083055
    C   C45  0.004584  0.707945  0.254298  -0.057990
    C   C46  0.018703  0.717257  0.193408  -0.165387
    H   H26  0.991709  0.648833  0.255811  0.130882
    H   H27  0.040909  0.778903  0.196382  0.118790
    C   C47  0.729489  0.745416  0.351987  0.375272
    C   C48  0.772970  0.715806  0.317103  -0.071469
    Cl  Cl1  0.845556  0.690548  0.372440  -0.063925
    C   C49  0.757933  0.704168  0.237241  -0.057388
    C   C50  0.699202  0.721398  0.191886  0.000111
    Cl  Cl2  0.680447  0.706781  0.090597  -0.086094
    C   C51  0.654627  0.749304  0.225904  -0.045170
    C   C52  0.669382  0.760778  0.305640  -0.294505
    H   H28  0.792025  0.681173  0.210021  0.106193
    H   H29  0.608085  0.762175  0.190050  0.105974
    H   H30  0.634482  0.782769  0.332323  0.152696
