# Generated by REPEAT Assigner based on pymatgen
data_DB0-m3_o9_o9_f0_nbo.sym.51
_audit_creation_date              2022-05-24
_audit_creation_method            REPEAT_Assigner
_cell_length_a                    18.794828
_cell_length_b                    18.793249
_cell_length_c                    18.894922
_cell_angle_alpha                 109.360444
_cell_angle_beta                  109.364042
_cell_angle_gamma                 109.468303
_cell_volume                      5151.589584
_symmetry_space_group_name_H-M    P1
_symmetry_Int_Tables_number       1
loop_
    _symmetry_equiv_pos_site_id
    _symmetry_equiv_pos_as_xyz
    1  x,y,z
loop_
    _atom_site_type_symbol
    _atom_site_label
    _atom_site_fract_x
    _atom_site_fract_y
    _atom_site_fract_z
    _atom_type_partial_charge
    C   C1    0.385204  0.508114  0.396496  0.897533
    C   C2    0.829046  0.788372  0.826194  -0.129035
    C   C3    0.980681  0.748683  0.978226  0.052949
    C   C4    0.965460  0.729627  0.037887  -0.255730
    C   C5    0.026746  0.781965  0.124703  0.275494
    C   C6    0.302642  0.532221  0.969590  -0.079380
    C   C7    0.219295  0.471418  0.902138  -0.192347
    C   C8    0.178563  0.389880  0.892485  0.321449
    C   C9    0.223696  0.367849  0.947412  -0.160945
    C   C10   0.306951  0.428684  0.014992  -0.130739
    C   C11   0.346239  0.511088  0.026459  -0.146002
    C   C12   0.085224  0.256715  0.753334  -0.197460
    C   C13   0.823921  0.818642  0.571973  -0.239933
    C   C14   0.005918  0.193472  0.680660  0.116935
    C   C15   0.931233  0.196159  0.674147  -0.128297
    C   C16   0.937195  0.260286  0.741784  -0.205942
    C   C17   0.016556  0.323923  0.814027  0.340527
    C   C18   0.091766  0.323743  0.818672  -0.189501
    C   C19   0.797935  0.159069  0.551940  -0.224954
    C   C20   0.717707  0.099104  0.479236  -0.082573
    C   C21   0.684217  0.011909  0.453331  -0.166348
    C   C22   0.730228  0.984854  0.501117  0.024884
    C   C23   0.810241  0.044760  0.574043  -0.260797
    C   C24   0.806462  0.818242  0.494835  0.253855
    C   C25   0.845166  0.131881  0.598491  0.305646
    C   C26   0.144406  0.567169  0.476882  0.617588
    C   C27   0.126163  0.593033  0.551451  -0.277798
    C   C28   0.213111  0.647598  0.487682  -0.412809
    C   C29   0.060895  0.530215  0.393862  -0.355389
    C   C30   0.724120  0.758000  0.422338  -0.153049
    C   C31   0.662283  0.699787  0.429446  -0.145236
    C   C32   0.680642  0.700633  0.506759  0.028868
    C   C33   0.761407  0.761563  0.578738  -0.116805
    C   C34   0.625192  0.747111  0.289735  -0.238008
    C   C35   0.601319  0.736091  0.207896  -0.076067
    C   C36   0.652617  0.726472  0.171795  -0.171221
    C   C37   0.617457  0.631591  0.509164  0.846540
    C   C38   0.727676  0.727562  0.217515  -0.034248
    C   C39   0.751461  0.738485  0.299280  -0.145294
    C   C40   0.701012  0.749487  0.336427  0.210126
    C   C41   0.486485  0.781559  0.542660  -0.084299
    C   C42   0.418910  0.698752  0.480009  -0.133381
    C   C43   0.399447  0.667604  0.394750  0.172636
    C   C44   0.446228  0.721311  0.372522  -0.147014
    C   C45   0.512908  0.804364  0.435002  -0.159613
    C   C46   0.533768  0.834365  0.520207  -0.069392
    C   C47   0.262582  0.576083  0.257061  -0.237945
    C   C48   0.628668  0.515117  0.626076  0.840941
    C   C49   0.189229  0.497555  0.191934  0.222455
    C   C50   0.178549  0.422409  0.196550  -0.208413
    C   C51   0.241975  0.428124  0.265584  -0.111834
    C   C52   0.315258  0.506833  0.330250  -0.065494
    C   C53   0.324727  0.581684  0.326641  0.018986
    C   C54   0.057889  0.280078  0.148226  -0.274600
    C   C55   0.990397  0.197685  0.084204  -0.096499
    C   C56   0.970326  0.169895  0.999340  -0.134351
    C   C57   0.018143  0.224417  0.978584  -0.044612
    C   C58   0.085628  0.306750  0.042581  -0.153163
    C   C59   0.394587  0.390739  0.512227  0.844443
    C   C60   0.105151  0.335585  0.127646  0.275459
    C   C61   0.249068  0.526190  0.549851  -0.113219
    C   C62   0.275215  0.466913  0.555233  -0.245212
    C   C63   0.229988  0.383355  0.486833  0.257419
    C   C64   0.158680  0.359765  0.412980  -0.182373
    C   C65   0.131944  0.418551  0.407215  -0.138275
    C   C66   0.176012  0.502687  0.476546  -0.061464
    C   C67   0.185734  0.247539  0.489978  -0.209607
    C   C68   0.200226  0.183665  0.500894  0.125615
    C   C69   0.279415  0.187707  0.515355  -0.152255
    C   C70   0.757907  0.794264  0.783214  -0.014824
    C   C71   0.343080  0.257305  0.521466  -0.141472
    C   C72   0.328639  0.321949  0.512362  0.018612
    C   C73   0.249207  0.316693  0.496246  -0.053166
    C   C74   0.369821  0.135221  0.585101  -0.242031
    C   C75   0.385946  0.069169  0.586548  -0.116494
    C   C76   0.328361  0.984740  0.520056  -0.114186
    C   C77   0.254906  0.966420  0.451705  -0.046851
    C   C78   0.238682  0.032376  0.450160  -0.166827
    C   C79   0.295412  0.116976  0.517595  0.247359
    C   C80   0.521664  0.550934  0.793204  -0.047704
    C   C81   0.735058  0.784698  0.702004  -0.288035
    C   C82   0.594765  0.560848  0.786421  -0.282021
    C   C83   0.609537  0.491557  0.763385  0.297422
    C   C84   0.552095  0.413064  0.749489  -0.207125
    C   C85   0.478858  0.403147  0.756038  -0.057048
    C   C86   0.463452  0.471943  0.777538  -0.140634
    C   C87   0.750017  0.496014  0.814711  -0.226804
    C   C88   0.825599  0.507248  0.812189  0.145327
    C   C89   0.836625  0.522088  0.747981  -0.132203
    C   C90   0.772958  0.527094  0.689540  -0.157958
    C   C91   0.698390  0.517134  0.693438  0.015089
    C   C92   0.782396  0.767550  0.662912  0.346455
    C   C93   0.687379  0.502024  0.756873  -0.057053
    C   C94   0.959489  0.594477  0.729036  -0.179957
    C   C95   0.027379  0.597155  0.714633  -0.182264
    C   C96   0.046083  0.530798  0.705537  -0.030583
    C   C97   0.996239  0.461247  0.709857  -0.112521
    C   C98   0.928331  0.458476  0.724265  -0.110291
    C   C99   0.910550  0.525893  0.735428  0.174297
    C   C100  0.001729  0.874390  0.382443  0.531894
    C   C101  0.875999  0.883995  0.494593  0.553663
    C   C102  0.004340  0.125071  0.613472  0.625575
    C   C103  0.854338  0.763095  0.706695  -0.251443
    C   C104  0.131190  0.115774  0.499461  0.626699
    C   C105  0.017232  0.388515  0.883766  0.478399
    C   C106  0.124193  0.498236  0.122271  0.552998
    C   C107  0.999319  0.615532  0.118286  0.608370
    C   C108  0.891660  0.504489  0.879134  0.652291
    C   C109  0.011821  0.726049  0.517039  -0.067297
    C   C110  0.031084  0.745694  0.459252  -0.089688
    C   C111  0.966969  0.705280  0.374205  0.253901
    C   C112  0.885667  0.639706  0.345894  -0.136265
    C   C113  0.866690  0.619277  0.403468  -0.162626
    C   C114  0.877540  0.773496  0.788077  -0.076060
    C   C115  0.929477  0.663195  0.489305  -0.111085
    C   C116  0.980513  0.664178  0.244409  -0.200337
    C   C117  0.995991  0.680944  0.183607  0.128656
    C   C118  0.012790  0.760779  0.188598  -0.118617
    C   C119  0.014213  0.822178  0.254414  -0.188705
    C   C120  0.001792  0.806677  0.316647  0.288023
    C   C121  0.985536  0.727222  0.312404  -0.193437
    C   C122  0.101304  0.855697  0.151672  -0.214549
    C   C123  0.115956  0.875217  0.091921  -0.079012
    C   C124  0.056020  0.821308  0.005129  -0.186821
    H   H1    0.847352  0.796458  0.890111  0.073833
    H   H2    0.633840  0.717773  0.107609  0.107563
    H   H3    0.767885  0.719628  0.189240  0.065762
    H   H4    0.810017  0.738762  0.334281  0.104075
    H   H5    0.586340  0.899571  0.569107  0.072690
    H   H6    0.501697  0.805369  0.609257  0.088861
    H   H7    0.380622  0.659182  0.498132  0.077226
    H   H8    0.430835  0.698592  0.305952  0.091183
    H   H9    0.548287  0.846010  0.416693  0.125109
    H   H10   0.269830  0.634937  0.255443  0.122209
    H   H11   0.236118  0.369712  0.267586  0.099107
    H   H12   0.720519  0.807198  0.813488  0.092854
    H   H13   0.072787  0.301209  0.214435  0.181022
    H   H14   0.953199  0.154824  0.100635  0.100781
    H   H15   0.917437  0.105279  0.949200  0.096980
    H   H16   0.002964  0.202601  0.912140  0.058809
    H   H17   0.123223  0.348597  0.025806  0.112579
    H   H18   0.285437  0.590507  0.605533  0.099114
    H   H19   0.329329  0.485458  0.614820  0.104557
    H   H20   0.121937  0.293907  0.359484  0.096033
    H   H21   0.074787  0.394939  0.347938  0.099538
    H   H22   0.125007  0.245785  0.480046  0.125692
    H   H23   0.680750  0.791972  0.669738  0.110385
    H   H24   0.403934  0.259903  0.530391  0.102043
    H   H25   0.415234  0.201125  0.637676  0.171045
    H   H26   0.443861  0.083644  0.639905  0.103348
    H   H27   0.341116  0.933024  0.521222  0.094191
    H   H28   0.210174  0.900356  0.399059  0.070534
    H   H29   0.181684  0.017516  0.395491  0.110581
    H   H30   0.405970  0.464075  0.782538  0.098017
    H   H31   0.509963  0.605099  0.810735  0.093814
    H   H32   0.640662  0.623144  0.799565  0.115797
    H   H33   0.563783  0.358867  0.732281  0.099364
    H   H34   0.892727  0.751291  0.677306  0.121930
    H   H35   0.433394  0.341380  0.744216  0.084905
    H   H36   0.740634  0.485310  0.864488  0.129645
    H   H37   0.779909  0.535787  0.637984  0.113432
    H   H38   0.945392  0.646810  0.736080  0.144752
    H   H39   0.065870  0.651285  0.710307  0.121257
    H   H40   0.099314  0.532910  0.694263  0.081092
    H   H41   0.010101  0.408575  0.701389  0.080162
    H   H42   0.888569  0.402813  0.725833  0.098270
    H   H43   0.914536  0.647528  0.534587  0.108494
    H   H44   0.061672  0.759249  0.583984  0.073389
    H   H45   0.934234  0.770444  0.821900  0.106868
    H   H46   0.096529  0.793138  0.480969  0.080356
    H   H47   0.835798  0.605822  0.278852  0.092252
    H   H48   0.802338  0.569230  0.381372  0.112576
    H   H49   0.968109  0.602426  0.241197  0.135380
    H   H50   0.025400  0.883673  0.257513  0.113713
    H   H51   0.149397  0.897388  0.219558  0.102796
    H   H52   0.174890  0.932344  0.113088  0.104451
    H   H53   0.068176  0.836186  0.958337  0.092573
    H   H54   0.933470  0.706155  0.910323  0.081972
    H   H55   0.905933  0.672875  0.016248  0.114532
    H   H56   0.886405  0.866676  0.629206  0.131457
    H   H57   0.411606  0.558714  0.079304  0.117020
    H   H58   0.333983  0.596330  0.977605  0.095114
    H   H59   0.185858  0.487715  0.856760  0.093921
    H   H60   0.193434  0.303002  0.938065  0.088064
    H   H61   0.341570  0.411611  0.058753  0.107761
    H   H62   0.143829  0.255883  0.758094  0.123339
    H   H63   0.878719  0.261020  0.737663  0.109369
    H   H64   0.824591  0.227311  0.571275  0.106411
    H   H65   0.681412  0.120399  0.442113  0.103802
    H   H66   0.621766  0.964903  0.395686  0.090256
    H   H67   0.599639  0.650353  0.372974  0.105494
    H   H68   0.703969  0.916618  0.481285  0.069526
    H   H69   0.845926  0.023160  0.611322  0.119099
    H   H70   0.187206  0.635024  0.614581  0.041072
    H   H71   0.085046  0.533632  0.549766  0.037591
    H   H72   0.091211  0.629630  0.545403  0.052759
    H   H73   0.273869  0.681699  0.550217  0.078532
    H   H74   0.188602  0.693420  0.485690  0.061050
    H   H75   0.227255  0.628152  0.434053  0.084569
    H   H76   0.007365  0.473436  0.384877  0.049228
    H   H77   0.071316  0.512131  0.337488  0.059731
    H   H78   0.584620  0.754851  0.317413  0.162451
    H   H79   0.041013  0.580032  0.397586  0.079947
    H   H80   0.542208  0.734890  0.171977  0.102480
    O   O1    0.386102  0.518204  0.468967  -0.650021
    O   O2    0.951609  0.905598  0.356653  -0.667278
    O   O3    0.956998  0.910189  0.547852  -0.689816
    O   O4    0.855215  0.915162  0.443091  -0.576213
    O   O5    0.056612  0.095928  0.638809  -0.665930
    O   O6    0.951692  0.095780  0.531917  -0.633555
    O   O7    0.152212  0.085598  0.551984  -0.626763
    O   O8    0.050374  0.091326  0.448115  -0.679170
    O   O9    0.072398  0.470651  0.917380  -0.577051
    O   O10   0.958204  0.361414  0.905545  -0.657818
    O   O11   0.152113  0.553524  0.096627  -0.648053
    O   O12   0.445315  0.497001  0.381673  -0.762729
    O   O13   0.041129  0.445977  0.090246  -0.627693
    O   O14   0.057451  0.642272  0.095695  -0.623006
    O   O15   0.944750  0.533132  0.085775  -0.665635
    O   O16   0.974923  0.556953  0.911233  -0.645104
    O   O17   0.863987  0.451093  0.906596  -0.680854
    O   O18   0.556597  0.640903  0.523421  -0.648415
    O   O19   0.621565  0.560257  0.495483  -0.755036
    O   O20   0.624349  0.586316  0.639268  -0.631098
    O   O21   0.570550  0.441723  0.553373  -0.760131
    O   O22   0.453710  0.463636  0.584690  -0.606621
    O   O23   0.394174  0.378404  0.439485  -0.767677
    O   O24   0.055660  0.905050  0.463703  -0.609611
    Zn  Zn1   0.504746  0.568425  0.570894  1.119717
    Zn  Zn2   0.508347  0.453216  0.450709  1.286359
    Zn  Zn3   0.070092  0.998685  0.568252  1.257721
    Zn  Zn4   0.937366  0.002266  0.427199  1.264001
    Zn  Zn5   0.080612  0.573986  0.006610  1.244037
    Zn  Zn6   0.935620  0.429678  0.995494  1.281451
