data_DB0-m3_o12_o29_f0_pcu.sym.37_repeat
_audit_creation_date              2024-02-20
_audit_creation_method            'Materials Studio'
_symmetry_space_group_name_H-M    'P1'
_symmetry_Int_Tables_number       1
_symmetry_cell_setting            triclinic
loop_
_symmetry_equiv_pos_as_xyz
  x,y,z
_cell_length_a                    10.0024
_cell_length_b                    11.2495
_cell_length_c                    27.6444
_cell_angle_alpha                 89.9794
_cell_angle_beta                  80.7813
_cell_angle_gamma                 92.4456
loop_
_atom_site_label
_atom_site_type_symbol
_atom_site_fract_x
_atom_site_fract_y
_atom_site_fract_z
_atom_site_U_iso_or_equiv
_atom_site_adp_type
_atom_site_occupancy
O1     O     0.40528   0.70638   0.50583   0.00000  Uiso   1.00
O2     O     0.55483   0.32508   0.49646   0.00000  Uiso   1.00
O3     O     0.63485   0.67532   0.49173   0.00000  Uiso   1.00
O4     O     0.32526   0.35614   0.51060   0.00000  Uiso   1.00
C1     C     0.53230   0.74570   0.49805   0.00000  Uiso   1.00
C2     C     0.42780   0.28575   0.50426   0.00000  Uiso   1.00
O5     O     0.36784   0.53097   0.58015   0.00000  Uiso   1.00
O6     O     0.59226   0.50052   0.42219   0.00000  Uiso   1.00
O7     O     0.59725   0.49989   0.56604   0.00000  Uiso   1.00
O8     O     0.36282   0.53148   0.43625   0.00000  Uiso   1.00
C3     C     0.48317   0.51536   0.59572   0.00000  Uiso   1.00
C4     C     0.47704   0.51605   0.40659   0.00000  Uiso   1.00
Zn1    Zn    0.32877   0.53636   0.51047   0.00000  Uiso   1.00
Zn2    Zn    0.63134   0.49509   0.49184   0.00000  Uiso   1.00
C5     C     0.56853   0.59226   0.81977   0.00000  Uiso   1.00
C6     C     0.41589   0.41849   0.18147   0.00000  Uiso   1.00
O9     O     0.62888   0.68140   0.79080   0.00000  Uiso   1.00
O10    O     0.34381   0.33701   0.21157   0.00000  Uiso   1.00
N1     N     0.49050   0.51068   0.80031   0.00000  Uiso   1.00
N2     N     0.47826   0.51000   0.20158   0.00000  Uiso   1.00
C7     C     0.41486   0.42796   0.82881   0.00000  Uiso   1.00
C8     C     0.54408   0.59842   0.17353   0.00000  Uiso   1.00
C9     C     0.36844   0.52810   0.73120   0.00000  Uiso   1.00
C10    C     0.35714   0.52427   0.28514   0.00000  Uiso   1.00
C11    C     0.36663   0.52937   0.68141   0.00000  Uiso   1.00
C12    C     0.35680   0.52610   0.33508   0.00000  Uiso   1.00
C13    C     0.60461   0.49939   0.66644   0.00000  Uiso   1.00
C14    C     0.59631   0.50386   0.32145   0.00000  Uiso   1.00
C15    C     0.60617   0.49844   0.71620   0.00000  Uiso   1.00
C16    C     0.59640   0.50263   0.27162   0.00000  Uiso   1.00
C17    C     0.48819   0.51252   0.74881   0.00000  Uiso   1.00
C18    C     0.47697   0.51234   0.25325   0.00000  Uiso   1.00
C19    C     0.49534   0.50745   0.89965   0.00000  Uiso   1.00
C20    C     0.48622   0.50451   0.10158   0.00000  Uiso   1.00
C21    C     0.57811   0.58848   0.86963   0.00000  Uiso   1.00
C22    C     0.42395   0.41093   0.13058   0.00000  Uiso   1.00
C23    C     0.66561   0.66487   0.89062   0.00000  Uiso   1.00
C24    C     0.37040   0.31365   0.10774   0.00000  Uiso   1.00
C25    C     0.41431   0.42679   0.87876   0.00000  Uiso   1.00
C26    C     0.54689   0.59788   0.12348   0.00000  Uiso   1.00
C27    C     0.48476   0.51480   0.64871   0.00000  Uiso   1.00
C28    C     0.47648   0.51553   0.35353   0.00000  Uiso   1.00
H1     H     0.69841   0.48763   0.64180   0.00000  Uiso   1.00
H2     H     0.69138   0.49550   0.33474   0.00000  Uiso   1.00
H3     H     0.70032   0.48518   0.72956   0.00000  Uiso   1.00
H4     H     0.69058   0.49266   0.24693   0.00000  Uiso   1.00
C29    C     0.55779   0.59661   0.02239   0.00000  Uiso   1.00
C30    C     0.41511   0.42051   0.97928   0.00000  Uiso   1.00
C31    C     0.42137   0.41495   0.02945   0.00000  Uiso   1.00
C32    C     0.56836   0.59186   0.97134   0.00000  Uiso   1.00
C33    C     0.48848   0.50531   0.05107   0.00000  Uiso   1.00
C34    C     0.49302   0.50655   0.95016   0.00000  Uiso   1.00
C35    C     0.61423   0.69148   0.04557   0.00000  Uiso   1.00
C36    C     0.33164   0.34225   0.95747   0.00000  Uiso   1.00
C37    C     0.60899   0.69166   0.09541   0.00000  Uiso   1.00
C38    C     0.33181   0.34537   0.90789   0.00000  Uiso   1.00
O11    O     0.60359   0.68939   0.19476   0.00000  Uiso   1.00
O12    O     0.34029   0.34582   0.80836   0.00000  Uiso   1.00
C39    C     0.65724   0.66782   0.94078   0.00000  Uiso   1.00
C40    C     0.36645   0.31820   0.05824   0.00000  Uiso   1.00
H5     H     0.26177   0.53546   0.35931   0.00000  Uiso   1.00
H6     H     0.27162   0.54187   0.66860   0.00000  Uiso   1.00
H7     H     0.26318   0.53298   0.27107   0.00000  Uiso   1.00
H8     H     0.27562   0.54049   0.75635   0.00000  Uiso   1.00
H9     H     0.65416   0.76732   0.11180   0.00000  Uiso   1.00
H10    H     0.26494   0.28310   0.89262   0.00000  Uiso   1.00
H11    H     0.65931   0.77041   0.02655   0.00000  Uiso   1.00
H12    H     0.25984   0.27958   0.97788   0.00000  Uiso   1.00
H13    H     0.73162   0.72459   0.95452   0.00000  Uiso   1.00
H14    H     0.32941   0.23833   0.04256   0.00000  Uiso   1.00
H15    H     0.60229   0.11073   0.49369   0.00000  Uiso   1.00
H16    H     0.35781   0.92072   0.50861   0.00000  Uiso   1.00
C41    C     0.56218   0.87447   0.49622   0.00000  Uiso   1.00
C42    C     0.39792   0.15698   0.50609   0.00000  Uiso   1.00
C43    C     0.46329   0.95157   0.50220   0.00000  Uiso   1.00
C44    C     0.49681   0.07989   0.50011   0.00000  Uiso   1.00
H17    H     0.29300   0.12437   0.51249   0.00000  Uiso   1.00
H18    H     0.66710   0.90708   0.48983   0.00000  Uiso   1.00
H19    H     0.09707   0.44418   0.47005   0.00000  Uiso   1.00
H20    H     0.86303   0.58726   0.53227   0.00000  Uiso   1.00
N3     N     0.83007   0.46732   0.47937   0.00000  Uiso   1.00
N4     N     0.13004   0.56414   0.52295   0.00000  Uiso   1.00
C45    C     0.90683   0.52490   0.50496   0.00000  Uiso   1.00
C46    C     0.05327   0.50655   0.49736   0.00000  Uiso   1.00
H21    H     0.08257   0.62218   0.54816   0.00000  Uiso   1.00
H22    H     0.87754   0.40930   0.45414   0.00000  Uiso   1.00
C47    C     0.77721   0.73691   0.86206   0.00000  Uiso   1.00
O13    O     0.80255   0.83792   0.87498   0.00000  Uiso   1.00
O14    O     0.86013   0.68755   0.82484   0.00000  Uiso   1.00
C48    C     0.96890   0.75146   0.79946   0.00000  Uiso   1.00
H23    H     0.02256   0.69482   0.77042   0.00000  Uiso   1.00
H24    H     0.03988   0.77964   0.82469   0.00000  Uiso   1.00
H25    H     0.93332   0.83072   0.78219   0.00000  Uiso   1.00
C49    C     0.32699   0.19945   0.13251   0.00000  Uiso   1.00
O15    O     0.22351   0.14707   0.12455   0.00000  Uiso   1.00
O16    O     0.40863   0.14644   0.15961   0.00000  Uiso   1.00
C50    C     0.37347   0.03684   0.18073   0.00000  Uiso   1.00
H26    H     0.45363   0.01025   0.20150   0.00000  Uiso   1.00
H27    H     0.36345   0.96999   0.15189   0.00000  Uiso   1.00
H28    H     0.27622   0.04102   0.20627   0.00000  Uiso   1.00
