# Generated by REPEAT Assigner based on pymatgen
data_DB0-m29_o81_o147_f0_pts.sym.9
_audit_creation_date              2022-05-24
_audit_creation_method            REPEAT_Assigner
_cell_length_a                    15.712639
_cell_length_b                    9.450486
_cell_length_c                    15.907766
_cell_angle_alpha                 87.561959
_cell_angle_beta                  85.691301
_cell_angle_gamma                 108.259355
_cell_volume                      2231.444233
_symmetry_space_group_name_H-M    P1
_symmetry_Int_Tables_number       1
loop_
    _symmetry_equiv_pos_site_id
    _symmetry_equiv_pos_as_xyz
    1  x,y,z
loop_
    _atom_site_type_symbol
    _atom_site_label
    _atom_site_fract_x
    _atom_site_fract_y
    _atom_site_fract_z
    _atom_type_partial_charge
    C   C1   0.887763  0.035145  0.883739  -0.215468
    C   C2   0.283278  0.985510  0.930890  0.102184
    C   C3   0.200972  0.984930  0.905267  -0.209798
    C   C4   0.131617  0.985853  0.963518  0.137051
    C   C5   0.051593  0.992829  0.936169  -0.207573
    C   C6   0.981801  0.000669  0.993422  -0.012948
    C   C7   0.806031  0.037397  0.860161  -0.120735
    C   C8   0.733402  0.011059  0.919011  0.025202
    C   C9   0.899967  0.011339  0.968202  0.149411
    C   C10  0.829288  0.002227  0.028960  0.081800
    C   C11  0.744275  0.995828  0.004289  -0.034598
    C   C12  0.294910  0.982813  0.016727  -0.053426
    C   C13  0.223692  0.977149  0.074788  -0.215983
    C   C14  0.142876  0.981696  0.048107  0.228658
    C   C15  0.073821  0.985516  0.105662  -0.301087
    C   C16  0.994034  0.994870  0.078582  0.215761
    C   C17  0.927114  0.000917  0.137649  -0.183446
    C   C18  0.845713  0.004446  0.113533  -0.139437
    H   H1   0.940459  0.055416  0.833290  0.148026
    H   H2   0.190881  0.986817  0.838862  0.151210
    H   H3   0.046297  0.989491  0.869330  0.153409
    H   H4   0.798067  0.051035  0.793712  0.156844
    H   H5   0.233380  0.978478  0.141345  0.161829
    H   H6   0.082493  0.982641  0.172411  0.161278
    H   H7   0.937776  0.001603  0.203993  0.143824
    H   H8   0.797761  0.014506  0.162997  0.142140
    O   O1   0.606736  0.042839  0.055406  -0.478964
    C   C19  0.665929  0.972840  0.066818  0.454767
    O   O2   0.469923  0.693375  0.147830  -0.452299
    O   O3   0.653080  0.878021  0.132707  -0.422776
    O   O4   0.507009  0.858313  0.248141  -0.571281
    C   C20  0.485813  0.719811  0.226426  0.654997
    Fe  Fe1  0.514232  0.004145  0.152596  1.401729
    O   O5   0.393980  0.915575  0.108279  -0.545232
    O   O6   0.449502  0.128512  0.022786  -0.464757
    C   C21  0.383462  0.005886  0.047716  0.652651
    O   O7   0.545005  0.206147  0.199190  -0.586020
    O   O8   0.413998  0.083130  0.277867  -0.542587
    C   C22  0.482582  0.205016  0.259075  0.583400
    O   O9   0.471657  0.777394  0.742233  -0.567461
    O   O10  0.597743  0.890511  0.655133  -0.522318
    C   C23  0.527497  0.772748  0.677620  0.582848
    O   O11  0.637678  0.064966  0.820061  -0.576803
    O   O12  0.576072  0.874329  0.920099  -0.447704
    C   C24  0.645017  0.987605  0.888104  0.605724
    O   O13  0.346261  0.016295  0.786048  -0.499627
    O   O14  0.518792  0.125233  0.686655  -0.520734
    C   C25  0.513930  0.252969  0.712158  0.636610
    O   O15  0.428086  0.959693  0.885643  -0.444242
    C   C26  0.355539  0.988826  0.865797  0.485423
    O   O16  0.509152  0.269725  0.793676  -0.477648
    Fe  Fe2  0.513012  0.983345  0.783738  1.385711
    C   C27  0.516951  0.510683  0.687045  -0.035415
    C   C28  0.517958  0.632945  0.637351  -0.049963
    C   C29  0.511787  0.624423  0.551341  0.014731
    C   C30  0.502876  0.757195  0.503695  0.035504
    C   C31  0.501507  0.750779  0.409401  -0.097570
    C   C32  0.513636  0.378168  0.652399  -0.198635
    C   C33  0.509398  0.369126  0.564792  0.176360
    C   C34  0.506930  0.492239  0.514362  -0.055295
    C   C35  0.497569  0.482426  0.423354  0.004762
    C   C36  0.494755  0.605418  0.372985  0.132515
    C   C37  0.487811  0.595213  0.285786  -0.193822
    C   C38  0.505514  0.225100  0.527926  -0.160168
    C   C39  0.501811  0.217404  0.433839  0.127879
    C   C40  0.493074  0.350437  0.386293  -0.042043
    C   C41  0.486289  0.341831  0.300382  -0.027138
    C   C42  0.484269  0.462684  0.251135  -0.056460
    H   H9   0.443004  0.784875  0.393191  0.088719
    H   H10  0.444811  0.136819  0.557690  0.122052
    H   H11  0.442862  0.119250  0.425764  0.083262
    H   H12  0.561042  0.856186  0.512110  0.100118
    H   H13  0.565024  0.834815  0.381651  0.115154
    H   H14  0.567023  0.197934  0.541443  0.090292
    H   H15  0.521708  0.522785  0.753877  0.139643
    H   H16  0.479816  0.450767  0.184253  0.150660
    Cl  Cl1  0.601069  0.182110  0.392255  -0.131997
    Cl  Cl2  0.402799  0.790219  0.544676  -0.120676
