# Generated by REPEAT Assigner based on pymatgen
data_DB0-m3_o10_o28_f0_pcu.sym.12_sqe
_audit_creation_date              2022-05-24
_audit_creation_method            REPEAT_Assigner
_cell_length_a                    7.755639
_cell_length_b                    8.954830
_cell_length_c                    23.416137
_cell_angle_alpha                 90.006398
_cell_angle_beta                  83.887734
_cell_angle_gamma                 91.438085
_cell_volume                      1616.500998
_symmetry_space_group_name_H-M    P1
_symmetry_Int_Tables_number       1
loop_
    _symmetry_equiv_pos_site_id
    _symmetry_equiv_pos_as_xyz
    1  x,y,z
loop_
    _atom_site_type_symbol
    _atom_site_label
    _atom_site_fract_x
    _atom_site_fract_y
    _atom_site_fract_z
    _atom_type_partial_charge
    O   O1   0.382663  0.740855  0.499356  -0.725973
    O   O2   0.617587  0.272348  0.495963  -0.679490
    O   O3   0.679335  0.715634  0.490988  -0.552954
    O   O4   0.319196  0.297593  0.504138  -0.557940
    C   C1   0.541125  0.797995  0.494650  0.800565
    C   C2   0.458478  0.215561  0.500598  0.749089
    O   O5   0.350905  0.520013  0.587309  -0.687966
    O   O6   0.647978  0.491095  0.408329  -0.708125
    O   O7   0.648462  0.498933  0.578619  -0.695959
    O   O8   0.349111  0.514597  0.417329  -0.592523
    C   C3   0.497243  0.511237  0.609762  0.852093
    C   C4   0.499408  0.501622  0.386376  0.721860
    Zn  Zn1  0.302974  0.523165  0.504017  0.985502
    Zn  Zn2  0.695909  0.490191  0.491767  0.998678
    C   C5   0.465320  0.365351  0.118116  0.322735
    C   C6   0.464648  0.634015  0.883801  0.348946
    N   N1   0.489429  0.494679  0.145988  -0.038439
    N   N2   0.458176  0.504627  0.853909  -0.137693
    C   C7   0.506404  0.625479  0.117338  0.324803
    C   C8   0.451132  0.372962  0.882767  0.341640
    C   C9   0.502584  0.628642  0.058610  -0.051029
    C   C10  0.444328  0.370394  0.941993  -0.050652
    C   C11  0.475192  0.498195  0.029736  -0.063314
    C   C12  0.467867  0.500247  0.971281  -0.060039
    C   C13  0.454856  0.365836  0.059571  -0.015447
    C   C14  0.483203  0.632385  0.941721  0.002249
    C   C15  0.527689  0.761074  0.028538  0.172894
    C   C16  0.416814  0.237910  0.971966  0.158100
    C   C17  0.516429  0.763063  0.970148  0.073933
    C   C18  0.420853  0.235695  0.030816  0.108305
    O   O9   0.446959  0.236361  0.147649  -0.394088
    O   O10  0.445065  0.765885  0.858363  -0.409084
    O   O11  0.529976  0.752880  0.146085  -0.411440
    O   O12  0.458406  0.242883  0.854266  -0.399256
    C   C19  0.384629  0.394863  0.762678  -0.349164
    C   C20  0.388132  0.590597  0.239904  -0.269201
    H   H1   0.303311  0.308868  0.784617  0.196718
    H   H2   0.302662  0.663342  0.219999  0.163279
    C   C21  0.403699  0.393022  0.703292  -0.038281
    C   C22  0.387800  0.589614  0.298734  -0.015345
    H   H3   0.346764  0.302084  0.680739  0.118460
    H   H4   0.302601  0.662039  0.324927  0.098458
    C   C23  0.487340  0.509972  0.672663  -0.247011
    C   C24  0.500028  0.499999  0.324088  -0.163465
    C   C25  0.539397  0.632911  0.702302  0.529029
    C   C26  0.608777  0.407534  0.290665  0.425010
    C   C27  0.544506  0.625507  0.760774  -0.521977
    C   C28  0.601308  0.401729  0.232045  -0.334226
    H   H5   0.613152  0.714722  0.780163  0.240730
    H   H6   0.684138  0.327329  0.205916  0.169606
    C   C29  0.463690  0.507405  0.792244  0.337407
    C   C30  0.492599  0.494898  0.206601  0.167811
    C   C31  0.566905  0.961459  0.492365  0.110048
    C   C32  0.433112  0.052130  0.502897  -0.061367
    N   N3   0.954128  0.469750  0.482584  0.124243
    N   N4   0.044836  0.544465  0.513641  0.080613
    O   O13  0.567048  0.889595  0.056237  -0.101785
    C   C33  0.745642  0.885555  0.058763  -0.082871
    H   H7   0.812238  0.967429  0.027851  0.049851
    H   H8   0.791480  0.771809  0.047665  0.043775
    H   H9   0.775205  0.913244  0.102902  0.079325
    O   O14  0.377026  0.110341  0.943811  -0.112992
    C   C34  0.198460  0.115086  0.941313  -0.035698
    H   H10  0.172242  0.147637  0.897428  0.051684
    H   H11  0.142196  0.198115  0.972653  0.015537
    H   H12  0.138711  0.003503  0.952206  0.066195
    O   O15  0.548227  0.892890  0.939993  -0.111723
    C   C35  0.723916  0.889468  0.919974  -0.068619
    H   H13  0.738618  0.860004  0.873740  0.061802
    H   H14  0.787781  0.804778  0.944496  0.026373
    H   H15  0.785378  0.000671  0.926071  0.064206
    O   O16  0.387774  0.105325  0.060608  -0.141008
    C   C36  0.212083  0.109572  0.080553  -0.114438
    H   H16  0.137848  0.029931  0.055690  0.051701
    H   H17  0.165008  0.224134  0.075223  0.055365
    H   H18  0.193742  0.078989  0.126733  0.101559
    O   O17  0.568068  0.767379  0.675176  -0.409224
    C   C37  0.722156  0.751378  0.640673  0.202812
    H   H19  0.695885  0.759730  0.595170  -0.009224
    H   H20  0.771858  0.639756  0.649408  0.007315
    H   H21  0.813653  0.841492  0.651579  -0.002081
    O   O18  0.718756  0.317472  0.315799  -0.408029
    C   C38  0.622434  0.185836  0.328365  0.131781
    H   H22  0.500829  0.188593  0.307436  0.011694
    H   H23  0.590337  0.175334  0.375511  -0.005994
    H   H24  0.698889  0.089021  0.311835  0.041660
    O   O19  0.730732  0.020766  0.478909  -0.302858
    C   C39  0.787588  0.958029  0.425858  0.207410
    H   H25  0.675112  0.910120  0.405967  -0.039581
    H   H26  0.881144  0.869227  0.431883  -0.028448
    H   H27  0.852121  0.045141  0.396926  -0.003801
    O   O20  0.269867  0.992814  0.517300  -0.212173
    C   C40  0.236855  0.017915  0.576260  -0.024209
    H   H28  0.298423  0.125317  0.587638  0.047794
    H   H29  0.290101  0.926109  0.600261  0.036401
    H   H30  0.095042  0.024126  0.588215  0.055294
    O   O21  0.036400  0.442701  0.430599  -0.115267
    C   C41  0.986415  0.296653  0.418446  -0.198207
    H   H31  0.056120  0.261745  0.376968  0.121773
    H   H32  0.844810  0.291610  0.415399  0.299578
    H   H33  0.018945  0.221120  0.453049  0.069262
    O   O22  0.963722  0.567063  0.566281  -0.136606
    C   C42  0.037315  0.699543  0.585057  0.055022
    H   H34  0.172651  0.707878  0.568101  0.122369
    H   H35  0.038751  0.698441  0.632308  0.035538
    H   H36  0.971776  0.797004  0.569029  0.060405
