# Generated by REPEAT Assigner based on pymatgen
data_DB0-m3_o101_o159_f0_fsc.sym.4
_audit_creation_date              2022-05-24
_audit_creation_method            REPEAT_Assigner
_cell_length_a                    15.605422
_cell_length_b                    6.790775
_cell_length_c                    13.320377
_cell_angle_alpha                 90.000000
_cell_angle_beta                  101.255269
_cell_angle_gamma                 90.000000
_cell_volume                      1384.450250
_symmetry_space_group_name_H-M    P1
_symmetry_Int_Tables_number       1
loop_
    _symmetry_equiv_pos_site_id
    _symmetry_equiv_pos_as_xyz
    1  x,y,z
loop_
    _atom_site_type_symbol
    _atom_site_label
    _atom_site_fract_x
    _atom_site_fract_y
    _atom_site_fract_z
    _atom_type_partial_charge
    C   C1   0.226319  0.801064  0.985915  -0.290501
    C   C2   0.777275  0.801038  0.034344  -0.259764
    C   C3   0.301773  0.899514  0.976704  -0.110725
    C   C4   0.699085  0.898495  0.031522  -0.145431
    C   C5   0.300063  0.104968  0.968296  -0.007466
    C   C6   0.697528  0.103997  0.023831  0.027071
    C   C7   0.221891  0.202542  0.965472  -0.265231
    C   C8   0.772966  0.202574  0.014690  -0.289571
    C   C9   0.147427  0.101987  0.975707  0.198170
    C   C10  0.849294  0.102627  0.013350  0.196158
    C   C11  0.149956  0.901063  0.986993  0.259141
    C   C12  0.851787  0.901679  0.024411  0.257290
    C   C13  0.071336  0.203167  0.978623  -0.406265
    C   C14  0.922477  0.203659  0.998638  -0.379466
    C   C15  0.998257  0.102687  0.994305  0.223130
    C   C16  0.000979  0.901044  0.005942  0.252866
    C   C17  0.076770  0.800063  0.001704  -0.417837
    C   C18  0.927883  0.800539  0.021519  -0.441471
    H   H1   0.228041  0.643293  0.995790  0.138076
    H   H2   0.778934  0.642451  0.038991  0.120592
    H   H3   0.220217  0.361155  0.960569  0.148413
    H   H4   0.771249  0.360346  0.005051  0.164859
    H   H5   0.069313  0.361332  0.970035  0.182655
    H   H6   0.920028  0.361582  0.989002  0.157455
    H   H7   0.929895  0.642373  0.030031  0.195749
    H   H8   0.079224  0.642142  0.011410  0.172630
    O   O1   0.585872  0.301403  0.927213  -0.693343
    O   O2   0.412596  0.294166  0.070073  -0.684117
    O   O3   0.598659  0.292042  0.102403  -0.663608
    O   O4   0.399178  0.303571  0.894696  -0.665431
    C   C19  0.619285  0.226590  0.017180  0.743433
    C   C20  0.378258  0.229540  0.978012  0.754467
    O   O5   0.598736  0.701316  0.104174  -0.692278
    O   O6   0.402028  0.713126  0.899037  -0.700320
    O   O7   0.585670  0.711850  0.929116  -0.748639
    O   O8   0.414349  0.704573  0.074029  -0.724047
    C   C21  0.620868  0.773675  0.021309  1.015701
    C   C22  0.380016  0.776498  0.983792  0.990406
    Zn  Zn1  0.507043  0.494047  0.113395  1.019085
    Zn  Zn2  0.492183  0.504039  0.886815  1.022739
    C   C23  0.475905  0.677581  0.699642  -0.184602
    C   C24  0.524995  0.663269  0.299021  -0.175422
    N   N1   0.486588  0.508348  0.754039  0.127573
    N   N2   0.512779  0.492166  0.246244  0.126145
    C   C25  0.507121  0.339964  0.710734  -0.029001
    C   C26  0.492191  0.326586  0.292299  -0.052891
    C   C27  0.513003  0.335932  0.608934  -0.138185
    C   C28  0.487856  0.328489  0.394984  -0.114542
    C   C29  0.498113  0.503280  0.551558  0.085252
    C   C30  0.502643  0.499296  0.449488  0.078367
    C   C31  0.484360  0.676725  0.597829  0.177603
    C   C32  0.515768  0.668586  0.400025  0.176033
    C   C33  0.511164  0.844052  0.449192  -0.255998
    C   C34  0.486179  0.847995  0.543434  -0.260498
    H   H9   0.522413  0.209234  0.757073  0.116795
    H   H10  0.476127  0.193662  0.247966  0.116663
    H   H11  0.521682  0.975798  0.409721  0.229727
    H   H12  0.471204  0.983571  0.576412  0.228719
    H   H13  0.539674  0.211264  0.576103  0.095619
    H   H14  0.461974  0.206963  0.431223  0.079389
    N   N3   0.542367  0.841180  0.249613  0.621050
    O   O9   0.591215  0.976544  0.300915  -0.440553
    O   O10  0.510275  0.868942  0.153172  -0.226713
    N   N4   0.462683  0.858089  0.749207  0.625584
    O   O11  0.417762  0.999681  0.698389  -0.447078
    O   O12  0.490514  0.876810  0.847202  -0.213613
