# Generated by REPEAT Assigner based on pymatgen
data_DB0-m2_o22_o25_f0_pcu.sym.16
_audit_creation_date              2022-05-24
_audit_creation_method            REPEAT_Assigner
_cell_length_a                    15.913256
_cell_length_b                    10.668983
_cell_length_c                    9.257086
_cell_angle_alpha                 89.933857
_cell_angle_beta                  90.032688
_cell_angle_gamma                 89.997233
_cell_volume                      1571.650549
_symmetry_space_group_name_H-M    P1
_symmetry_Int_Tables_number       1
loop_
    _symmetry_equiv_pos_site_id
    _symmetry_equiv_pos_as_xyz
    1  x,y,z
loop_
    _atom_site_type_symbol
    _atom_site_label
    _atom_site_fract_x
    _atom_site_fract_y
    _atom_site_fract_z
    _atom_type_partial_charge
    O   O1   0.497963  0.315529  0.621210  -0.581431
    O   O2   0.502863  0.316176  0.373380  -0.541541
    C   C1   0.500529  0.257006  0.497192  0.422492
    O   O3   0.378011  0.500635  0.622244  -0.544054
    O   O4   0.378005  0.502616  0.374376  -0.520726
    C   C2   0.338824  0.497764  0.498256  0.722482
    Cu  Cu1  0.500151  0.497621  0.642545  0.921447
    Cu  Cu2  0.500065  0.498339  0.352968  0.793678
    O   O5   0.496538  0.679853  0.622582  -0.622160
    O   O6   0.503182  0.680358  0.374108  -0.606375
    O   O7   0.622219  0.502674  0.621537  -0.614219
    O   O8   0.622215  0.502060  0.372899  -0.597954
    C   C3   0.499426  0.738830  0.498299  0.515588
    C   C4   0.661337  0.498835  0.497250  0.802362
    C   C5   0.972813  0.404535  0.561206  0.351769
    C   C6   0.027264  0.400530  0.428309  -0.268131
    H   H1   0.050830  0.314652  0.374452  0.084948
    H   H2   0.948818  0.505780  0.249172  0.062283
    C   C7   0.248652  0.499050  0.498220  -0.113800
    C   C8   0.751503  0.500907  0.497190  -0.217255
    C   C9   0.027421  0.501439  0.633088  -0.310000
    C   C10  0.080996  0.500617  0.498092  0.713710
    C   C11  0.973194  0.603967  0.565357  -0.114023
    C   C12  0.919143  0.504304  0.495881  0.491337
    C   C13  0.028532  0.603221  0.430912  -0.159357
    C   C14  0.973056  0.503497  0.361488  -0.123683
    C   C15  0.172931  0.499886  0.498192  -0.414694
    C   C16  0.827217  0.502523  0.496773  -0.257232
    H   H3   0.054410  0.687131  0.375870  0.065569
    H   H4   0.949079  0.688827  0.620616  0.066314
    H   H5   0.051112  0.497584  0.745696  0.096069
    C   C17  0.578966  0.068290  0.571825  -0.179070
    H   H6   0.584720  0.109430  0.681330  0.031800
    H   H7   0.635202  0.094034  0.507617  0.048712
    C   C18  0.573655  0.926859  0.584872  -0.024424
    H   H8   0.632639  0.884405  0.544009  0.004840
    H   H9   0.565577  0.901270  0.700177  -0.008232
    H   H10  0.429085  0.093580  0.693523  -0.059570
    H   H11  0.408722  0.886332  0.672397  0.076187
    C   C19  0.423796  0.068951  0.577543  0.527821
    C   C20  0.499664  0.068336  0.342959  -0.155183
    C   C21  0.500581  0.116924  0.497172  0.267540
    H   H12  0.440510  0.095984  0.288234  0.099666
    H   H13  0.553930  0.106207  0.281687  0.038779
    C   C22  0.499414  0.878899  0.497890  0.419256
    C   C23  0.418544  0.927703  0.563770  -0.456934
    C   C24  0.506042  0.926964  0.343847  -0.156146
    H   H14  0.567305  0.898946  0.296722  0.028726
    H   H15  0.454156  0.889024  0.276854  0.046197
    H   H16  0.364734  0.902460  0.493410  0.094064
    C   C25  0.520009  0.623717  0.079971  -0.155911
    H   H17  0.583934  0.653009  0.113753  0.087166
    H   H18  0.473839  0.692808  0.120573  0.049582
    C   C26  0.514297  0.626291  0.915427  0.012624
    H   H19  0.461026  0.687895  0.885024  0.033789
    H   H20  0.573113  0.666792  0.871198  0.057568
    H   H21  0.628797  0.443519  0.119466  0.038819
    H   H22  0.631071  0.469702  0.888027  0.055896
    C   C27  0.566314  0.415361  0.078347  0.004893
    C   C28  0.418571  0.464772  0.079317  0.323668
    N   N1   0.501466  0.498607  0.136246  0.080624
    H   H23  0.374556  0.542248  0.104427  0.008817
    N   N2   0.501243  0.500269  0.859035  -0.107486
    C   C29  0.570406  0.424603  0.915223  -0.002208
    C   C30  0.420233  0.457220  0.915773  0.369217
    H   H24  0.370723  0.523466  0.880572  0.011255
    H   H25  0.556696  0.316790  0.110782  0.003902
    H   H26  0.571393  0.329888  0.866781  0.022865
    O   O9   0.351207  0.123372  0.520974  -0.648224
    H   H27  0.324371  0.164960  0.604631  0.369491
    O   O10  0.940276  0.299055  0.630382  -0.590827
    H   H28  0.990396  0.251219  0.661721  0.352416
    O   O11  0.385108  0.356374  0.143371  -0.546270
    H   H29  0.425203  0.287010  0.130833  0.275598
    O   O12  0.397892  0.338537  0.863179  -0.598389
    H   H30  0.439960  0.277354  0.897209  0.343686
