# Generated by REPEAT Assigner based on pymatgen
data_DB0-m2_o24_o25_f0_pcu.sym.15
_audit_creation_date              2022-05-24
_audit_creation_method            REPEAT_Assigner
_cell_length_a                    15.899670
_cell_length_b                    10.684654
_cell_length_c                    9.348386
_cell_angle_alpha                 90.003090
_cell_angle_beta                  90.019720
_cell_angle_gamma                 89.994213
_cell_volume                      1588.126926
_symmetry_space_group_name_H-M    P1
_symmetry_Int_Tables_number       1
loop_
    _symmetry_equiv_pos_site_id
    _symmetry_equiv_pos_as_xyz
    1  x,y,z
loop_
    _atom_site_type_symbol
    _atom_site_label
    _atom_site_fract_x
    _atom_site_fract_y
    _atom_site_fract_z
    _atom_type_partial_charge
    O   O1   0.504302  0.319132  0.624388  -0.643443
    O   O2   0.495696  0.680873  0.375613  -0.643421
    O   O3   0.497126  0.317132  0.378347  -0.659183
    O   O4   0.502873  0.682873  0.621654  -0.659152
    C   C1   0.501027  0.259869  0.501895  0.665576
    C   C2   0.498971  0.740136  0.498106  0.665530
    O   O5   0.378394  0.504361  0.624252  -0.654319
    O   O6   0.621604  0.495644  0.375749  -0.654348
    O   O7   0.377169  0.493604  0.378233  -0.591532
    O   O8   0.622829  0.506401  0.621768  -0.591501
    C   C3   0.338612  0.498755  0.501752  0.820528
    C   C4   0.661386  0.501250  0.498249  0.820596
    Cu  Cu1  0.500716  0.501117  0.643149  0.908033
    Cu  Cu2  0.499282  0.498887  0.356852  0.907773
    C   C5   0.971975  0.399135  0.566304  -0.147827
    C   C6   0.028023  0.600870  0.433697  -0.147747
    C   C7   0.027463  0.398733  0.433764  -0.161172
    C   C8   0.972535  0.601272  0.566237  -0.161268
    H   H1   0.052548  0.314636  0.378863  0.068848
    H   H2   0.947451  0.685369  0.621138  0.068871
    H   H3   0.946418  0.315402  0.621276  0.053715
    H   H4   0.053581  0.684602  0.378725  0.053702
    H   H5   0.948853  0.500252  0.255025  0.063886
    H   H6   0.051145  0.499753  0.744976  0.063865
    C   C9   0.248361  0.498753  0.502619  -0.167793
    C   C10  0.751637  0.501252  0.497382  -0.167877
    C   C11  0.026707  0.499880  0.633851  -0.154469
    C   C12  0.973291  0.500124  0.366150  -0.154560
    C   C13  0.080562  0.499486  0.501296  0.661862
    C   C14  0.919437  0.500519  0.498706  0.662005
    C   C15  0.172573  0.498990  0.502396  -0.368875
    C   C16  0.827425  0.501015  0.497605  -0.368891
    C   C17  0.503936  0.039167  0.635769  -0.214262
    C   C18  0.496063  0.960838  0.364232  -0.214315
    C   C19  0.567120  0.958138  0.558330  0.410531
    C   C20  0.432878  0.041867  0.441671  0.410592
    H   H7   0.509834  0.072873  0.747535  0.118788
    H   H8   0.490164  0.927132  0.252466  0.118797
    C   C21  0.497989  0.879234  0.497279  0.045351
    C   C22  0.502009  0.120771  0.502722  0.045300
    C   C23  0.432953  0.959476  0.573178  -0.106897
    C   C24  0.567046  0.040529  0.426823  -0.106867
    H   H9   0.377520  0.923133  0.631946  0.062982
    H   H10  0.622478  0.076872  0.368055  0.062985
    C   C25  0.549605  0.576236  0.051372  0.420038
    C   C26  0.450393  0.423769  0.948629  0.420493
    C   C27  0.479708  0.607852  0.950839  -0.051511
    C   C28  0.520290  0.392153  0.049162  -0.051927
    H   H11  0.461729  0.700288  0.906434  0.069070
    H   H12  0.538269  0.299717  0.093567  0.069122
    N   N1   0.501689  0.502648  0.857125  0.106614
    N   N2   0.498310  0.497357  0.142876  0.107056
    C   C29  0.572926  0.473163  0.951169  -0.211647
    C   C30  0.427073  0.526842  0.048832  -0.212133
    H   H13  0.636422  0.453059  0.907868  0.093998
    H   H14  0.363576  0.546946  0.092133  0.094078
    O   O9   0.637886  0.903563  0.621863  -0.380148
    C   C31  0.698621  0.997687  0.632714  0.045082
    H   H15  0.669362  0.088335  0.661736  -0.010689
    H   H16  0.733314  0.006168  0.530289  0.035104
    H   H17  0.743941  0.972259  0.718107  0.062721
    O   O10  0.362112  0.096442  0.378138  -0.380165
    C   C32  0.301377  0.002318  0.367287  0.045101
    H   H18  0.266684  0.993837  0.469712  0.035098
    H   H19  0.330636  0.911670  0.338265  -0.010701
    H   H20  0.256057  0.027746  0.281895  0.062722
    O   O11  0.606532  0.659548  0.114596  -0.311865
    C   C33  0.628328  0.747320  0.010042  -0.050168
    H   H21  0.578591  0.819691  0.001373  0.028295
    H   H22  0.638988  0.701345  0.905329  0.050820
    H   H23  0.687739  0.793888  0.042158  0.094061
    O   O12  0.393466  0.340457  0.885405  -0.311915
    C   C34  0.371670  0.252685  0.989959  -0.050175
    H   H24  0.361011  0.298660  0.094672  0.050821
    H   H25  0.421408  0.180314  0.998628  0.028290
    H   H26  0.312259  0.206117  0.957843  0.094064
