data_DB0-m3_o12_o29_f0_pcu.sym.24_repeat
_audit_creation_date              2024-02-20
_audit_creation_method            'Materials Studio'
_symmetry_space_group_name_H-M    'P1'
_symmetry_Int_Tables_number       1
_symmetry_cell_setting            triclinic
loop_
_symmetry_equiv_pos_as_xyz
  x,y,z
_cell_length_a                    10.0044
_cell_length_b                    11.2486
_cell_length_c                    27.6491
_cell_angle_alpha                 89.9797
_cell_angle_beta                  80.7809
_cell_angle_gamma                 92.4463
loop_
_atom_site_label
_atom_site_type_symbol
_atom_site_fract_x
_atom_site_fract_y
_atom_site_fract_z
_atom_site_U_iso_or_equiv
_atom_site_adp_type
_atom_site_occupancy
O1     O     0.43332   0.68418   0.50427   0.00000  Uiso   1.00
O2     O     0.58262   0.30277   0.49481   0.00000  Uiso   1.00
O3     O     0.66283   0.65301   0.49035   0.00000  Uiso   1.00
O4     O     0.35313   0.33394   0.50878   0.00000  Uiso   1.00
C1     C     0.56033   0.72345   0.49661   0.00000  Uiso   1.00
C2     C     0.45561   0.26350   0.50249   0.00000  Uiso   1.00
O5     O     0.39559   0.50854   0.57844   0.00000  Uiso   1.00
O6     O     0.62040   0.47852   0.42064   0.00000  Uiso   1.00
O7     O     0.62490   0.47723   0.56455   0.00000  Uiso   1.00
O8     O     0.39104   0.50967   0.43458   0.00000  Uiso   1.00
C3     C     0.51060   0.49275   0.59413   0.00000  Uiso   1.00
C4     C     0.50526   0.49427   0.40498   0.00000  Uiso   1.00
Zn1    Zn    0.35673   0.51418   0.50878   0.00000  Uiso   1.00
Zn2    Zn    0.65921   0.47277   0.49033   0.00000  Uiso   1.00
C5     C     0.58691   0.57393   0.81906   0.00000  Uiso   1.00
C6     C     0.43240   0.41497   0.18000   0.00000  Uiso   1.00
O9     O     0.66609   0.65318   0.78991   0.00000  Uiso   1.00
O10    O     0.36823   0.32626   0.20835   0.00000  Uiso   1.00
N1     N     0.50767   0.49419   0.79933   0.00000  Uiso   1.00
N2     N     0.50103   0.50171   0.20031   0.00000  Uiso   1.00
C7     C     0.42501   0.41580   0.82795   0.00000  Uiso   1.00
C8     C     0.56824   0.59067   0.17267   0.00000  Uiso   1.00
C9     C     0.39184   0.51182   0.72896   0.00000  Uiso   1.00
C10    C     0.38364   0.51093   0.28424   0.00000  Uiso   1.00
C11    C     0.39237   0.51152   0.67911   0.00000  Uiso   1.00
C12    C     0.38442   0.50929   0.33405   0.00000  Uiso   1.00
C13    C     0.62860   0.47420   0.66584   0.00000  Uiso   1.00
C14    C     0.62311   0.48288   0.31942   0.00000  Uiso   1.00
C15    C     0.62777   0.47453   0.71581   0.00000  Uiso   1.00
C16    C     0.62207   0.48499   0.26961   0.00000  Uiso   1.00
C17    C     0.50934   0.49336   0.74759   0.00000  Uiso   1.00
C18    C     0.50241   0.49926   0.25183   0.00000  Uiso   1.00
C19    C     0.50003   0.49827   0.89939   0.00000  Uiso   1.00
C20    C     0.49821   0.50506   0.10086   0.00000  Uiso   1.00
C21    C     0.58575   0.57559   0.86906   0.00000  Uiso   1.00
C22    C     0.43157   0.41470   0.13013   0.00000  Uiso   1.00
C23    C     0.67088   0.65433   0.88873   0.00000  Uiso   1.00
C24    C     0.36603   0.32281   0.10941   0.00000  Uiso   1.00
C25    C     0.41504   0.41976   0.87886   0.00000  Uiso   1.00
C26    C     0.56403   0.59656   0.12246   0.00000  Uiso   1.00
C27    C     0.51077   0.49274   0.64720   0.00000  Uiso   1.00
C28    C     0.50426   0.49534   0.35197   0.00000  Uiso   1.00
H1     H     0.72244   0.45896   0.64176   0.00000  Uiso   1.00
H2     H     0.71816   0.47162   0.33237   0.00000  Uiso   1.00
H3     H     0.72021   0.45877   0.72994   0.00000  Uiso   1.00
H4     H     0.71544   0.47457   0.24453   0.00000  Uiso   1.00
H5     H     0.74144   0.71387   0.86571   0.00000  Uiso   1.00
H6     H     0.31604   0.24933   0.13131   0.00000  Uiso   1.00
C29    C     0.57173   0.59058   0.02087   0.00000  Uiso   1.00
C30    C     0.41894   0.41793   0.97978   0.00000  Uiso   1.00
C31    C     0.42621   0.41406   0.02989   0.00000  Uiso   1.00
C32    C     0.58032   0.58373   0.96991   0.00000  Uiso   1.00
C33    C     0.49866   0.50330   0.05046   0.00000  Uiso   1.00
C34    C     0.49973   0.49998   0.94978   0.00000  Uiso   1.00
C35    C     0.63089   0.68542   0.04311   0.00000  Uiso   1.00
C36    C     0.32870   0.34405   0.95920   0.00000  Uiso   1.00
C37    C     0.62519   0.69050   0.09312   0.00000  Uiso   1.00
C38    C     0.32397   0.34603   0.90974   0.00000  Uiso   1.00
O11    O     0.64080   0.67180   0.19438   0.00000  Uiso   1.00
O12    O     0.35876   0.32996   0.80626   0.00000  Uiso   1.00
C39    C     0.66879   0.65833   0.93840   0.00000  Uiso   1.00
C40    C     0.36347   0.32204   0.06000   0.00000  Uiso   1.00
H7     H     0.29005   0.51922   0.35857   0.00000  Uiso   1.00
H8     H     0.29885   0.52663   0.66567   0.00000  Uiso   1.00
H9     H     0.28953   0.52275   0.27066   0.00000  Uiso   1.00
H10    H     0.29881   0.52791   0.75342   0.00000  Uiso   1.00
H11    H     0.67390   0.76326   0.02287   0.00000  Uiso   1.00
H12    H     0.25131   0.28961   0.98130   0.00000  Uiso   1.00
H13    H     0.74262   0.71872   0.95057   0.00000  Uiso   1.00
H14    H     0.31520   0.24446   0.04646   0.00000  Uiso   1.00
H15    H     0.63013   0.08854   0.49225   0.00000  Uiso   1.00
H16    H     0.38582   0.89841   0.50683   0.00000  Uiso   1.00
C41    C     0.59019   0.85224   0.49482   0.00000  Uiso   1.00
C42    C     0.42575   0.13471   0.50428   0.00000  Uiso   1.00
C43    C     0.49127   0.92931   0.50059   0.00000  Uiso   1.00
C44    C     0.52467   0.05765   0.49850   0.00000  Uiso   1.00
H17    H     0.32086   0.10207   0.51054   0.00000  Uiso   1.00
H18    H     0.69509   0.88488   0.48858   0.00000  Uiso   1.00
H19    H     0.12484   0.42171   0.46848   0.00000  Uiso   1.00
H20    H     0.89111   0.56523   0.53063   0.00000  Uiso   1.00
N3     N     0.85788   0.44489   0.47791   0.00000  Uiso   1.00
N4     N     0.15807   0.54206   0.52119   0.00000  Uiso   1.00
C45    C     0.93477   0.50267   0.50338   0.00000  Uiso   1.00
C46    C     0.08117   0.48427   0.49572   0.00000  Uiso   1.00
H21    H     0.11069   0.60020   0.54638   0.00000  Uiso   1.00
H22    H     0.90525   0.38674   0.45273   0.00000  Uiso   1.00
N5     N     0.67545   0.79721   0.11316   0.00000  Uiso   1.00
O13    O     0.78815   0.84824   0.09135   0.00000  Uiso   1.00
O14    O     0.59245   0.85956   0.14300   0.00000  Uiso   1.00
N6     N     0.21762   0.27767   0.89262   0.00000  Uiso   1.00
O15    O     0.18451   0.17181   0.91074   0.00000  Uiso   1.00
O16    O     0.13164   0.33172   0.87058   0.00000  Uiso   1.00
