# Generated by REPEAT Assigner based on pymatgen
data_DB0-m9_o7_o27_f0_sra.sym.14_sqe
_audit_creation_date              2022-05-24
_audit_creation_method            REPEAT_Assigner
_cell_length_a                    28.453000
_cell_length_b                    6.818000
_cell_length_c                    23.905803
_cell_angle_alpha                 90.000000
_cell_angle_beta                  94.966997
_cell_angle_gamma                 90.000000
_cell_volume                      4620.132484
_symmetry_space_group_name_H-M    P1
_symmetry_Int_Tables_number       1
loop_
    _symmetry_equiv_pos_site_id
    _symmetry_equiv_pos_as_xyz
    1  x,y,z
loop_
    _atom_site_type_symbol
    _atom_site_label
    _atom_site_fract_x
    _atom_site_fract_y
    _atom_site_fract_z
    _atom_type_partial_charge
    O  O1   0.696869  0.373613  0.202359  -0.498305
    O  O2   0.303131  0.626387  0.797641  -0.498313
    O  O3   0.803130  0.873613  0.297641  -0.498284
    O  O4   0.196869  0.126387  0.702359  -0.498352
    O  O5   0.795441  0.721152  0.190574  -0.510070
    O  O6   0.204559  0.278847  0.809426  -0.510121
    O  O7   0.704559  0.221153  0.309426  -0.510083
    O  O8   0.295441  0.778847  0.690574  -0.510088
    C  C1   0.813884  0.542323  0.184677  0.539798
    C  C2   0.186117  0.457677  0.815323  0.539736
    C  C3   0.686116  0.042324  0.315323  0.539693
    C  C4   0.313884  0.957677  0.684677  0.539809
    O  O9   0.699406  0.721262  0.186510  -0.447004
    O  O10  0.300594  0.278737  0.813489  -0.447016
    O  O11  0.800594  0.221263  0.313490  -0.446977
    O  O12  0.199406  0.778738  0.686510  -0.447030
    O  O13  0.700573  0.873650  0.293269  -0.502237
    O  O14  0.299427  0.126350  0.706731  -0.502355
    O  O15  0.799427  0.373651  0.206731  -0.502332
    O  O16  0.200573  0.626350  0.793269  -0.502234
    C  C5   0.680531  0.542296  0.179032  0.567331
    C  C6   0.319469  0.457703  0.820968  0.567281
    C  C7   0.819469  0.042297  0.320968  0.567278
    C  C8   0.180531  0.957703  0.679031  0.567351
    O  O17  0.751622  0.554950  0.283209  -0.482291
    O  O18  0.248378  0.445050  0.716792  -0.482314
    O  O19  0.748378  0.054950  0.216792  -0.482273
    O  O20  0.251622  0.945050  0.783208  -0.482359
    V  V1   0.749584  0.824353  0.241162  1.314063
    V  V2   0.250416  0.175648  0.758838  1.314282
    V  V3   0.750416  0.324352  0.258838  1.314096
    V  V4   0.249584  0.675647  0.741161  1.314209
    C  C9   0.081015  0.812115  0.571461  0.274823
    C  C10  0.918985  0.187886  0.428539  0.274759
    C  C11  0.418984  0.312114  0.928539  0.274823
    C  C12  0.581015  0.687885  0.071461  0.274820
    C  C13  0.120338  0.803007  0.610412  0.126899
    C  C14  0.879662  0.196993  0.389588  0.126915
    C  C15  0.379662  0.303007  0.889588  0.126850
    C  C16  0.620338  0.696993  0.110412  0.126908
    C  C17  0.138694  0.970824  0.636836  -0.022092
    C  C18  0.861306  0.029176  0.363164  -0.022083
    C  C19  0.361306  0.470824  0.863164  -0.022022
    C  C20  0.638694  0.529177  0.136836  -0.022079
    C  C21  0.116662  0.148099  0.623331  -0.545354
    C  C22  0.883338  0.851900  0.376669  -0.545362
    C  C23  0.383338  0.648100  0.876669  -0.545419
    C  C24  0.616662  0.351901  0.123331  -0.545376
    H  H1   0.130125  0.281094  0.643444  0.272786
    H  H2   0.869875  0.718907  0.356556  0.272804
    H  H3   0.369875  0.781093  0.856556  0.272817
    H  H4   0.630125  0.218906  0.143444  0.272790
    C  C25  0.077284  0.157233  0.584324  0.425828
    C  C26  0.922716  0.842767  0.415676  0.425777
    C  C27  0.422716  0.657233  0.915676  0.425824
    C  C28  0.577284  0.342768  0.084324  0.425846
    C  C29  0.059011  0.989137  0.557918  -0.151197
    C  C30  0.940988  0.010863  0.442082  -0.151053
    C  C31  0.440988  0.489137  0.942082  -0.151101
    C  C32  0.559011  0.510863  0.057918  -0.151204
    C  C33  0.017363  0.997132  0.517049  -0.086032
    C  C34  0.982637  0.002868  0.482951  -0.086202
    C  C35  0.482637  0.497132  0.982951  -0.086200
    C  C36  0.517364  0.502868  0.017049  -0.086031
    C  C37  0.373412  0.147374  0.633716  -0.323937
    C  C38  0.626588  0.852626  0.366284  -0.324205
    C  C39  0.126588  0.647374  0.866284  -0.324208
    C  C40  0.873412  0.352626  0.133716  -0.323946
    H  H5   0.361685  0.281069  0.652449  0.127191
    H  H6   0.638315  0.718931  0.347551  0.127173
    H  H7   0.138315  0.781069  0.847551  0.127167
    H  H8   0.861685  0.218931  0.152449  0.127184
    C  C41  0.409593  0.155312  0.597786  0.227858
    C  C42  0.590407  0.844688  0.402213  0.228173
    C  C43  0.090407  0.655312  0.902213  0.228181
    C  C44  0.909593  0.344689  0.097787  0.227882
    H  H9   0.425330  0.295201  0.589176  0.032076
    H  H10  0.574670  0.704799  0.410824  0.032008
    H  H11  0.074670  0.795201  0.910824  0.032003
    H  H12  0.925330  0.204799  0.089176  0.032058
    C  C45  0.425785  0.986750  0.573033  -0.686640
    C  C46  0.574215  0.013250  0.426967  -0.686875
    C  C47  0.074215  0.486750  0.926967  -0.686855
    C  C48  0.925785  0.513250  0.073033  -0.686638
    C  C49  0.404691  0.810113  0.585089  0.737676
    C  C50  0.595309  0.189888  0.414911  0.737829
    C  C51  0.095309  0.310112  0.914911  0.737793
    C  C52  0.904691  0.689887  0.085089  0.737662
    C  C53  0.368558  0.802419  0.620926  -0.532165
    C  C54  0.631441  0.197580  0.379074  -0.532355
    C  C55  0.131442  0.302420  0.879074  -0.532337
    C  C56  0.868558  0.697581  0.120926  -0.532184
    H  H13  0.352922  0.662412  0.629642  0.207420
    H  H14  0.647078  0.337588  0.370358  0.207479
    H  H15  0.147078  0.162412  0.870358  0.207492
    H  H16  0.852922  0.837588  0.129642  0.207429
    C  C57  0.352374  0.970465  0.645801  0.209380
    C  C58  0.647626  0.029535  0.354199  0.209644
    C  C59  0.147626  0.470465  0.854199  0.209605
    C  C60  0.852374  0.529535  0.145801  0.209410
    N  N1   0.480180  0.828176  0.511284  -0.281105
    N  N2   0.519820  0.171824  0.488716  -0.281112
    N  N3   0.019820  0.328176  0.988716  -0.281103
    N  N4   0.980180  0.671824  0.011284  -0.281107
    N  N5   0.514773  0.834012  0.477256  -0.334653
    N  N6   0.485227  0.165988  0.522744  -0.334631
    N  N7   0.985227  0.334012  0.022744  -0.334632
    N  N8   0.014773  0.665988  0.977256  -0.334648
    C  C61  0.535263  0.005998  0.465326  0.861135
    C  C62  0.464737  0.994001  0.534674  0.861064
    C  C63  0.964737  0.505999  0.034674  0.861067
    C  C64  0.035263  0.494002  0.965326  0.861120
    O  O21  0.063609  0.643904  0.546528  -0.386757
    H  H17  0.034006  0.618927  0.564263  0.286439
    O  O22  0.936391  0.356096  0.453472  -0.386717
    H  H18  0.965994  0.381073  0.435736  0.286421
    O  O23  0.436391  0.143904  0.953472  -0.386741
    H  H19  0.465994  0.118927  0.935737  0.286427
    O  O24  0.563610  0.856096  0.046528  -0.386741
    H  H20  0.534006  0.881073  0.064263  0.286430
    O  O25  0.141009  0.625774  0.622985  -0.304453
    H  H21  0.125244  0.577829  0.655691  0.208138
    O  O26  0.858991  0.374226  0.377015  -0.304449
    H  H22  0.874755  0.422171  0.344309  0.208129
    O  O27  0.358991  0.125775  0.877015  -0.304446
    H  H23  0.374755  0.077829  0.844309  0.208145
    O  O28  0.641009  0.874226  0.122985  -0.304449
    H  H24  0.625244  0.922171  0.155691  0.208133
    O  O29  0.056250  0.333949  0.572188  -0.381269
    H  H25  0.031589  0.344533  0.598817  0.282788
    O  O30  0.943749  0.666051  0.427812  -0.381247
    H  H26  0.968411  0.655467  0.401183  0.282785
    O  O31  0.443750  0.833949  0.927812  -0.381265
    H  H27  0.468411  0.844534  0.901183  0.282790
    O  O32  0.556251  0.166051  0.072188  -0.381269
    H  H28  0.531589  0.155467  0.098817  0.282788
    O  O33  0.419561  0.641017  0.561555  -0.548992
    H  H29  0.399302  0.628257  0.525932  0.323042
    O  O34  0.580438  0.358983  0.438444  -0.548971
    H  H30  0.600698  0.371743  0.474068  0.323019
    O  O35  0.080438  0.141017  0.938445  -0.548975
    H  H31  0.100698  0.128258  0.974068  0.323025
    O  O36  0.919562  0.858983  0.061555  -0.548967
    H  H32  0.899302  0.871743  0.025932  0.323033
