# Generated by REPEAT Assigner based on pymatgen
data_DB0-m3_o23_o25_f0_nbo.sym.151
_audit_creation_date              2022-05-24
_audit_creation_method            REPEAT_Assigner
_cell_length_a                    27.614217
_cell_length_b                    27.596979
_cell_length_c                    27.655973
_cell_angle_alpha                 109.356647
_cell_angle_beta                  109.515513
_cell_angle_gamma                 109.425702
_cell_volume                      16247.247410
_symmetry_space_group_name_H-M    P1
_symmetry_Int_Tables_number       1
loop_
    _symmetry_equiv_pos_site_id
    _symmetry_equiv_pos_as_xyz
    1  x,y,z
loop_
    _atom_site_type_symbol
    _atom_site_label
    _atom_site_fract_x
    _atom_site_fract_y
    _atom_site_fract_z
    _atom_type_partial_charge
    O   O1    0.931259  0.960026  0.533574  -0.655257
    O   O2    0.934694  0.888704  0.463685  -0.695612
    C   C1    0.914200  0.904698  0.499066  0.700503
    O   O3    0.927608  0.020182  0.470404  -0.673396
    O   O4    0.930946  0.950507  0.398799  -0.682287
    C   C2    0.909218  0.984569  0.415043  0.704191
    Zn  Zn1   0.992794  0.033603  0.543630  1.304086
    Zn  Zn2   0.994320  0.939559  0.449344  1.317664
    O   O5    0.052445  0.084449  0.529319  -0.687922
    O   O6    0.055887  0.013149  0.459424  -0.678935
    O   O7    0.056188  0.022677  0.594163  -0.692991
    O   O8    0.059540  0.952989  0.522551  -0.671951
    C   C3    0.073048  0.068505  0.494054  0.732492
    C   C4    0.077862  0.988558  0.577907  0.716146
    C   C5    0.689914  0.961853  0.245020  -0.174866
    C   C6    0.725221  0.931997  0.232020  -0.278461
    H   H1    0.712821  0.885357  0.219725  0.095785
    H   H2    0.645667  0.939954  0.240447  0.069594
    C   C7    0.863410  0.983431  0.369905  0.113389
    C   C8    0.623026  0.997586  0.129890  0.122926
    C   C9    0.745726  0.014744  0.301227  -0.181627
    C   C10   0.780359  0.985140  0.287645  0.890930
    C   C11   0.758684  0.045824  0.266906  -0.289743
    C   C12   0.703514  0.992771  0.211408  0.918134
    C   C13   0.793332  0.015652  0.253826  -0.082975
    C   C14   0.738154  0.963408  0.198247  -0.105664
    C   C15   0.825440  0.983448  0.332431  -0.631271
    C   C16   0.659444  0.995806  0.167079  -0.649382
    H   H3    0.770254  0.092432  0.279997  0.096876
    H   H4    0.749763  0.035592  0.345273  0.071684
    C   C17   0.745758  0.801100  0.512554  -0.092238
    C   C18   0.810898  0.762746  0.545925  -0.270876
    C   C19   0.760650  0.712020  0.539885  -0.407753
    H   H5    0.690840  0.769051  0.547484  0.058036
    H   H6    0.772775  0.835494  0.559856  0.024785
    H   H7    0.842166  0.748319  0.539019  0.074019
    H   H8    0.836181  0.802595  0.590276  0.036233
    H   H9    0.764857  0.672536  0.520529  0.106695
    C   C20   0.615668  0.617121  0.495291  0.157093
    C   C21   0.784407  0.776762  0.498320  0.843056
    C   C22   0.693384  0.752900  0.506594  -0.293381
    C   C23   0.700671  0.698542  0.494688  1.021187
    C   C24   0.696415  0.674808  0.434744  -0.200271
    C   C25   0.749433  0.720005  0.438590  -0.064243
    C   C26   0.653373  0.653731  0.494140  -0.660732
    C   C27   0.831768  0.821707  0.499036  -0.576124
    C   C28   0.869829  0.859301  0.499179  0.073490
    H   H10   0.735155  0.729058  0.401730  0.005559
    H   H11   0.778545  0.701259  0.434162  -0.008021
    H   H12   0.654718  0.666819  0.400802  0.011474
    H   H13   0.650930  0.740650  0.470223  0.034103
    H   H14   0.696514  0.632293  0.421772  0.037813
    C   C29   0.249536  0.056979  0.759941  -0.163169
    C   C30   0.248278  0.976969  0.683845  -0.135948
    C   C31   0.299863  0.983576  0.733258  -0.159134
    H   H15   0.340364  0.093194  0.824619  0.033710
    H   H16   0.271808  0.087625  0.746864  0.029412
    H   H17   0.220858  0.930239  0.647493  0.021007
    H   H18   0.265276  0.005809  0.666691  0.033434
    H   H19   0.341913  0.019684  0.744159  0.031464
    H   H20   0.300955  0.941556  0.718837  0.042399
    C   C32   0.377400  0.001065  0.872074  0.055220
    C   C33   0.210971  0.994616  0.707430  0.767808
    C   C34   0.295699  0.057986  0.809525  -0.141179
    C   C35   0.292493  0.998292  0.787295  0.758763
    C   C36   0.232995  0.951102  0.771116  -0.158045
    C   C37   0.184065  0.952116  0.726428  -0.153633
    C   C38   0.339448  0.000175  0.833703  -0.559467
    C   C39   0.163579  0.992422  0.661177  -0.554395
    C   C40   0.124417  0.990606  0.623138  0.044155
    H   H21   0.159410  0.966837  0.746667  0.026842
    H   H22   0.153143  0.906968  0.687493  0.037762
    H   H23   0.228780  0.959736  0.811211  0.040505
    H   H24   0.221861  0.071422  0.775268  0.039596
    H   H25   0.287081  0.067314  0.847067  0.024047
    H   H26   0.229333  0.906966  0.751825  0.030236
    C   C41   0.204783  0.256889  0.525141  -0.105242
    C   C42   0.190336  0.182756  0.434969  -0.083043
    C   C43   0.242361  0.227485  0.437612  -0.137200
    H   H27   0.228200  0.315000  0.491230  0.034899
    H   H28   0.160937  0.251704  0.499776  0.024092
    H   H29   0.183557  0.137779  0.411266  0.027261
    H   H30   0.149704  0.183483  0.410760  0.012427
    H   H31   0.225818  0.245475  0.409500  0.033303
    H   H32   0.262380  0.203952  0.418437  0.009490
    C   C44   0.366317  0.365216  0.501283  0.104376
    C   C45   0.203170  0.198684  0.497304  0.698977
    C   C46   0.251048  0.303125  0.522860  -0.151578
    C   C47   0.286229  0.278313  0.501358  0.769870
    C   C48   0.314511  0.256456  0.542312  -0.301788
    C   C49   0.261949  0.202756  0.531064  -0.084372
    C   C50   0.330091  0.326201  0.501466  -0.582914
    C   C51   0.156161  0.152442  0.495663  -0.529736
    C   C52   0.117911  0.114141  0.494624  0.027949
    H   H33   0.266235  0.199139  0.570663  0.045734
    H   H34   0.259783  0.162288  0.501831  0.010814
    H   H35   0.214264  0.270676  0.571100  0.004408
    H   H36   0.280212  0.344042  0.566659  0.038834
    O   O9    0.464868  0.028528  0.062912  -0.688646
    O   O10   0.537146  0.100063  0.061811  -0.687712
    C   C53   0.500803  0.084021  0.081362  0.723440
    O   O11   0.523371  0.962079  0.063983  -0.672307
    O   O12   0.597314  0.035323  0.066267  -0.688505
    C   C54   0.579294  0.998669  0.084957  0.704939
    Zn  Zn3   0.451767  0.953256  0.000993  1.314682
    Zn  Zn4   0.549205  0.046720  0.001847  1.317608
    O   O13   0.463823  0.899937  0.941011  -0.677582
    O   O14   0.536104  0.971459  0.939898  -0.697478
    O   O15   0.403650  0.964649  0.936565  -0.684887
    O   O16   0.477550  0.037898  0.938801  -0.669438
    C   C55   0.500142  0.915965  0.921424  0.743248
    C   C56   0.421591  0.001237  0.917828  0.699954
    O   O17   0.530901  0.556421  0.599218  -0.644727
    O   O18   0.455066  0.553776  0.527678  -0.686361
    C   C57   0.493222  0.574608  0.583110  0.658467
    O   O19   0.590067  0.555742  0.535163  -0.587579
    O   O20   0.515810  0.553039  0.461812  -0.647867
    C   C58   0.571864  0.573549  0.497708  0.582316
    Zn  Zn5   0.539511  0.492612  0.546286  1.293147
    Zn  Zn6   0.442484  0.492054  0.452656  1.314465
    O   O21   0.527036  0.430973  0.471335  -0.692092
    O   O22   0.451158  0.428274  0.399714  -0.641989
    O   O23   0.466133  0.431498  0.536952  -0.645953
    O   O24   0.391885  0.428816  0.463625  -0.678539
    C   C59   0.488856  0.410064  0.415956  0.647367
    C   C60   0.410054  0.410906  0.500936  0.666614
    C   C61   0.439558  0.186528  0.204775  -0.054675
    C   C62   0.508556  0.265053  0.197716  -0.098780
    C   C63   0.503907  0.312223  0.242444  -0.563240
    H   H37   0.400194  0.236879  0.235592  0.020431
    H   H38   0.404051  0.173103  0.161298  -0.006555
    H   H39   0.554015  0.284900  0.204617  0.024718
    H   H40   0.480082  0.249964  0.150865  0.040103
    C   C64   0.490316  0.366908  0.370821  0.151993
    C   C65   0.499072  0.212642  0.208075  0.765241
    C   C66   0.439552  0.232119  0.253772  -0.179613
    C   C67   0.497020  0.290906  0.286880  1.136892
    C   C68   0.546696  0.279316  0.315892  -0.292969
    C   C69   0.550049  0.235341  0.268566  -0.012183
    C   C70   0.492896  0.332092  0.332942  -0.705249
    C   C71   0.499811  0.167325  0.162455  -0.593348
    C   C72   0.500305  0.129492  0.125293  0.078882
    H   H41   0.591552  0.261131  0.270176  0.004113
    H   H42   0.538438  0.263275  0.345597  0.030561
    H   H43   0.429607  0.145885  0.208062  -0.000873
    H   H44   0.435868  0.216304  0.285018  0.019424
    H   H45   0.590605  0.319676  0.343935  0.033602
    C   C73   0.514108  0.746135  0.818592  -0.077104
    C   C74   0.540309  0.810355  0.774752  -0.173500
    C   C75   0.535089  0.760462  0.724999  -0.094834
    H   H46   0.551480  0.773594  0.864494  0.031090
    H   H47   0.527915  0.838395  0.758282  0.038327
    H   H48   0.586343  0.838684  0.812082  0.011647
    H   H49   0.579620  0.767134  0.733624  0.025043
    H   H50   0.514514  0.761486  0.683649  0.012607
    C   C76   0.493397  0.619003  0.628756  0.132620
    C   C77   0.498366  0.784187  0.794421  0.793043
    C   C78   0.521367  0.700412  0.775849  -0.583886
    C   C79   0.495792  0.700816  0.716489  0.897899
    C   C80   0.433846  0.693665  0.696966  -0.051999
    C   C81   0.436575  0.745891  0.741421  -0.161559
    C   C82   0.494249  0.655896  0.668139  -0.656280
    C   C83   0.499770  0.831693  0.839920  -0.538875
    C   C84   0.500239  0.870345  0.877209  0.022913
    H   H51   0.403852  0.729750  0.755085  0.039575
    H   H52   0.425634  0.771976  0.720982  0.017347
    H   H53   0.401969  0.652994  0.692065  -0.011663
    H   H54   0.475729  0.721451  0.822096  0.013293
    H   H55   0.416377  0.691552  0.653490  0.010047
    C   C85   0.764283  0.719630  0.597698  0.429754
    C   C86   0.758897  0.673376  0.609009  -0.349877
    C   C87   0.759054  0.677097  0.659994  0.115206
    Cl  Cl1   0.750325  0.617384  0.672519  -0.109212
    C   C88   0.765419  0.727354  0.700721  -0.120247
    C   C89   0.772016  0.774086  0.690537  -0.100482
    C   C90   0.771515  0.770412  0.639405  -0.300675
    H   H56   0.752891  0.633038  0.577314  0.182572
    H   H57   0.765358  0.730163  0.740631  0.115681
    H   H58   0.777360  0.813728  0.722637  0.113466
    H   H59   0.776968  0.807903  0.632978  0.145830
    C   C91   0.729153  0.831449  0.478808  0.134547
    C   C92   0.686757  0.800661  0.419324  -0.151950
    C   C93   0.674680  0.830719  0.390110  0.055361
    Cl  Cl2   0.621539  0.791171  0.314866  -0.103894
    C   C94   0.704371  0.891679  0.419809  -0.118478
    C   C95   0.745886  0.922665  0.479019  -0.087325
    C   C96   0.758035  0.892802  0.508430  -0.174516
    H   H60   0.662240  0.752948  0.394748  0.112682
    H   H61   0.694981  0.915141  0.396737  0.110751
    H   H62   0.769246  0.970548  0.502460  0.114922
    H   H63   0.791424  0.918250  0.554745  0.103733
    C   C97   0.732425  0.937810  0.138550  0.156689
    C   C98   0.710059  0.877731  0.104798  -0.224446
    C   C99   0.703311  0.854727  0.048925  0.122517
    Cl  Cl3   0.673768  0.778430  0.005551  -0.117784
    C   C100  0.719198  0.891617  0.026804  -0.158230
    C   C101  0.741772  0.951554  0.060470  -0.104849
    C   C102  0.748258  0.974574  0.116145  -0.141311
    H   H64   0.697013  0.848203  0.121338  0.127789
    H   H65   0.713779  0.873511  0.982998  0.130266
    H   H66   0.754094  0.980508  0.043097  0.117075
    H   H67   0.765543  0.021594  0.142119  0.094409
    C   C103  0.352792  0.307153  0.606524  0.247865
    C   C104  0.409168  0.349972  0.624397  -0.166822
    C   C105  0.446222  0.396234  0.681710  0.060107
    Cl  Cl4   0.516061  0.450048  0.701823  -0.117716
    C   C106  0.428658  0.400258  0.723109  -0.043058
    C   C107  0.373465  0.358399  0.706791  -0.178928
    C   C108  0.335790  0.312294  0.649343  -0.194180
    H   H68   0.425726  0.348259  0.593989  0.136699
    H   H69   0.458126  0.436129  0.768264  0.089488
    H   H70   0.359418  0.361630  0.739270  0.127216
    H   H71   0.293323  0.281703  0.640145  0.121681
    C   C109  0.852958  0.042726  0.259565  0.121140
    C   C110  0.884305  0.102528  0.279346  -0.173909
    C   C111  0.939724  0.126873  0.285127  0.078436
    Cl  Cl5   0.979595  0.202784  0.310718  -0.103782
    C   C112  0.963941  0.091640  0.271107  -0.109904
    C   C113  0.932655  0.031932  0.251131  -0.126088
    C   C114  0.877264  0.007523  0.245327  -0.124895
    H   H72   0.866100  0.130807  0.290720  0.105098
    H   H73   0.007479  0.110858  0.275854  0.110251
    H   H74   0.951611  0.004251  0.240166  0.124502
    H   H75   0.852958  0.960657  0.229734  0.094941
    C   C115  0.354813  0.233411  0.530476  0.101091
    C   C116  0.377540  0.212083  0.566196  -0.070851
    C   C117  0.415166  0.191136  0.560004  0.005423
    Cl  Cl6   0.442399  0.164274  0.605621  -0.096402
    C   C118  0.431505  0.191438  0.518313  -0.035755
    C   C119  0.410427  0.213189  0.483138  -0.202758
    C   C120  0.372770  0.234279  0.489085  -0.097832
    H   H76   0.366101  0.211511  0.599834  0.075887
    H   H77   0.461085  0.175049  0.513473  0.094725
    H   H78   0.423663  0.214010  0.450661  0.132477
    H   H79   0.359066  0.251288  0.460548  0.115197
    C   C121  0.451389  0.320588  0.214158  0.245895
    C   C122  0.453433  0.373408  0.245020  -0.118825
    C   C123  0.407855  0.383692  0.221869  0.004629
    Cl  Cl7   0.412154  0.450353  0.262779  -0.094827
    C   C124  0.359106  0.341890  0.167147  -0.050150
    C   C125  0.355971  0.289539  0.135721  -0.200654
    C   C126  0.401297  0.278737  0.158612  -0.144778
    H   H80   0.490317  0.407879  0.288391  0.147751
    H   H81   0.323306  0.349988  0.149055  0.098680
    H   H82   0.317457  0.256327  0.092776  0.137832
    H   H83   0.394734  0.236241  0.131772  0.112355
    C   C127  0.558849  0.371144  0.267477  0.177311
    C   C128  0.599359  0.411589  0.327412  -0.165192
    C   C129  0.645086  0.465579  0.345349  0.096831
    Cl  Cl8   0.694059  0.515903  0.420960  -0.140322
    C   C130  0.651706  0.480723  0.304479  -0.129000
    C   C131  0.611865  0.441996  0.245336  -0.164524
    C   C132  0.565695  0.388238  0.227101  -0.123141
    H   H84   0.596267  0.404223  0.362226  0.146647
    H   H85   0.687486  0.523238  0.318836  0.130385
    H   H86   0.616285  0.454039  0.213001  0.133292
    H   H87   0.534375  0.359629  0.180260  0.114983
    C   C133  0.555558  0.186833  0.279369  0.119805
    C   C134  0.519436  0.154061  0.294640  -0.139939
    C   C135  0.526100  0.109777  0.303317  0.051041
    Cl  Cl9   0.479932  0.068760  0.322305  -0.100624
    C   C136  0.568854  0.097701  0.297108  -0.093363
    C   C137  0.605310  0.130269  0.282549  -0.116191
    C   C138  0.598947  0.174734  0.274039  -0.173190
    H   H88   0.485748  0.162439  0.300361  0.098857
    H   H89   0.573884  0.062846  0.303795  0.102857
    H   H90   0.638936  0.120877  0.277648  0.122413
    H   H91   0.627779  0.199238  0.262048  0.110923
    C   C139  0.585385  0.713680  0.796581  0.230284
    C   C140  0.595130  0.667995  0.770326  -0.010052
    C   C141  0.651569  0.676905  0.786726  -0.127189
    Cl  Cl10  0.661580  0.618430  0.751558  -0.019126
    C   C142  0.699853  0.731337  0.830450  0.047455
    C   C143  0.691461  0.776836  0.857903  -0.217774
    C   C144  0.635093  0.768426  0.841517  -0.150353
    H   H92   0.558824  0.624165  0.736107  0.122645
    H   H93   0.744159  0.738270  0.843331  0.057715
    H   H94   0.729389  0.819687  0.892522  0.126160
    H   H95   0.632373  0.806370  0.864687  0.129999
    C   C145  0.490090  0.643362  0.775955  0.239374
    C   C146  0.512111  0.645177  0.830051  -0.146336
    C   C147  0.487221  0.596210  0.835208  0.002049
    Cl  Cl11  0.515792  0.600670  0.904321  -0.083650
    C   C148  0.440095  0.543976  0.786344  -0.067959
    C   C149  0.418822  0.540452  0.732029  -0.139872
    C   C150  0.443472  0.589327  0.726501  -0.160565
    H   H96   0.549280  0.685429  0.869528  0.146702
    H   H97   0.420167  0.505749  0.790540  0.098466
    H   H98   0.382486  0.499003  0.693303  0.118395
    H   H99   0.424835  0.582805  0.682532  0.127818
