# Generated by REPEAT Assigner based on pymatgen
data_DB0-m2_o11_o19_f0_pcu.sym.67_sqe
_audit_creation_date              2022-05-24
_audit_creation_method            REPEAT_Assigner
_cell_length_a                    11.814169
_cell_length_b                    10.994620
_cell_length_c                    9.534444
_cell_angle_alpha                 90.020476
_cell_angle_beta                  90.011546
_cell_angle_gamma                 89.995561
_cell_volume                      1238.450701
_symmetry_space_group_name_H-M    P1
_symmetry_Int_Tables_number       1
loop_
    _symmetry_equiv_pos_site_id
    _symmetry_equiv_pos_as_xyz
    1  x,y,z
loop_
    _atom_site_type_symbol
    _atom_site_label
    _atom_site_fract_x
    _atom_site_fract_y
    _atom_site_fract_z
    _atom_type_partial_charge
    O   O1   0.534428  0.303517  0.648983  -0.595419
    O   O2   0.532241  0.302910  0.408231  -0.590437
    C   C1   0.528368  0.246203  0.528563  0.583236
    O   O3   0.375412  0.493523  0.644714  -0.663362
    O   O4   0.378598  0.490383  0.402793  -0.625163
    C   C2   0.324336  0.490632  0.522912  0.875908
    Cu  Cu1  0.539097  0.480389  0.668295  0.933686
    Cu  Cu2  0.543192  0.479186  0.387576  0.977598
    O   O5   0.552175  0.656398  0.647899  -0.602673
    O   O6   0.545515  0.656201  0.406372  -0.610286
    O   O7   0.703898  0.475231  0.652497  -0.651979
    O   O8   0.707248  0.476391  0.411725  -0.630027
    C   C3   0.552208  0.712910  0.527342  0.809544
    C   C4   0.758285  0.471123  0.533013  0.891742
    C   C5   0.202857  0.489661  0.522349  -0.249769
    C   C6   0.100939  0.485916  0.525556  0.061168
    C   C7   0.981599  0.479813  0.530769  0.069395
    C   C8   0.879719  0.474830  0.533802  -0.277596
    C   C9   0.560068  0.915122  0.417527  0.107880
    C   C10  0.560907  0.845588  0.532215  -0.472747
    H   H1   0.559938  0.873478  0.314493  0.099879
    H   H2   0.571765  0.886504  0.634625  0.195373
    C   C11  0.569697  0.048646  0.427827  -0.285111
    C   C12  0.515270  0.112980  0.526253  0.133464
    H   H3   0.619305  0.095753  0.349166  0.141559
    C   C13  0.514468  0.386107  0.952734  -0.027949
    N   N1   0.535396  0.480648  0.878171  -0.221294
    H   H4   0.511779  0.297929  0.903888  0.139777
    H   H5   0.522630  0.562627  0.927626  0.229401
    C   C14  0.492351  0.397272  0.105146  0.317615
    N   N2   0.546201  0.477200  0.177734  -0.456042
    H   H6   0.612577  0.519021  0.127367  0.267512
    O   O9   0.441642  0.055604  0.612599  -0.094995
    C   C15  0.365579  0.113715  0.698249  0.027202
    C   C16  0.289234  0.021747  0.763112  0.029982
    C   C17  0.334560  0.930190  0.844699  -0.110232
    C   C18  0.264695  0.844693  0.905458  -0.052632
    C   C19  0.149332  0.850620  0.885008  -0.118474
    C   C20  0.103808  0.942232  0.804027  -0.085153
    C   C21  0.173541  0.027859  0.743199  -0.128953
    H   H7   0.315263  0.179717  0.636259  0.083155
    H   H8   0.410828  0.160805  0.783504  0.027825
    H   H9   0.424952  0.925342  0.861465  0.088161
    H   H10  0.300410  0.773060  0.969254  0.089753
    H   H11  0.094565  0.783620  0.932708  0.099331
    H   H12  0.013306  0.947047  0.788325  0.100040
    H   H13  0.136755  0.099578  0.680535  0.091279
    O   O10  0.416130  0.323868  0.168659  -0.056621
    C   C22  0.357338  0.235377  0.097640  0.018843
    C   C23  0.274853  0.175982  0.193852  -0.008827
    C   C24  0.187600  0.243258  0.250802  -0.081253
    C   C25  0.108799  0.188061  0.336396  -0.167029
    C   C26  0.117183  0.065599  0.365488  -0.027308
    C   C27  0.204567  0.998330  0.309316  -0.170062
    C   C28  0.283278  0.053263  0.223389  -0.015238
    H   H14  0.417296  0.166207  0.057243  0.056835
    H   H15  0.309898  0.276702  0.009224  0.039845
    H   H16  0.180127  0.339112  0.227314  0.104322
    H   H17  0.040053  0.240664  0.380136  0.111313
    H   H18  0.055155  0.022271  0.432173  0.095566
    H   H19  0.211091  0.902272  0.332091  0.107891
    H   H20  0.350911  0.999239  0.179222  0.070555
