# Generated by REPEAT Assigner based on pymatgen
data_DB0-m29_o88_o90_f0_pts.sym.68
_audit_creation_date              2022-05-24
_audit_creation_method            REPEAT_Assigner
_cell_length_a                    15.468615
_cell_length_b                    16.877157
_cell_length_c                    11.778700
_cell_angle_alpha                 71.803797
_cell_angle_beta                  101.281516
_cell_angle_gamma                 109.564715
_cell_volume                      2738.307129
_symmetry_space_group_name_H-M    P1
_symmetry_Int_Tables_number       1
loop_
    _symmetry_equiv_pos_site_id
    _symmetry_equiv_pos_as_xyz
    1  x,y,z
loop_
    _atom_site_type_symbol
    _atom_site_label
    _atom_site_fract_x
    _atom_site_fract_y
    _atom_site_fract_z
    _atom_type_partial_charge
    C   C1   0.805800  0.011315  0.193096  -0.137270
    H   H1   0.796740  0.015485  0.279533  0.150906
    C   C2   0.890322  0.010998  0.173246  -0.188119
    H   H2   0.946823  0.016574  0.243522  0.131061
    C   C3   0.902742  0.002261  0.065637  0.226112
    C   C4   0.829043  0.994782  0.976972  -0.182782
    H   H3   0.836956  0.986089  0.893235  0.139855
    C   C5   0.743517  0.995663  0.995587  -0.001586
    C   C6   0.731664  0.001652  0.106632  0.045393
    C   C7   0.993854  0.998001  0.052171  -0.205520
    C   C8   0.024242  0.015802  0.945294  -0.144670
    H   H4   0.036631  0.979983  0.134303  0.145974
    H   H5   0.981354  0.034529  0.863579  0.133613
    C   C9   0.127495  0.007800  0.819838  -0.267072
    H   H6   0.070306  0.004940  0.750340  0.142851
    C   C10  0.211854  0.008184  0.797087  0.232961
    C   C11  0.285527  0.013075  0.885387  -0.111480
    C   C12  0.273673  0.015009  0.998912  -0.004013
    C   C13  0.188391  0.015214  0.019527  -0.194196
    H   H7   0.180386  0.020431  0.105389  0.151286
    C   C14  0.115102  0.011732  0.930266  0.186667
    O   O1   0.553303  0.124350  0.634999  -0.600170
    C   C15  0.494059  0.133699  0.539001  0.624011
    O   O2   0.442523  0.095921  0.851650  -0.490969
    O   O3   0.417863  0.070221  0.530347  -0.540305
    O   O4   0.386140  0.965458  0.806494  -0.607098
    C   C16  0.375550  0.023409  0.851274  0.646772
    Fe  Fe1  0.508987  0.007626  0.746786  1.391177
    O   O5   0.591991  0.007298  0.900773  -0.436648
    O   O6   0.684666  0.986343  0.793224  -0.486696
    C   C17  0.669779  0.994158  0.894555  0.511978
    O   O7   0.507970  0.929967  0.647500  -0.405691
    O   O8   0.496045  0.832612  0.830090  -0.472320
    C   C18  0.502177  0.850338  0.714747  0.478480
    O   O9   0.508427  0.082869  0.346268  -0.413570
    O   O10  0.516275  0.179225  0.162806  -0.485470
    C   C19  0.511492  0.161808  0.278438  0.483251
    O   O11  0.427410  0.006915  0.091396  -0.440586
    O   O12  0.331212  0.017483  0.203935  -0.511348
    C   C20  0.347405  0.014630  0.100238  0.544026
    O   O13  0.597939  0.940789  0.463434  -0.530765
    O   O14  0.632443  0.047017  0.190484  -0.556671
    C   C21  0.641715  0.991188  0.140682  0.578374
    O   O15  0.462273  0.888512  0.357722  -0.592069
    C   C22  0.520838  0.878332  0.454354  0.629739
    O   O16  0.573811  0.919876  0.136625  -0.471661
    Fe  Fe2  0.508558  0.005424  0.247092  1.392495
    C   C23  0.507190  0.793060  0.542254  -0.012599
    C   C24  0.503922  0.723765  0.501134  0.062337
    H   H8   0.509471  0.735614  0.406889  0.056996
    C   C25  0.498396  0.642228  0.579278  -0.423910
    C   C26  0.492798  0.629693  0.699416  0.099602
    H   H9   0.487926  0.566738  0.763013  0.051036
    C   C27  0.493918  0.697899  0.740862  -0.163937
    H   H10  0.489204  0.685278  0.835503  0.140988
    C   C28  0.501928  0.780493  0.663872  0.056903
    N   N1   0.498953  0.492056  0.612985  -0.270049
    N   N2   0.503135  0.427983  0.574237  -0.239596
    C   C29  0.510078  0.440808  0.457330  0.794658
    N   N3   0.512430  0.519282  0.380137  -0.271727
    N   N4   0.508263  0.583353  0.418886  -0.235220
    C   C30  0.501328  0.570538  0.535785  0.785945
    C   C31  0.518088  0.381688  0.293461  0.089844
    H   H11  0.521989  0.444438  0.229732  0.055858
    C   C32  0.517475  0.313678  0.251976  -0.159297
    H   H12  0.521642  0.326242  0.157201  0.146018
    C   C33  0.510847  0.231374  0.329170  0.044720
    C   C34  0.506244  0.218822  0.450937  -0.003818
    C   C35  0.508913  0.287932  0.492081  0.082220
    H   H13  0.504002  0.276154  0.586492  0.056912
    C   C36  0.513254  0.369226  0.413796  -0.438648
    N   N5   0.225515  0.009871  0.680958  0.073340
    C   C37  0.215579  0.087902  0.591283  -0.300345
    C   C38  0.171019  0.931628  0.646319  -0.049082
    H   H14  0.260390  0.145902  0.621348  0.083898
    H   H15  0.143051  0.089422  0.576047  0.098061
    H   H16  0.237085  0.090276  0.505517  0.147655
    H   H17  0.131084  0.884295  0.720557  0.033105
    H   H18  0.217508  0.901213  0.625947  0.070720
    H   H19  0.122983  0.947282  0.565285  0.049174
