# Generated by REPEAT Assigner based on pymatgen
data_DB0-m3_o16_o50_f0_fsc.sym.10
_audit_creation_date              2022-05-24
_audit_creation_method            REPEAT_Assigner
_cell_length_a                    8.493760
_cell_length_b                    11.216591
_cell_length_c                    12.123855
_cell_angle_alpha                 106.407302
_cell_angle_beta                  91.521583
_cell_angle_gamma                 73.252817
_cell_volume                      1059.127933
_symmetry_space_group_name_H-M    P1
_symmetry_Int_Tables_number       1
loop_
    _symmetry_equiv_pos_site_id
    _symmetry_equiv_pos_as_xyz
    1  x,y,z
loop_
    _atom_site_type_symbol
    _atom_site_label
    _atom_site_fract_x
    _atom_site_fract_y
    _atom_site_fract_z
    _atom_type_partial_charge
    C   C1   0.422370  0.699219  0.032066  -0.149175
    C   C2   0.258938  0.755438  0.019488  -0.165777
    C   C3   0.208621  0.869698  0.989141  0.124331
    C   C4   0.328542  0.916091  0.955346  -0.083934
    H   H1   0.294215  0.999293  0.922208  0.102437
    C   C5   0.494419  0.849726  0.954878  -0.194308
    C   C6   0.541526  0.744146  0.998467  -0.004087
    C   C7   0.030091  0.936126  0.990783  -0.203303
    C   C8   0.970906  0.065205  0.011643  -0.190731
    H   H2   0.944579  0.878987  0.979314  0.132086
    H   H3   0.056437  0.122337  0.023161  0.129159
    C   C9   0.742162  0.245846  0.982776  -0.152937
    C   C10  0.578616  0.302083  0.970204  -0.157165
    C   C11  0.459346  0.257113  0.003752  -0.000109
    C   C12  0.506522  0.151579  0.047397  -0.217605
    C   C13  0.672416  0.085270  0.046996  -0.042404
    H   H4   0.706739  0.002095  0.080172  0.070217
    C   C14  0.792383  0.131634  0.013208  0.100099
    H   H5   0.458363  0.610381  0.056846  0.151839
    H   H6   0.586712  0.881211  0.921103  0.122894
    H   H7   0.542628  0.390887  0.945365  0.120306
    H   H8   0.414253  0.120079  0.081174  0.126681
    O   O1   0.106937  0.659093  0.110574  -0.752685
    O   O2   0.122377  0.610053  0.912342  -0.716712
    C   C15  0.149467  0.676667  0.014845  0.924259
    O   O3   0.231392  0.350218  0.905358  -0.693585
    O   O4   0.204769  0.398005  0.103485  -0.724527
    C   C16  0.287017  0.333581  0.003893  0.818704
    O   O5   0.894381  0.341964  0.891316  -0.715957
    O   O6   0.879449  0.390781  0.090078  -0.742432
    C   C17  0.851917  0.324484  0.987327  0.954745
    O   O7   0.769496  0.650920  0.096538  -0.748279
    O   O8   0.795632  0.602708  0.898867  -0.705366
    C   C18  0.713662  0.667538  0.998246  0.810527
    Zn  Zn1  0.016040  0.465545  0.872466  1.035411
    Zn  Zn2  0.984943  0.535739  0.129301  1.045407
    C   C19  0.889893  0.754467  0.449284  -0.194206
    H   H9   0.878886  0.776126  0.280885  0.166136
    H   H10  0.868218  0.821469  0.671698  0.152848
    H   H11  0.846311  0.858050  0.490026  0.138553
    N   N1   0.962562  0.579963  0.279967  0.176222
    C   C20  0.092063  0.291746  0.672808  0.362176
    C   C21  0.113529  0.239559  0.555715  -0.223691
    C   C22  0.079263  0.318389  0.485040  -0.097592
    C   C23  0.022854  0.452098  0.532209  -0.004986
    C   C24  0.003792  0.502529  0.652451  0.149156
    C   C25  0.984686  0.536505  0.462364  0.097722
    C   C26  0.928585  0.668915  0.514446  0.220067
    C   C27  0.911289  0.717689  0.631859  -0.245456
    C   C28  0.948582  0.636121  0.700115  -0.135992
    C   C29  0.000719  0.493751  0.341811  -0.245150
    C   C30  0.907817  0.708382  0.331762  -0.136937
    N   N2   0.038255  0.421758  0.721298  -0.112135
    H   H12  0.044241  0.393052  0.293790  0.178767
    H   H13  0.098275  0.270187  0.394355  0.153893
    H   H14  0.156763  0.135272  0.518898  0.153898
    H   H15  0.932871  0.682300  0.790529  0.193840
    F   F1   0.125076  0.209124  0.738699  -0.155159
