# Generated by REPEAT Assigner based on pymatgen
data_DB0-m3_o9_o25_f0_pcu.sym.122_sqe
_audit_creation_date              2022-05-24
_audit_creation_method            REPEAT_Assigner
_cell_length_a                    15.966449
_cell_length_b                    16.021347
_cell_length_c                    9.862100
_cell_angle_alpha                 90.009563
_cell_angle_beta                  90.007750
_cell_angle_gamma                 90.000000
_cell_volume                      2522.764626
_symmetry_space_group_name_H-M    P1
_symmetry_Int_Tables_number       1
loop_
    _symmetry_equiv_pos_site_id
    _symmetry_equiv_pos_as_xyz
    1  x,y,z
loop_
    _atom_site_type_symbol
    _atom_site_label
    _atom_site_fract_x
    _atom_site_fract_y
    _atom_site_fract_z
    _atom_type_partial_charge
    O   O1   0.478513  0.382730  0.632143  -0.608211
    O   O2   0.525455  0.622867  0.362584  -0.639645
    O   O3   0.505491  0.375820  0.401500  -0.560509
    O   O4   0.497602  0.629690  0.592591  -0.544532
    C   C1   0.491037  0.339818  0.518719  0.646151
    C   C2   0.511722  0.666230  0.475622  0.651883
    O   O5   0.367603  0.512112  0.587870  -0.689559
    O   O6   0.635894  0.492573  0.407304  -0.643227
    O   O7   0.388766  0.509339  0.356279  -0.720207
    O   O8   0.614908  0.496285  0.638646  -0.637934
    C   C3   0.339611  0.513079  0.463316  0.883340
    C   C4   0.663941  0.491905  0.531634  0.822165
    Zn  Zn1  0.488540  0.508424  0.648751  1.075797
    Zn  Zn2  0.515122  0.497128  0.345852  1.104304
    C   C5   0.990294  0.447634  0.599551  0.512576
    C   C6   0.013096  0.549016  0.394266  0.685663
    C   C7   0.032273  0.425741  0.465954  0.138216
    C   C8   0.971535  0.572037  0.526784  0.159749
    C   C9   0.250110  0.512936  0.447558  -0.159578
    C   C10  0.753337  0.489683  0.546873  -0.147784
    C   C11  0.041286  0.527602  0.602994  0.314256
    C   C12  0.962245  0.469393  0.391331  0.002934
    C   C13  0.083599  0.505468  0.469457  -0.007691
    C   C14  0.919817  0.492184  0.524153  0.097845
    C   C15  0.174588  0.510548  0.450090  -0.163778
    C   C16  0.828825  0.489691  0.543557  -0.155566
    C   C17  0.510680  0.971242  0.616805  -0.284277
    C   C18  0.465212  0.033890  0.377223  -0.039846
    C   C19  0.560452  0.029533  0.527636  0.535601
    C   C20  0.415327  0.975436  0.466352  0.256033
    H   H1   0.532362  0.945032  0.714785  0.099979
    H   H2   0.443569  0.060102  0.279222  0.047124
    H   H3   0.589621  0.959398  0.325183  0.111838
    H   H4   0.386173  0.045758  0.668969  0.054787
    C   C21  0.488935  0.249818  0.517598  -0.124065
    C   C22  0.500328  0.755521  0.475826  -0.103561
    C   C23  0.433156  0.025902  0.592676  -0.116105
    C   C24  0.542668  0.979265  0.401513  -0.366149
    C   C25  0.485401  0.083474  0.504511  0.302874
    C   C26  0.490452  0.921604  0.489564  0.490476
    C   C27  0.487106  0.174660  0.513020  -0.290118
    C   C28  0.493632  0.830444  0.481024  -0.267395
    H   H5   0.759125  0.744711  0.349545  0.072563
    H   H6   0.226896  0.264155  0.702560  0.096208
    C   C29  0.631819  0.719088  0.298383  -0.736005
    C   C30  0.346020  0.320967  0.666934  -0.504655
    H   H7   0.615765  0.783981  0.310795  0.155829
    H   H8   0.335836  0.319831  0.558597  0.095511
    C   C31  0.571479  0.661427  0.256153  1.224080
    C   C32  0.422562  0.344400  0.724132  1.140657
    H   H9   0.524647  0.697145  0.203481  -0.227504
    H   H10  0.449086  0.285417  0.755162  -0.164734
    C   C33  0.605850  0.602266  0.166397  -0.520675
    C   C34  0.411360  0.383028  0.850118  -0.331645
    C   C35  0.690342  0.582607  0.172008  0.032304
    C   C36  0.348615  0.354395  0.934808  0.036575
    H   H11  0.715047  0.531965  0.111764  0.093735
    H   H12  0.346568  0.374538  0.039381  0.098083
    C   C37  0.744606  0.628478  0.249454  -0.296001
    C   C38  0.285602  0.304897  0.884800  -0.438722
    H   H13  0.810680  0.613948  0.250990  0.045980
    H   H14  0.235125  0.284449  0.949836  0.179045
    C   C39  0.715497  0.699859  0.308135  0.069378
    C   C40  0.281919  0.292037  0.747607  0.024100
    C   C41  0.498785  0.578197  0.983097  0.189157
    C   C42  0.528592  0.411497  0.003982  0.529440
    N   N1   0.456274  0.523766  0.904627  -0.261443
    N   N2   0.568772  0.465187  0.085831  -0.475378
    C   C43  0.470984  0.441077  0.911558  0.118528
    C   C44  0.554837  0.547971  0.079005  0.316352
    N   N3   0.066002  0.344896  0.431790  -0.659615
    C   C45  0.104279  0.339486  0.309883  0.881305
    O   O9   0.092754  0.392836  0.223777  -0.604529
    C   C46  0.160919  0.267848  0.278990  -0.556734
    H   H15  0.093110  0.310805  0.508456  0.320077
    H   H16  0.163444  0.223661  0.365399  0.105939
    H   H17  0.224820  0.291680  0.257963  0.158669
    H   H18  0.137249  0.234468  0.188224  0.144007
    N   N4   0.939668  0.655377  0.548033  -0.696255
    C   C47  0.904133  0.672264  0.669065  0.796451
    O   O10  0.920569  0.630321  0.768346  -0.560240
    C   C48  0.846428  0.744844  0.682691  -0.431245
    H   H19  0.911735  0.684013  0.466325  0.317807
    H   H20  0.879608  0.802835  0.652939  0.098985
    H   H21  0.825488  0.750130  0.789562  0.111190
    H   H22  0.791081  0.735687  0.616403  0.089665
    N   N5   0.491501  0.664643  0.957091  -0.466023
    C   C49  0.414934  0.698071  0.977676  0.708774
    O   O11  0.354979  0.653005  0.999555  -0.558604
    C   C50  0.403450  0.790496  0.978383  -0.351705
    H   H23  0.542636  0.702963  0.969471  0.264465
    H   H24  0.463296  0.822596  0.955362  0.078240
    H   H25  0.380869  0.810509  0.079634  0.088560
    H   H26  0.356332  0.807877  0.900768  0.110542
    N   N6   0.540727  0.324967  0.020876  -0.800756
    C   C51  0.594177  0.291476  0.929934  0.896150
    O   O12  0.612024  0.329707  0.827072  -0.596337
    C   C52  0.633052  0.208238  0.955406  -0.618277
    H   H27  0.550609  0.305122  0.118792  0.375074
    H   H28  0.609212  0.180916  0.051211  0.156486
    H   H29  0.702021  0.215294  0.961964  0.165412
    H   H30  0.617532  0.165673  0.870349  0.153379
    N   N7   0.982802  0.385724  0.705182  -0.732017
    C   C53  0.929882  0.400146  0.809032  0.755321
    O   O13  0.899974  0.469154  0.826282  -0.528007
    C   C54  0.908964  0.331620  0.905537  -0.533615
    H   H31  0.998934  0.324891  0.684930  0.336088
    H   H32  0.940103  0.272597  0.875545  0.106740
    H   H33  0.840218  0.321905  0.906332  0.148735
    H   H34  0.930711  0.349286  0.008265  0.147616
    N   N8   0.023036  0.603950  0.279786  -0.843559
    C   C55  0.075400  0.669490  0.294782  0.790404
    O   O14  0.103329  0.687001  0.406255  -0.592355
    C   C56  0.098738  0.721809  0.175466  -0.413426
    H   H35  0.006294  0.584637  0.184072  0.378730
    H   H36  0.067496  0.698699  0.082350  0.094970
    H   H37  0.167591  0.719638  0.161098  0.135085
    H   H38  0.079251  0.787247  0.194146  0.097290
    N   N9   0.917830  0.437153  0.275358  -0.503541
    C   C57  0.869945  0.369265  0.300667  0.760653
    O   O15  0.884922  0.324795  0.397968  -0.570921
    C   C58  0.797427  0.348331  0.211412  -0.481987
    H   H39  0.892594  0.480248  0.209791  0.291072
    H   H40  0.791598  0.393838  0.127395  0.119577
    H   H41  0.739084  0.349233  0.272390  0.129097
    H   H42  0.806364  0.284903  0.168786  0.133348
    N   N10  0.083015  0.562633  0.719214  -0.589934
    C   C59  0.146684  0.517226  0.770414  0.675986
    O   O16  0.153012  0.443139  0.744391  -0.485741
    C   C60  0.209858  0.558068  0.859170  -0.511522
    H   H43  0.091591  0.626285  0.721020  0.311913
    H   H44  0.178296  0.584872  0.949380  0.134050
    H   H45  0.241728  0.608411  0.801795  0.135662
    H   H46  0.256677  0.511257  0.892198  0.191725
    N   N11  0.641610  0.061042  0.565367  -0.696083
    C   C61  0.685108  0.103407  0.470409  0.719600
    O   O17  0.651285  0.125744  0.365687  -0.537778
    C   C62  0.774940  0.123764  0.494101  -0.407774
    H   H47  0.673397  0.035405  0.646015  0.304780
    H   H48  0.811136  0.065236  0.507241  0.085493
    H   H49  0.780888  0.162675  0.586621  0.121593
    H   H50  0.799804  0.158629  0.405724  0.123902
    N   N12  0.334167  0.944065  0.428468  -0.628084
    C   C63  0.291145  0.900850  0.522926  0.692593
    O   O18  0.325605  0.877259  0.626356  -0.503913
    C   C64  0.201137  0.880957  0.500068  -0.470321
    H   H51  0.301871  0.970796  0.349299  0.300241
    H   H52  0.164860  0.939713  0.490758  0.103496
    H   H53  0.176929  0.844256  0.586969  0.144400
    H   H54  0.194540  0.844028  0.405574  0.154941
