# Generated by REPEAT Assigner based on pymatgen
data_DB0-m2_o1_o16_f0_pcu.sym.73_sqe
_audit_creation_date              2022-05-24
_audit_creation_method            REPEAT_Assigner
_cell_length_a                    9.400608
_cell_length_b                    10.866759
_cell_length_c                    13.553518
_cell_angle_alpha                 89.996031
_cell_angle_beta                  74.556244
_cell_angle_gamma                 90.019381
_cell_volume                      1334.555123
_symmetry_space_group_name_H-M    P1
_symmetry_Int_Tables_number       1
loop_
    _symmetry_equiv_pos_site_id
    _symmetry_equiv_pos_as_xyz
    1  x,y,z
loop_
    _atom_site_type_symbol
    _atom_site_label
    _atom_site_fract_x
    _atom_site_fract_y
    _atom_site_fract_z
    _atom_type_partial_charge
    O   O1   0.371656  0.672779  0.512893  -0.482282
    O   O2   0.618937  0.674802  0.504783  -0.615684
    C   C1   0.494888  0.731949  0.508010  0.714643
    O   O3   0.321103  0.496063  0.656312  -0.591868
    O   O4   0.565938  0.487430  0.653616  -0.565887
    C   C2   0.426051  0.492956  0.703475  0.708278
    Cu  Cu1  0.355710  0.493855  0.507684  0.698652
    Cu  Cu2  0.641078  0.496045  0.504891  0.893058
    O   O5   0.377591  0.315254  0.509020  -0.475820
    O   O6   0.625677  0.317087  0.498189  -0.570437
    O   O7   0.430291  0.500838  0.358911  -0.577780
    O   O8   0.675943  0.496152  0.356226  -0.608159
    C   C3   0.502228  0.258365  0.502995  0.625154
    C   C4   0.570409  0.500690  0.309661  0.681710
    C   C5   0.772089  0.596728  0.047037  -0.246793
    H   H1   0.824397  0.589270  0.189836  0.092975
    H   H2   0.796242  0.664648  0.860105  0.131179
    H   H3   0.875122  0.641326  0.009581  0.124417
    C   C6   0.609722  0.516212  0.198377  -0.093075
    C   C7   0.250171  0.426127  0.860688  -0.019101
    C   C8   0.211248  0.399107  0.963033  -0.113305
    C   C9   0.304786  0.426055  0.022461  -0.168905
    C   C10  0.438223  0.486511  0.981175  0.020858
    C   C11  0.474487  0.518476  0.877620  0.247625
    C   C12  0.536735  0.515287  0.040149  0.032834
    C   C13  0.668830  0.573265  0.993689  0.222944
    C   C14  0.697320  0.612650  0.894237  -0.205688
    C   C15  0.599234  0.589247  0.837879  -0.272074
    C   C16  0.507482  0.489499  0.144540  -0.155970
    C   C17  0.743923  0.566614  0.148721  -0.034354
    C   C18  0.383072  0.482691  0.816133  -0.225958
    H   H4   0.405471  0.449654  0.187621  0.104835
    H   H5   0.177471  0.397579  0.815214  0.103971
    H   H6   0.267366  0.397319  0.100888  0.127726
    H   H7   0.108125  0.352466  0.996644  0.101547
    H   H8   0.621829  0.631251  0.763534  0.148110
    C   C19  0.607618  0.931096  0.531838  -0.050310
    H   H9   0.693165  0.882097  0.555166  0.104332
    C   C20  0.611521  0.058030  0.529894  -0.109359
    H   H10  0.699916  0.105371  0.551353  0.104926
    C   C21  0.501697  0.123390  0.503087  0.007275
    C   C22  0.389530  0.060724  0.476579  -0.297315
    H   H11  0.308314  0.111807  0.449995  0.131320
    C   C23  0.385131  0.933315  0.477822  0.465178
    C   C24  0.494980  0.867625  0.506035  -0.254743
    C   C25  0.901157  0.572047  0.567477  -0.034789
    H   H12  0.825176  0.634887  0.616384  0.149053
    C   C26  0.046727  0.570064  0.570086  0.025494
    H   H13  0.083591  0.631309  0.621065  0.095714
    N   N1   0.142183  0.491804  0.509666  0.016702
    C   C27  0.095978  0.417945  0.444711  -0.084799
    H   H14  0.172778  0.356413  0.394657  0.138812
    C   C28  0.950150  0.419523  0.442472  0.049529
    H   H15  0.913402  0.358655  0.391187  0.099393
    N   N2   0.854561  0.497578  0.503126  -0.073869
    N   N3   0.280322  0.871210  0.438076  -0.639888
    C   C29  0.138739  0.909276  0.470292  0.796294
    O   O9   0.096289  0.966032  0.550380  -0.575700
    C   C30  0.031126  0.876448  0.411078  -0.555253
    H   H16  0.316161  0.833490  0.366076  0.306172
    H   H17  0.086305  0.825354  0.340473  0.117919
    H   H18  0.981554  0.961744  0.389930  0.145837
    H   H19  0.942971  0.817900  0.459080  0.164699
