# Generated by REPEAT Assigner based on pymatgen
data_DB0-m3_o1490_o22_f0_fsc.sym.20
_audit_creation_date              2022-05-24
_audit_creation_method            REPEAT_Assigner
_cell_length_a                    8.530633
_cell_length_b                    9.095089
_cell_length_c                    10.731183
_cell_angle_alpha                 97.841103
_cell_angle_beta                  90.008382
_cell_angle_gamma                 90.095450
_cell_volume                      824.812999
_symmetry_space_group_name_H-M    P1
_symmetry_Int_Tables_number       1
loop_
    _symmetry_equiv_pos_site_id
    _symmetry_equiv_pos_as_xyz
    1  x,y,z
loop_
    _atom_site_type_symbol
    _atom_site_label
    _atom_site_fract_x
    _atom_site_fract_y
    _atom_site_fract_z
    _atom_type_partial_charge
    C   C1   0.002253  0.936132  0.309250  -0.062026
    C   C2   0.861990  0.956619  0.251878  -0.058028
    C   C3   0.858727  0.986427  0.130122  -0.113128
    C   C4   0.140763  0.955530  0.248515  -0.322857
    C   C5   0.139005  0.978155  0.123316  0.645982
    C   C6   0.997056  0.988591  0.061692  -0.289451
    C   C7   0.997185  0.008203  0.935083  0.400767
    C   C8   0.859005  0.010123  0.866350  -0.362183
    C   C9   0.862516  0.040740  0.744844  0.003878
    N   N1   0.275133  0.989150  0.061824  -0.660720
    C   C10  0.277812  0.008588  0.939648  0.317125
    C   C11  0.139481  0.019270  0.874249  -0.195753
    C   C12  0.141574  0.042109  0.748757  -0.117982
    C   C13  0.003059  0.061712  0.687999  -0.055426
    H   H1   0.003917  0.918930  0.406711  0.142697
    H   H2   0.004995  0.079243  0.590619  0.112659
    H   H3   0.745567  0.010931  0.094278  0.098237
    H   H4   0.745748  0.985131  0.901884  0.181324
    H   H5   0.389594  0.017600  0.893965  0.030729
    O   O1   0.670270  0.103613  0.368767  -0.638587
    O   O2   0.664734  0.849702  0.367277  -0.641159
    C   C14  0.720398  0.969590  0.327977  0.698646
    O   O3   0.669363  0.893734  0.628421  -0.626509
    O   O4   0.666056  0.148561  0.629109  -0.641431
    C   C15  0.720951  0.028073  0.668377  0.727575
    O   O5   0.331919  0.893725  0.628419  -0.653917
    O   O6   0.337496  0.147966  0.629799  -0.714970
    C   C16  0.283095  0.028285  0.670974  0.789068
    O   O7   0.332997  0.102865  0.367902  -0.647973
    O   O8   0.336262  0.849824  0.367386  -0.672938
    C   C17  0.283212  0.968879  0.325224  0.788408
    Zn  Zn1  0.500632  0.834252  0.499935  0.955961
    Zn  Zn2  0.501308  0.163202  0.496765  0.974700
    C   C18  0.497164  0.599886  0.628421  -0.169107
    H   H6   0.402479  0.658482  0.685275  0.060789
    H   H7   0.610724  0.628819  0.675664  0.067969
    C   C19  0.468929  0.434656  0.624047  0.191106
    H   H8   0.543092  0.391970  0.695768  0.005644
    H   H9   0.344170  0.419190  0.647873  0.005592
    H   H10  0.254961  0.603936  0.482381  0.068720
    H   H11  0.265075  0.356008  0.441972  0.101549
    C   C20  0.365446  0.568999  0.432558  -0.079503
    C   C21  0.639101  0.574964  0.440378  0.229238
    N   N2   0.498775  0.640582  0.501559  0.184647
    H   H12  0.633691  0.581118  0.338015  0.018890
    N   N3   0.502213  0.357304  0.498823  0.061129
    C   C22  0.379975  0.401402  0.417394  -0.089613
    C   C23  0.651178  0.412948  0.456996  0.311419
    H   H13  0.684419  0.354918  0.363651  0.017345
    H   H14  0.361896  0.596751  0.335455  0.073433
    H   H15  0.408540  0.360369  0.317909  0.040023
    F   F1   0.771696  0.648051  0.490710  -0.230659
    F   F2   0.767641  0.395086  0.543165  -0.261330
