# Generated by REPEAT Assigner based on pymatgen
data_DB0-m3_o3_o27_f0_pcu.sym.3
_audit_creation_date              2022-05-24
_audit_creation_method            REPEAT_Assigner
_cell_length_a                    19.464696
_cell_length_b                    18.258089
_cell_length_c                    19.375412
_cell_angle_alpha                 90.000000
_cell_angle_beta                  90.012039
_cell_angle_gamma                 90.000000
_cell_volume                      6885.791825
_symmetry_space_group_name_H-M    P1
_symmetry_Int_Tables_number       1
loop_
    _symmetry_equiv_pos_site_id
    _symmetry_equiv_pos_as_xyz
    1  x,y,z
loop_
    _atom_site_type_symbol
    _atom_site_label
    _atom_site_fract_x
    _atom_site_fract_y
    _atom_site_fract_z
    _atom_type_partial_charge
    O   O1   0.397656  0.563241  0.498915  -0.679258
    O   O2   0.602349  0.436796  0.499007  -0.685192
    O   O3   0.602353  0.563241  0.501059  -0.679265
    O   O4   0.397650  0.436797  0.501017  -0.685202
    C   C1   0.365647  0.500023  0.499943  0.756682
    C   C2   0.634356  0.500018  0.500059  0.756549
    O   O5   0.501061  0.563226  0.397167  -0.690517
    O   O6   0.501042  0.436810  0.602829  -0.681215
    O   O7   0.498952  0.563263  0.602810  -0.690609
    O   O8   0.498958  0.436774  0.397190  -0.681279
    C   C3   0.500000  0.499991  0.365051  0.785413
    C   C4   0.500011  0.500039  0.634946  0.785609
    Zn  Zn1  0.500004  0.583341  0.499986  1.063453
    Zn  Zn2  0.499999  0.416696  0.500012  1.061075
    C   C5   0.535491  0.552896  0.254081  -0.317211
    C   C6   0.535513  0.447031  0.745882  -0.363338
    C   C7   0.464543  0.552957  0.745920  -0.316462
    C   C8   0.464514  0.446975  0.254108  -0.363196
    H   H1   0.564095  0.593601  0.282602  0.133176
    H   H2   0.564104  0.406342  0.717333  0.145235
    H   H3   0.435940  0.593665  0.717402  0.132927
    H   H4   0.435917  0.406286  0.282652  0.145119
    C   C9   0.537258  0.552492  0.182793  0.473422
    C   C10  0.537248  0.447342  0.817175  0.497819
    C   C11  0.462761  0.552531  0.817207  0.472948
    C   C12  0.462767  0.447307  0.182815  0.497775
    C   C13  0.500010  0.499888  0.145921  -0.786933
    C   C14  0.500001  0.499916  0.854075  -0.786497
    C   C15  0.499993  0.499961  0.289661  0.050084
    C   C16  0.500040  0.500026  0.710335  0.049690
    N   N1   0.500351  0.436449  0.034097  -0.337569
    N   N2   0.500331  0.563324  0.965901  -0.337006
    N   N3   0.499671  0.436455  0.965890  -0.337135
    N   N4   0.499646  0.563318  0.034106  -0.337336
    C   C17  0.500002  0.499894  0.930594  0.959557
    C   C18  0.499999  0.499882  0.069402  0.960246
    C   C19  0.745116  0.442675  0.470855  -0.093854
    C   C20  0.254901  0.557335  0.470526  -0.134576
    C   C21  0.254878  0.442779  0.529298  -0.093207
    C   C22  0.745102  0.557383  0.529375  -0.135768
    H   H5   0.717944  0.397885  0.446665  0.099904
    H   H6   0.282095  0.602050  0.446243  0.112680
    H   H7   0.282049  0.398050  0.553588  0.099697
    H   H8   0.717914  0.602164  0.553558  0.113135
    C   C23  0.815920  0.443289  0.469664  -0.141664
    C   C24  0.184090  0.556757  0.469337  -0.121323
    C   C25  0.184074  0.443413  0.530507  -0.142441
    C   C26  0.815912  0.556812  0.530544  -0.120331
    H   H9   0.841888  0.399222  0.443251  0.105333
    H   H10  0.158144  0.600771  0.442816  0.098793
    H   H11  0.158126  0.399426  0.557054  0.105608
    H   H12  0.841886  0.600900  0.556931  0.098512
    C   C27  0.852256  0.500064  0.500091  0.074692
    C   C28  0.147729  0.500095  0.499924  0.074865
    C   C29  0.709449  0.500022  0.500107  -0.055213
    C   C30  0.290552  0.500040  0.499911  -0.055762
    C   C31  0.964569  0.565228  0.499256  -0.138517
    C   C32  0.035386  0.434960  0.499616  -0.138301
    C   C33  0.035376  0.565242  0.500300  -0.140183
    C   C34  0.964586  0.434956  0.500779  -0.136370
    H   H13  0.938594  0.617392  0.496933  0.108558
    H   H14  0.061324  0.382765  0.497564  0.106546
    H   H15  0.061315  0.617439  0.502304  0.109080
    H   H16  0.938636  0.382781  0.503148  0.105967
    C   C35  0.071766  0.500104  0.499938  0.060078
    C   C36  0.928204  0.500086  0.500050  0.058813
    C   C37  0.542666  0.729320  0.542468  -0.045270
    C   C38  0.457516  0.270721  0.457349  -0.038510
    C   C39  0.457331  0.729317  0.457476  -0.045352
    C   C40  0.542493  0.270718  0.542701  -0.038139
    H   H17  0.576887  0.699298  0.576088  0.148023
    H   H18  0.423442  0.300745  0.423580  0.143932
    H   H19  0.423113  0.699294  0.423854  0.148171
    H   H20  0.576567  0.300742  0.576472  0.143823
    C   C41  0.543244  0.804811  0.543237  -0.141402
    C   C42  0.456919  0.195230  0.456595  -0.145787
    C   C43  0.456730  0.804810  0.456727  -0.141680
    C   C44  0.543102  0.195226  0.543439  -0.146308
    H   H21  0.578876  0.832880  0.576836  0.114371
    H   H22  0.421400  0.167179  0.422863  0.114739
    H   H23  0.421090  0.832878  0.423135  0.114474
    H   H24  0.578623  0.167172  0.577165  0.114916
    C   C45  0.499981  0.843431  0.499989  0.133862
    C   C46  0.500012  0.156600  0.500013  0.136143
    N   N5   0.500004  0.692871  0.499968  -0.031929
    N   N6   0.500000  0.307166  0.500029  -0.033713
    C   C47  0.493104  0.962268  0.438879  -0.122331
    C   C48  0.506867  0.037746  0.561128  -0.127028
    C   C49  0.506864  0.962256  0.561120  -0.122168
    C   C50  0.493133  0.037757  0.438881  -0.126867
    H   H25  0.489413  0.933750  0.390163  0.114919
    H   H26  0.510537  0.066248  0.609852  0.115923
    H   H27  0.510546  0.933729  0.609831  0.114864
    H   H28  0.489473  0.066267  0.390160  0.115863
    C   C51  0.500008  0.076097  0.500007  0.043177
    C   C52  0.499977  0.923925  0.499997  0.038409
    C   C53  0.582721  0.607343  0.148124  -0.388961
    H   H29  0.617059  0.579561  0.110681  0.107078
    H   H30  0.551356  0.649886  0.122179  0.086569
    H   H31  0.615544  0.635255  0.186743  0.096938
    C   C54  0.582650  0.392407  0.851823  -0.396126
    H   H32  0.617024  0.420118  0.889294  0.105088
    H   H33  0.551236  0.349891  0.877733  0.089927
    H   H34  0.615433  0.364476  0.813194  0.096697
    C   C55  0.417274  0.607358  0.851879  -0.388911
    H   H35  0.382933  0.579553  0.889306  0.107103
    H   H36  0.448619  0.649903  0.877844  0.086551
    H   H37  0.384452  0.635269  0.813258  0.096950
    C   C56  0.417339  0.392403  0.148158  -0.395867
    H   H38  0.382968  0.420143  0.110702  0.104993
    H   H39  0.448732  0.349884  0.122226  0.089846
    H   H40  0.384553  0.364472  0.186783  0.096689
