# Generated by REPEAT Assigner based on pymatgen
data_DB0-m2_o6_o28_f0_nbo.sym.48
_audit_creation_date              2022-05-24
_audit_creation_method            REPEAT_Assigner
_cell_length_a                    31.981621
_cell_length_b                    31.981621
_cell_length_c                    46.870086
_cell_angle_alpha                 90.000000
_cell_angle_beta                  90.000000
_cell_angle_gamma                 90.000000
_cell_volume                      47939.851572
_symmetry_space_group_name_H-M    P1
_symmetry_Int_Tables_number       1
loop_
    _symmetry_equiv_pos_site_id
    _symmetry_equiv_pos_as_xyz
    1  x,y,z
loop_
    _atom_site_type_symbol
    _atom_site_label
    _atom_site_fract_x
    _atom_site_fract_y
    _atom_site_fract_z
    _atom_type_partial_charge
    O   O1    0.059852  0.533749  0.991515  -0.549416
    O   O2    0.465336  0.059846  0.991464  -0.548811
    O   O3    0.941028  0.465326  0.991449  -0.547746
    O   O4    0.533724  0.941002  0.991502  -0.548962
    O   O5    0.059846  0.465336  0.008536  -0.548783
    O   O6    0.465326  0.941028  0.008551  -0.547740
    O   O7    0.941002  0.533724  0.008498  -0.548959
    O   O8    0.533749  0.059852  0.008485  -0.549475
    O   O9    0.559852  0.033749  0.491515  -0.549387
    O   O10   0.965336  0.559846  0.491464  -0.548807
    O   O11   0.441028  0.965326  0.491449  -0.547802
    O   O12   0.033723  0.441002  0.491502  -0.548962
    O   O13   0.559846  0.965336  0.508536  -0.548803
    O   O14   0.965326  0.441028  0.508551  -0.547811
    O   O15   0.441002  0.033723  0.508498  -0.548949
    O   O16   0.033749  0.559852  0.508485  -0.549405
    C   C1    0.079367  0.499545  0.000034  0.708719
    C   C2    0.499545  0.079367  0.999966  0.708788
    C   C3    0.921498  0.499521  0.999966  0.708083
    C   C4    0.499521  0.921498  0.000034  0.708112
    C   C5    0.579367  0.999545  0.500034  0.708853
    C   C6    0.999545  0.579367  0.499966  0.708853
    C   C7    0.421498  0.999521  0.499966  0.708064
    C   C8    0.999521  0.421498  0.500034  0.708074
    O   O17   0.012962  0.533469  0.040576  -0.508782
    O   O18   0.465605  0.013048  0.040566  -0.507722
    O   O19   0.987824  0.465569  0.040551  -0.508779
    O   O20   0.533497  0.987889  0.040562  -0.507801
    O   O21   0.013048  0.465604  0.959434  -0.507680
    O   O22   0.465569  0.987824  0.959449  -0.508762
    O   O23   0.987889  0.533497  0.959438  -0.507799
    O   O24   0.533469  0.012962  0.959424  -0.508795
    O   O25   0.512962  0.033468  0.540576  -0.508755
    O   O26   0.965604  0.513048  0.540566  -0.507677
    O   O27   0.487824  0.965568  0.540551  -0.508775
    O   O28   0.033497  0.487889  0.540562  -0.507784
    O   O29   0.513048  0.965604  0.459434  -0.507665
    O   O30   0.965568  0.487824  0.459449  -0.508788
    O   O31   0.487889  0.033497  0.459438  -0.507767
    O   O32   0.033468  0.512962  0.459424  -0.508764
    C   C9    0.000361  0.499521  0.054283  0.589763
    C   C10   0.499559  0.000479  0.054283  0.587923
    C   C11   0.000479  0.499558  0.945717  0.587906
    C   C12   0.499521  0.000362  0.945717  0.589754
    C   C13   0.500362  0.999521  0.554283  0.589706
    C   C14   0.999558  0.500479  0.554283  0.587885
    C   C15   0.500479  0.999558  0.445717  0.587881
    C   C16   0.999521  0.500362  0.445717  0.589719
    Cu  Cu1   0.000426  0.540090  0.000008  0.976495
    Cu  Cu2   0.458979  0.000438  0.000009  0.976307
    Cu  Cu3   0.000438  0.458978  0.999991  0.976280
    Cu  Cu4   0.540090  0.000426  0.999992  0.976598
    Cu  Cu5   0.500426  0.040090  0.500008  0.976527
    Cu  Cu6   0.958978  0.500438  0.500009  0.976295
    Cu  Cu7   0.500438  0.958978  0.499991  0.976320
    Cu  Cu8   0.040090  0.500426  0.499992  0.976491
    C   C17   0.023168  0.471833  0.309015  0.461122
    C   C18   0.528324  0.023343  0.308947  0.460600
    C   C19   0.976107  0.528023  0.308897  0.462658
    C   C20   0.472135  0.976281  0.308964  0.462901
    C   C21   0.023343  0.528324  0.691053  0.460599
    C   C22   0.528023  0.976107  0.691103  0.462674
    C   C23   0.976281  0.472135  0.691036  0.462880
    C   C24   0.471833  0.023168  0.690985  0.461132
    C   C25   0.523168  0.971833  0.809015  0.461104
    C   C26   0.028324  0.523344  0.808947  0.460622
    C   C27   0.476107  0.028023  0.808897  0.462649
    C   C28   0.972135  0.476282  0.808965  0.462888
    C   C29   0.523344  0.028324  0.191053  0.460629
    C   C30   0.028022  0.476107  0.191103  0.462632
    C   C31   0.476282  0.972135  0.191035  0.462914
    C   C32   0.971833  0.523168  0.190985  0.461088
    N   N1    0.999613  0.499973  0.323437  -0.150315
    N   N2    0.500276  0.999769  0.323437  -0.152223
    N   N3    0.999769  0.500276  0.676563  -0.152210
    N   N4    0.499974  0.999613  0.676563  -0.150329
    N   N5    0.499614  0.999973  0.823437  -0.150309
    N   N6    0.000276  0.499769  0.823437  -0.152243
    N   N7    0.499769  0.000276  0.176563  -0.152263
    N   N8    0.999973  0.499613  0.176563  -0.150274
    O   O33   0.498910  0.439634  0.024607  -0.607245
    O   O34   0.561214  0.498841  0.024549  -0.620154
    O   O35   0.498900  0.561145  0.024630  -0.618170
    O   O36   0.439704  0.498832  0.024684  -0.604956
    O   O37   0.498840  0.561214  0.975451  -0.620173
    O   O38   0.561145  0.498900  0.975370  -0.618166
    O   O39   0.498831  0.439704  0.975316  -0.604962
    O   O40   0.439634  0.498910  0.975393  -0.607246
    O   O41   0.998910  0.939635  0.524607  -0.607248
    O   O42   0.061214  0.998841  0.524549  -0.620173
    O   O43   0.998901  0.061145  0.524630  -0.618183
    O   O44   0.939704  0.998832  0.524684  -0.604944
    O   O45   0.998841  0.061214  0.475451  -0.620157
    O   O46   0.061145  0.998901  0.475370  -0.618167
    O   O47   0.998832  0.939704  0.475316  -0.604928
    O   O48   0.939635  0.998910  0.475393  -0.607230
    C   C33   0.974434  0.526957  0.279430  -0.121394
    C   C34   0.473015  0.974648  0.279493  -0.119499
    C   C35   0.024963  0.472733  0.279549  -0.120433
    C   C36   0.527239  0.025178  0.279486  -0.117363
    C   C37   0.974648  0.473015  0.720507  -0.119481
    C   C38   0.472733  0.024963  0.720450  -0.120438
    C   C39   0.025178  0.527239  0.720514  -0.117350
    C   C40   0.526957  0.974434  0.720570  -0.121406
    C   C41   0.474435  0.026956  0.779430  -0.121387
    C   C42   0.973015  0.474649  0.779493  -0.119452
    C   C43   0.524964  0.972733  0.779549  -0.120439
    C   C44   0.027238  0.525178  0.779486  -0.117375
    C   C45   0.474649  0.973015  0.220507  -0.119470
    C   C46   0.972733  0.524964  0.220451  -0.120420
    C   C47   0.525179  0.027238  0.220514  -0.117392
    C   C48   0.026956  0.474435  0.220570  -0.121372
    C   C49   0.999733  0.499806  0.264708  0.094353
    C   C50   0.500073  0.999967  0.264707  0.092126
    C   C51   0.999967  0.500073  0.735293  0.092117
    C   C52   0.499806  0.999733  0.735292  0.094342
    C   C53   0.499734  0.999806  0.764708  0.094358
    C   C54   0.000073  0.499967  0.764708  0.092136
    C   C55   0.499967  0.000073  0.235292  0.092137
    C   C56   0.999806  0.499734  0.235292  0.094339
    C   C57   0.947932  0.553230  0.264558  -0.045278
    C   C58   0.446649  0.948166  0.264681  -0.044846
    C   C59   0.051533  0.446381  0.264799  -0.043137
    C   C60   0.553498  0.051767  0.264676  -0.045530
    C   C61   0.948166  0.446649  0.735319  -0.044836
    C   C62   0.446381  0.051533  0.735201  -0.043138
    C   C63   0.051767  0.553498  0.735324  -0.045526
    C   C64   0.553230  0.947932  0.735442  -0.045271
    C   C65   0.447932  0.053230  0.764558  -0.045296
    C   C66   0.946649  0.448166  0.764681  -0.044886
    C   C67   0.551533  0.946380  0.764799  -0.043131
    C   C68   0.053498  0.551768  0.764676  -0.045528
    C   C69   0.448166  0.946649  0.235318  -0.044887
    C   C70   0.946380  0.551533  0.235201  -0.043133
    C   C71   0.551768  0.053498  0.235324  -0.045519
    C   C72   0.053229  0.447932  0.235442  -0.045287
    Cu  Cu9   0.500469  0.500389  0.028446  1.009807
    Cu  Cu10  0.500389  0.500469  0.971554  1.009801
    Cu  Cu11  0.000469  0.000389  0.528446  1.009761
    Cu  Cu12  0.000389  0.000469  0.471554  1.009827
    O   O49   0.044295  0.442056  0.323220  -0.497382
    O   O50   0.558190  0.044452  0.323077  -0.497329
    O   O51   0.954920  0.557879  0.322982  -0.497476
    O   O52   0.442371  0.955073  0.323124  -0.498113
    O   O53   0.044452  0.558190  0.676923  -0.497322
    O   O54   0.557879  0.954920  0.677018  -0.497489
    O   O55   0.955073  0.442370  0.676876  -0.498103
    O   O56   0.442057  0.044296  0.676780  -0.497382
    O   O57   0.544296  0.942056  0.823220  -0.497385
    O   O58   0.058190  0.544452  0.823077  -0.497315
    O   O59   0.454921  0.057879  0.822982  -0.497468
    O   O60   0.942370  0.455073  0.823124  -0.498112
    O   O61   0.544452  0.058190  0.176923  -0.497325
    O   O62   0.057878  0.454920  0.177018  -0.497472
    O   O63   0.455074  0.942370  0.176876  -0.498124
    O   O64   0.942056  0.544296  0.176780  -0.497377
    H   H1    0.927468  0.574748  0.275542  0.139612
    H   H2    0.425198  0.927689  0.275715  0.139741
    H   H3    0.071944  0.424918  0.275879  0.139166
    H   H4    0.575028  0.072166  0.275706  0.139712
    H   H5    0.927689  0.425198  0.724285  0.139737
    H   H6    0.424919  0.071944  0.724121  0.139164
    H   H7    0.072166  0.575028  0.724294  0.139712
    H   H8    0.574748  0.927468  0.724458  0.139611
    H   H9    0.427469  0.074748  0.775542  0.139621
    H   H10   0.925198  0.427690  0.775716  0.139753
    H   H11   0.571944  0.924918  0.775879  0.139162
    H   H12   0.075027  0.572166  0.775706  0.139714
    H   H13   0.427690  0.925198  0.224284  0.139762
    H   H14   0.924918  0.571944  0.224121  0.139165
    H   H15   0.572166  0.075027  0.224294  0.139713
    H   H16   0.074748  0.427469  0.224458  0.139612
    C   C73   0.001752  0.462586  0.131047  -0.231522
    C   C74   0.536658  0.002016  0.131000  -0.234931
    C   C75   0.998517  0.536558  0.131017  -0.233749
    C   C76   0.462686  0.998786  0.131063  -0.232819
    C   C77   0.002016  0.536658  0.869000  -0.234944
    C   C78   0.536558  0.998517  0.868983  -0.233766
    C   C79   0.998786  0.462686  0.868937  -0.232830
    C   C80   0.462586  0.001752  0.868953  -0.231512
    C   C81   0.501752  0.962586  0.631047  -0.231478
    C   C82   0.036657  0.502016  0.631000  -0.234940
    C   C83   0.498517  0.036558  0.631017  -0.233709
    C   C84   0.962685  0.498786  0.631063  -0.232868
    C   C85   0.502016  0.036657  0.369000  -0.234939
    C   C86   0.036558  0.498517  0.368983  -0.233726
    C   C87   0.498786  0.962685  0.368937  -0.232865
    C   C88   0.962586  0.501752  0.368953  -0.231481
    H   H17   0.001098  0.433749  0.142987  0.163217
    H   H18   0.565529  0.001367  0.142902  0.164446
    H   H19   0.999100  0.565411  0.142940  0.164636
    H   H20   0.433866  0.999377  0.143024  0.163441
    H   H21   0.001367  0.565529  0.857098  0.164451
    H   H22   0.565412  0.999100  0.857060  0.164636
    H   H23   0.999377  0.433866  0.856976  0.163448
    H   H24   0.433749  0.001098  0.857013  0.163210
    H   H25   0.501098  0.933749  0.642986  0.163201
    H   H26   0.065528  0.501367  0.642902  0.164459
    H   H27   0.499101  0.065411  0.642940  0.164635
    H   H28   0.933866  0.499377  0.643024  0.163475
    H   H29   0.501367  0.065528  0.357098  0.164448
    H   H30   0.065411  0.499100  0.357060  0.164634
    H   H31   0.499377  0.933866  0.356976  0.163474
    H   H32   0.933749  0.501098  0.357014  0.163204
    C   C89   0.005021  0.462067  0.101584  0.063870
    C   C90   0.537100  0.005266  0.101538  0.064032
    C   C91   0.995428  0.537037  0.101546  0.060872
    C   C92   0.462129  0.995681  0.101592  0.065567
    C   C93   0.005266  0.537100  0.898462  0.064041
    C   C94   0.537037  0.995429  0.898454  0.060887
    C   C95   0.995681  0.462129  0.898408  0.065582
    C   C96   0.462067  0.005021  0.898416  0.063846
    C   C97   0.505021  0.962066  0.601584  0.063806
    C   C98   0.037100  0.505266  0.601538  0.064067
    C   C99   0.495429  0.037037  0.601546  0.060811
    C   C100  0.962128  0.495681  0.601592  0.065926
    C   C101  0.505266  0.037100  0.398462  0.064071
    C   C102  0.037037  0.495429  0.398454  0.060827
    C   C103  0.495681  0.962128  0.398408  0.065926
    C   C104  0.962066  0.505021  0.398416  0.063806
    C   C105  0.000272  0.499540  0.086108  -0.169291
    C   C106  0.499590  0.000491  0.086108  -0.170710
    C   C107  0.000490  0.499589  0.913892  -0.170721
    C   C108  0.499541  0.000272  0.913892  -0.169287
    C   C109  0.500272  0.999540  0.586108  -0.169229
    C   C110  0.999589  0.500491  0.586108  -0.170868
    C   C111  0.500491  0.999589  0.413892  -0.170869
    C   C112  0.999540  0.500272  0.413892  -0.169237
    C   C113  0.000082  0.499584  0.145931  0.275156
    C   C114  0.499702  0.000358  0.145931  0.277635
    C   C115  0.000358  0.499702  0.854069  0.277630
    C   C116  0.499584  0.000082  0.854069  0.275178
    C   C117  0.500082  0.999583  0.645931  0.275142
    C   C118  0.999701  0.500358  0.645931  0.277578
    C   C119  0.500358  0.999701  0.354069  0.277583
    C   C120  0.999583  0.500082  0.354069  0.275144
    H   H33   0.211490  0.453551  0.967334  0.162601
    H   H34   0.545785  0.211207  0.967093  0.160938
    H   H35   0.789662  0.545700  0.967067  0.162090
    H   H36   0.453531  0.789384  0.967317  0.163910
    H   H37   0.211207  0.545784  0.032907  0.160920
    H   H38   0.545699  0.789662  0.032933  0.162077
    H   H39   0.789384  0.453531  0.032682  0.163987
    H   H40   0.453550  0.211490  0.032665  0.162623
    H   H41   0.711490  0.953551  0.467334  0.162564
    H   H42   0.045784  0.711207  0.467092  0.160885
    H   H43   0.289662  0.045699  0.467067  0.162073
    H   H44   0.953531  0.289384  0.467317  0.163921
    H   H45   0.711207  0.045784  0.532907  0.160885
    H   H46   0.045699  0.289662  0.532933  0.162073
    H   H47   0.289384  0.953531  0.532683  0.163922
    H   H48   0.953551  0.711490  0.532666  0.162565
    C   C121  0.271450  0.473967  0.981759  -0.162274
    C   C122  0.525679  0.271288  0.981480  -0.166833
    C   C123  0.729582  0.525604  0.981462  -0.178323
    C   C124  0.473928  0.729423  0.981752  -0.173166
    C   C125  0.271288  0.525679  0.018521  -0.166851
    C   C126  0.525604  0.729583  0.018538  -0.178361
    C   C127  0.729423  0.473928  0.018248  -0.173056
    C   C128  0.473966  0.271450  0.018241  -0.162253
    C   C129  0.771451  0.973967  0.481758  -0.162284
    C   C130  0.025678  0.771288  0.481479  -0.166927
    C   C131  0.229583  0.025604  0.481462  -0.178284
    C   C132  0.973928  0.229423  0.481752  -0.173082
    C   C133  0.771288  0.025678  0.518521  -0.166932
    C   C134  0.025604  0.229583  0.518538  -0.178285
    C   C135  0.229423  0.973928  0.518248  -0.173080
    C   C136  0.973967  0.771451  0.518242  -0.162282
    H   H49   0.288424  0.453767  0.967347  0.147036
    H   H50   0.546005  0.288136  0.967082  0.143926
    H   H51   0.712733  0.545915  0.967056  0.146494
    H   H52   0.453743  0.712450  0.967330  0.149110
    H   H53   0.288136  0.546004  0.032919  0.143941
    H   H54   0.545915  0.712733  0.032945  0.146493
    H   H55   0.712449  0.453743  0.032670  0.149080
    H   H56   0.453766  0.288424  0.032652  0.147035
    H   H57   0.788424  0.953767  0.467347  0.147038
    H   H58   0.046004  0.788136  0.467081  0.143940
    H   H59   0.212734  0.045915  0.467056  0.146472
    H   H60   0.953743  0.212450  0.467330  0.149082
    H   H61   0.788136  0.046004  0.532919  0.143941
    H   H62   0.045915  0.212734  0.532944  0.146472
    H   H63   0.212450  0.953743  0.532670  0.149082
    H   H64   0.953767  0.788424  0.532653  0.147038
    C   C137  0.292913  0.499889  0.000141  0.238674
    C   C138  0.499889  0.292914  0.999859  0.238646
    C   C139  0.707960  0.499832  0.999854  0.274863
    C   C140  0.499832  0.707960  0.000146  0.274898
    C   C141  0.792914  0.999889  0.500141  0.238708
    C   C142  0.999889  0.792914  0.499859  0.238706
    C   C143  0.207960  0.999832  0.499854  0.274712
    C   C144  0.999832  0.207960  0.500146  0.274710
    C   C145  0.228181  0.525558  0.018513  -0.198053
    C   C146  0.473847  0.228340  0.018250  -0.206634
    C   C147  0.772532  0.473811  0.018257  -0.206641
    C   C148  0.525486  0.772689  0.018530  -0.197718
    C   C149  0.228340  0.473848  0.981750  -0.206569
    C   C150  0.473812  0.772533  0.981743  -0.206447
    C   C151  0.772689  0.525486  0.981470  -0.197795
    C   C152  0.525559  0.228181  0.981487  -0.198099
    C   C153  0.728181  0.025558  0.518513  -0.197878
    C   C154  0.973848  0.728340  0.518250  -0.206477
    C   C155  0.272533  0.973811  0.518257  -0.206471
    C   C156  0.025486  0.272689  0.518530  -0.197714
    C   C157  0.728340  0.973848  0.481750  -0.206474
    C   C158  0.973811  0.272533  0.481743  -0.206468
    C   C159  0.272689  0.025486  0.481470  -0.197716
    C   C160  0.025558  0.728181  0.481487  -0.197888
    C   C161  0.206717  0.499651  0.000123  0.269121
    C   C162  0.499652  0.206717  0.999877  0.269261
    C   C163  0.794153  0.499599  0.999872  0.267314
    C   C164  0.499599  0.794153  0.000128  0.267173
    C   C165  0.706717  0.999651  0.500123  0.268747
    C   C166  0.999651  0.706717  0.499877  0.268758
    C   C167  0.294153  0.999599  0.499872  0.267188
    C   C168  0.999599  0.294153  0.500128  0.267185
    C   C169  0.337762  0.500106  0.000108  -0.058779
    C   C170  0.500106  0.337762  0.999892  -0.058764
    C   C171  0.663113  0.500054  0.999890  -0.122771
    C   C172  0.500054  0.663113  0.000110  -0.122748
    C   C173  0.837763  0.000106  0.500108  -0.058730
    C   C174  0.000106  0.837763  0.499892  -0.058734
    C   C175  0.163113  0.000054  0.499890  -0.122639
    C   C176  0.000054  0.163113  0.500110  -0.122639
    C   C177  0.161870  0.499585  0.000088  -0.104686
    C   C178  0.499585  0.161870  0.999912  -0.104887
    C   C179  0.838998  0.499540  0.999910  -0.102557
    C   C180  0.499540  0.838998  0.000090  -0.102478
    C   C181  0.661870  0.999585  0.500088  -0.104233
    C   C182  0.999585  0.661870  0.499912  -0.104244
    C   C183  0.338998  0.999540  0.499910  -0.102525
    C   C184  0.999540  0.338998  0.500090  -0.102524
    C   C185  0.124205  0.499557  0.000061  -0.159519
    C   C186  0.499557  0.124206  0.999939  -0.159358
    C   C187  0.876661  0.499521  0.999937  -0.161002
    C   C188  0.499521  0.876661  0.000063  -0.161036
    C   C189  0.624206  0.999557  0.500061  -0.159879
    C   C190  0.999557  0.624206  0.499939  -0.159878
    C   C191  0.376662  0.999521  0.499937  -0.161000
    C   C192  0.999521  0.376662  0.500063  -0.161009
    C   C193  0.375428  0.500364  0.000082  -0.261897
    C   C194  0.500364  0.375428  0.999918  -0.261887
    C   C195  0.625448  0.500323  0.999918  -0.164310
    C   C196  0.500323  0.625448  0.000082  -0.164332
    C   C197  0.875428  0.000365  0.500082  -0.261967
    C   C198  0.000365  0.875428  0.499918  -0.261963
    C   C199  0.125448  0.000323  0.499918  -0.164301
    C   C200  0.000323  0.125448  0.500082  -0.164299
    C   C201  0.500775  0.420273  0.999947  0.876715
    C   C202  0.580604  0.500755  0.999948  0.786585
    C   C203  0.500755  0.580605  0.000052  0.786608
    C   C204  0.420273  0.500775  0.000053  0.876732
    C   C205  0.000775  0.920273  0.499947  0.876776
    C   C206  0.080605  0.000755  0.499948  0.786526
    C   C207  0.000755  0.080605  0.500052  0.786524
    C   C208  0.920273  0.000775  0.500053  0.876778
    C   C209  0.015213  0.420635  0.087910  0.670942
    F   F1    0.046854  0.425395  0.068056  -0.221967
    F   F2    0.979926  0.404002  0.075182  -0.249688
    F   F3    0.029199  0.392481  0.108139  -0.208601
    C   C210  0.578496  0.015481  0.087819  0.673967
    F   F4    0.573660  0.047058  0.067928  -0.222293
    F   F5    0.595163  0.980182  0.075128  -0.250419
    F   F6    0.606658  0.029568  0.108011  -0.209649
    C   C211  0.985308  0.578453  0.087822  0.679134
    F   F7    0.953779  0.573667  0.067889  -0.223406
    F   F8    0.020664  0.595077  0.075179  -0.251302
    F   F9    0.971204  0.606631  0.107999  -0.211298
    C   C212  0.420675  0.985591  0.087912  0.670776
    F   F10   0.425382  0.954001  0.068015  -0.222287
    F   F11   0.404093  0.020941  0.075234  -0.249512
    F   F12   0.392503  0.971592  0.108125  -0.208861
    C   C213  0.015481  0.578496  0.912181  0.673952
    F   F13   0.047058  0.573660  0.932072  -0.222292
    F   F14   0.980182  0.595163  0.924872  -0.250411
    F   F15   0.029568  0.606658  0.891988  -0.209657
    C   C214  0.578454  0.985308  0.912178  0.679138
    F   F16   0.573667  0.953779  0.932111  -0.223405
    F   F17   0.595078  0.020664  0.924821  -0.251305
    F   F18   0.606631  0.971204  0.892001  -0.211284
    C   C215  0.985591  0.420675  0.912088  0.670764
    F   F19   0.954001  0.425381  0.931985  -0.222287
    F   F20   0.020941  0.404093  0.924766  -0.249516
    F   F21   0.971592  0.392503  0.891875  -0.208861
    C   C216  0.420635  0.015214  0.912090  0.670965
    F   F22   0.425396  0.046854  0.931944  -0.221971
    F   F23   0.404003  0.979926  0.924818  -0.249701
    F   F24   0.392481  0.029199  0.891861  -0.208596
    C   C217  0.515214  0.920634  0.587910  0.670981
    F   F25   0.546854  0.925395  0.568056  -0.221963
    F   F26   0.479926  0.904002  0.575182  -0.249711
    F   F27   0.529199  0.892480  0.608139  -0.208590
    C   C218  0.078495  0.515481  0.587819  0.673980
    F   F28   0.073660  0.547058  0.567928  -0.222282
    F   F29   0.095163  0.480182  0.575128  -0.250430
    F   F30   0.106657  0.529568  0.608012  -0.209669
    C   C219  0.485308  0.078453  0.587822  0.679155
    F   F31   0.453779  0.073667  0.567889  -0.223398
    F   F32   0.520665  0.095077  0.575179  -0.251326
    F   F33   0.471204  0.106630  0.607999  -0.211284
    C   C220  0.920675  0.485592  0.587912  0.670141
    F   F34   0.925381  0.454001  0.568015  -0.222114
    F   F35   0.904093  0.520942  0.575234  -0.249384
    F   F36   0.892502  0.471592  0.608125  -0.208755
    C   C221  0.515481  0.078496  0.412180  0.673985
    F   F37   0.547058  0.073660  0.432072  -0.222313
    F   F38   0.480182  0.095163  0.424872  -0.250440
    F   F39   0.529568  0.106657  0.391988  -0.209629
    C   C222  0.078453  0.485308  0.412178  0.679151
    F   F40   0.073666  0.453779  0.432111  -0.223398
    F   F41   0.095077  0.520665  0.424821  -0.251324
    F   F42   0.106630  0.471204  0.392001  -0.211283
    C   C223  0.485592  0.920675  0.412088  0.670140
    F   F43   0.454001  0.925381  0.431985  -0.222115
    F   F44   0.520942  0.904093  0.424766  -0.249385
    F   F45   0.471592  0.892502  0.391875  -0.208753
    C   C224  0.920634  0.515214  0.412090  0.670970
    F   F46   0.925395  0.546855  0.431944  -0.221969
    F   F47   0.904002  0.479926  0.424818  -0.249702
    F   F48   0.892480  0.529199  0.391861  -0.208589
