# Generated by REPEAT Assigner based on pymatgen
data_DB0-m29_o96_o49_f0_pts.sym.46
_audit_creation_date              2022-05-24
_audit_creation_method            REPEAT_Assigner
_cell_length_a                    17.253652
_cell_length_b                    9.289944
_cell_length_c                    21.906641
_cell_angle_alpha                 85.724929
_cell_angle_beta                  90.008545
_cell_angle_gamma                 110.408457
_cell_volume                      3280.500935
_symmetry_space_group_name_H-M    P1
_symmetry_Int_Tables_number       1
loop_
    _symmetry_equiv_pos_site_id
    _symmetry_equiv_pos_as_xyz
    1  x,y,z
loop_
    _atom_site_type_symbol
    _atom_site_label
    _atom_site_fract_x
    _atom_site_fract_y
    _atom_site_fract_z
    _atom_type_partial_charge
    C   C1   0.222669  0.033982  0.092379  0.052114
    C   C2   0.166348  0.996803  0.139510  -0.008925
    C   C3   0.091846  0.991260  0.115338  0.378088
    N   N1   0.099957  0.019077  0.053887  -0.525030
    C   C4   0.180258  0.044539  0.039631  0.369575
    C   C5   0.023520  0.971168  0.148470  -0.412634
    C   C6   0.947801  0.987086  0.123296  0.188447
    C   C7   0.892652  0.029790  0.156260  0.075335
    C   C8   0.828600  0.025161  0.119581  -0.018370
    C   C9   0.846148  0.980901  0.063778  0.210585
    N   N2   0.919088  0.956181  0.066657  -0.171251
    C   C10  0.794753  0.969489  0.009405  -0.402975
    C   C11  0.826291  0.991022  0.952437  0.382148
    C   C12  0.785017  0.008009  0.899813  0.027723
    C   C13  0.841762  0.046162  0.852934  -0.020519
    C   C14  0.915112  0.044466  0.877061  0.409413
    N   N3   0.905975  0.011795  0.938247  -0.549141
    C   C15  0.983375  0.062346  0.844327  -0.406756
    C   C16  0.055225  0.031941  0.870190  0.256097
    C   C17  0.108771  0.981854  0.838136  0.057511
    C   C18  0.175064  0.995886  0.873958  -0.117835
    C   C19  0.159029  0.046790  0.928676  0.316642
    N   N4   0.086123  0.070968  0.925626  -0.268066
    C   C20  0.211537  0.064943  0.982591  -0.424472
    H   H1   0.025888  0.957026  0.197730  0.178882
    H   H2   0.731427  0.962807  0.016069  0.201488
    H   H3   0.984035  0.089534  0.795508  0.162519
    H   H4   0.275412  0.075190  0.975842  0.202910
    H   H5   0.945798  0.911482  0.033754  0.269208
    H   H6   0.061687  0.123164  0.957197  0.286669
    C   C21  0.103964  0.926297  0.781115  -0.000797
    C   C22  0.172431  0.899910  0.758973  -0.127171
    C   C23  0.242907  0.924262  0.793647  0.047620
    C   C24  0.243558  0.967659  0.853105  -0.092698
    C   C25  0.304660  0.053285  0.102146  -0.258486
    C   C26  0.326802  0.027659  0.161847  0.109857
    C   C27  0.267725  0.984396  0.209367  -0.126551
    C   C28  0.186940  0.971051  0.198740  -0.179828
    C   C29  0.896189  0.073414  0.214853  -0.161209
    C   C30  0.830487  0.108333  0.236837  -0.113079
    C   C31  0.762630  0.098819  0.200626  0.067363
    C   C32  0.761924  0.059335  0.140446  -0.126957
    C   C33  0.703349  0.990813  0.889889  -0.247140
    C   C34  0.681791  0.018907  0.830268  0.100151
    C   C35  0.741435  0.064238  0.783058  -0.139076
    C   C36  0.821979  0.075706  0.793849  -0.149225
    H   H7   0.297484  0.986528  0.880805  0.139732
    H   H8   0.350182  0.085887  0.065044  0.152428
    H   H9   0.285072  0.965894  0.255893  0.159152
    H   H10  0.142288  0.939786  0.236348  0.130927
    H   H11  0.947966  0.079598  0.243562  0.132494
    H   H12  0.709795  0.050655  0.111777  0.140488
    H   H13  0.657397  0.955841  0.926726  0.149372
    H   H14  0.724641  0.084557  0.736538  0.161953
    H   H15  0.866921  0.106820  0.756429  0.113777
    H   H16  0.170093  0.857980  0.714090  0.122048
    H   H17  0.832077  0.139434  0.283482  0.135275
    O   O1   0.620179  0.089860  0.200732  -0.542971
    C   C37  0.689824  0.115252  0.229669  0.546217
    O   O2   0.587193  0.806443  0.268460  -0.506779
    O   O3   0.689089  0.126170  0.289027  -0.547784
    O   O4   0.519166  0.897538  0.335326  -0.536319
    C   C38  0.554493  0.798033  0.323232  0.579436
    Fe  Fe1  0.533119  0.051653  0.264940  1.462381
    O   O5   0.423544  0.964901  0.225206  -0.653357
    O   O6   0.473570  0.167665  0.153398  -0.545845
    C   C39  0.412097  0.048876  0.177654  0.619601
    O   O7   0.565701  0.258560  0.298991  -0.564510
    O   O8   0.445705  0.129335  0.351867  -0.549159
    C   C40  0.512078  0.253192  0.342608  0.584128
    C   C41  0.463043  0.506814  0.651596  -0.141275
    C   C42  0.485308  0.645306  0.617037  0.005420
    C   C43  0.502195  0.650456  0.554501  0.091355
    C   C44  0.524560  0.787670  0.518295  -0.189950
    C   C45  0.542014  0.792582  0.457014  -0.103183
    C   C46  0.460302  0.373902  0.626047  -0.056780
    C   C47  0.473245  0.377135  0.563038  0.110846
    C   C48  0.495299  0.516020  0.527380  0.009033
    C   C49  0.510034  0.520255  0.464443  -0.009615
    C   C50  0.531878  0.659057  0.428742  0.126722
    C   C51  0.544718  0.662152  0.365722  -0.067327
    C   C52  0.462994  0.243592  0.534740  -0.095454
    C   C53  0.480780  0.248595  0.473510  -0.196972
    C   C54  0.503389  0.385896  0.437358  0.102733
    C   C55  0.520756  0.391212  0.374903  -0.006137
    C   C56  0.542605  0.529489  0.340287  -0.128226
    H   H18  0.528813  0.895113  0.535885  0.171601
    H   H19  0.565904  0.905339  0.433282  0.132289
    H   H20  0.438880  0.130800  0.558437  0.129608
    H   H21  0.476451  0.141146  0.455884  0.176939
    H   H22  0.454002  0.506049  0.700418  0.152492
    H   H23  0.551838  0.530100  0.291497  0.148593
    O   O9   0.584187  0.075461  0.765674  -0.655972
    O   O10  0.535102  0.878153  0.839840  -0.549043
    C   C57  0.596268  0.995287  0.814197  0.619803
    O   O11  0.441757  0.778615  0.693440  -0.578600
    O   O12  0.560885  0.907600  0.639509  -0.554105
    C   C58  0.494708  0.783621  0.649395  0.591300
    O   O13  0.417247  0.228519  0.723098  -0.518600
    O   O14  0.387794  0.947384  0.791972  -0.547460
    C   C59  0.317251  0.915992  0.763796  0.562549
    O   O15  0.486166  0.138927  0.656320  -0.536988
    C   C60  0.450329  0.237673  0.668401  0.576688
    O   O16  0.317286  0.903907  0.704499  -0.539957
    Fe  Fe2  0.473977  0.986233  0.726958  1.465809
    C   C61  0.028130  0.883512  0.746012  0.055590
    C   C62  0.031201  0.928331  0.684248  -0.063198
    C   C63  0.960120  0.884102  0.650824  -0.312358
    C   C64  0.885705  0.793120  0.678880  0.334186
    C   C65  0.808550  0.744104  0.643305  -0.367858
    C   C66  0.882790  0.746244  0.740323  -0.207110
    C   C67  0.953814  0.790710  0.773773  -0.129355
    H   H24  0.089108  0.000057  0.661933  0.111611
    H   H25  0.963367  0.921149  0.602638  0.154980
    H   H26  0.821647  0.791115  0.594892  0.100029
    H   H27  0.762645  0.787015  0.663571  0.107499
    H   H28  0.782768  0.616493  0.645095  0.098901
    H   H29  0.824791  0.673726  0.762306  0.130199
    H   H30  0.951161  0.750708  0.821607  0.103914
