# Generated by REPEAT Assigner based on pymatgen
data_DB0-m29_o90_o53_f0_pts.sym.89
_audit_creation_date              2022-05-24
_audit_creation_method            REPEAT_Assigner
_cell_length_a                    9.397831
_cell_length_b                    16.021218
_cell_length_c                    23.925959
_cell_angle_alpha                 101.431309
_cell_angle_beta                  84.257149
_cell_angle_gamma                 79.426749
_cell_volume                      3436.020412
_symmetry_space_group_name_H-M    P1
_symmetry_Int_Tables_number       1
loop_
    _symmetry_equiv_pos_site_id
    _symmetry_equiv_pos_as_xyz
    1  x,y,z
loop_
    _atom_site_type_symbol
    _atom_site_label
    _atom_site_fract_x
    _atom_site_fract_y
    _atom_site_fract_z
    _atom_type_partial_charge
    C   C1   0.097628  0.940923  0.104405  0.429505
    N   N1   0.010005  0.007143  0.143777  -0.127896
    C   C2   0.921446  0.071412  0.127677  0.453751
    C   C3   0.917690  0.070044  0.070040  -0.124680
    C   C4   0.009054  0.004218  0.028870  0.142956
    C   C5   0.104573  0.939948  0.045636  -0.184043
    C   C6   0.823802  0.134850  0.053475  -0.046883
    C   C7   0.819722  0.133546  0.996037  -0.067442
    C   C8   0.909633  0.067367  0.954680  -0.073220
    C   C9   0.004138  0.003162  0.971178  0.054236
    C   C10  0.093189  0.937832  0.929560  -0.076183
    C   C11  0.190385  0.874384  0.945603  -0.039921
    C   C12  0.200378  0.875822  0.003010  0.018116
    C   C13  0.906224  0.065346  0.896802  0.414348
    N   N2   0.993944  0.000553  0.856444  -0.105360
    C   C14  0.086653  0.937128  0.871918  0.406253
    O   O1   0.170546  0.873941  0.123083  -0.419050
    O   O2   0.837742  0.137396  0.168006  -0.466587
    H   H1   0.751802  0.187181  0.084943  0.135793
    H   H2   0.744850  0.184855  0.984338  0.135938
    O   O3   0.817422  0.129312  0.880571  -0.461605
    O   O4   0.170675  0.872048  0.831041  -0.446235
    H   H3   0.264771  0.825045  0.913002  0.134996
    C   C15  0.111452  0.001081  0.760931  -0.222768
    H   H4   0.213509  0.002230  0.777960  0.179126
    C   C16  0.103561  0.003183  0.703813  0.124314
    C   C17  0.970827  0.005677  0.683337  -0.248044
    C   C18  0.848500  0.001447  0.718749  0.177878
    C   C19  0.857465  0.997180  0.775269  -0.251997
    H   H5   0.761729  0.993362  0.802944  0.173358
    C   C20  0.987827  0.999320  0.796935  0.226824
    C   C21  0.889678  0.008251  0.239344  -0.193723
    H   H6   0.787813  0.007296  0.222133  0.180143
    C   C22  0.896854  0.006651  0.296619  0.099719
    C   C23  0.029342  0.004220  0.317332  -0.234049
    C   C24  0.152186  0.007836  0.282005  0.168252
    C   C25  0.144107  0.011221  0.225346  -0.240681
    H   H7   0.240386  0.014254  0.197660  0.159253
    C   C26  0.014091  0.009158  0.203459  0.194606
    H   H8   0.963253  0.006923  0.638752  0.173930
    H   H9   0.036401  0.003488  0.362018  0.172388
    O   O5   0.636654  0.015682  0.318523  -0.453797
    C   C27  0.765807  0.007708  0.335757  0.492559
    O   O6   0.631901  0.843521  0.343387  -0.509762
    O   O7   0.776915  0.001265  0.389040  -0.421648
    O   O8   0.531645  0.924808  0.431616  -0.433804
    C   C28  0.608292  0.851050  0.399321  0.500505
    Fe  Fe1  0.491140  0.010250  0.382745  1.404520
    O   O9   0.319142  0.975314  0.348190  -0.551056
    O   O10  0.373011  0.061658  0.287449  -0.491496
    C   C29  0.288323  0.013143  0.305642  0.545865
    O   O11  0.468170  0.128952  0.433656  -0.587284
    O   O12  0.294976  0.076426  0.481122  -0.480665
    C   C30  0.364028  0.139573  0.476950  0.605346
    C   C31  0.316790  0.223381  0.518113  0.012083
    C   C32  0.244400  0.293091  0.498677  0.057369
    H   H10  0.232049  0.283774  0.453589  0.047238
    C   C33  0.179980  0.371062  0.536758  -0.407720
    C   C34  0.196160  0.380254  0.594217  0.104168
    H   H11  0.148693  0.440370  0.625111  0.051027
    C   C35  0.269647  0.311537  0.613717  -0.161137
    H   H12  0.277802  0.320752  0.659158  0.155554
    C   C36  0.327878  0.231942  0.576491  0.056776
    N   N3   0.021448  0.515628  0.555437  -0.246516
    N   N4   0.935498  0.578224  0.538554  -0.223781
    C   C37  0.913542  0.568342  0.483121  0.765866
    N   N5   0.980599  0.494441  0.445018  -0.248222
    N   N6   0.066549  0.431844  0.461901  -0.224706
    C   C38  0.088498  0.441725  0.517335  0.768646
    C   C39  0.805739  0.629802  0.406257  0.102264
    H   H13  0.853285  0.569711  0.375350  0.050166
    C   C40  0.732060  0.698490  0.386782  -0.162827
    H   H14  0.723858  0.689273  0.341345  0.154900
    C   C41  0.673687  0.778053  0.424027  0.056558
    C   C42  0.684861  0.786601  0.482396  0.008107
    C   C43  0.757459  0.716924  0.501807  0.058168
    H   H15  0.769825  0.726237  0.546893  0.047667
    C   C44  0.821979  0.638987  0.463710  -0.403384
    O   O13  0.681483  0.034380  0.652681  -0.543406
    O   O14  0.627216  0.947999  0.713360  -0.486590
    C   C45  0.712092  0.996459  0.695221  0.537875
    O   O15  0.532870  0.880943  0.566734  -0.587411
    O   O16  0.706562  0.933512  0.519588  -0.482654
    C   C46  0.637395  0.870362  0.523589  0.610598
    O   O17  0.368875  0.166377  0.657144  -0.507252
    O   O18  0.363644  0.993995  0.681834  -0.441363
    C   C47  0.234378  0.002455  0.664673  0.479227
    O   O19  0.469856  0.085203  0.568963  -0.432816
    C   C48  0.392989  0.158920  0.601227  0.498730
    O   O20  0.223063  0.009398  0.611490  -0.418626
    Fe  Fe2  0.509658  0.999634  0.617791  1.397664
    C   C49  0.321044  0.812308  0.015358  0.402790
    H   H16  0.377480  0.828792  0.051987  0.018243
    O   O21  0.367418  0.742542  0.981511  -0.407873
