# Generated by REPEAT Assigner based on pymatgen
data_DB0-m3_o16_o500_f0_fsc.sym.8
_audit_creation_date              2022-05-24
_audit_creation_method            REPEAT_Assigner
_cell_length_a                    8.541356
_cell_length_b                    11.284342
_cell_length_c                    12.045685
_cell_angle_alpha                 107.004854
_cell_angle_beta                  90.079826
_cell_angle_gamma                 107.956725
_cell_volume                      1050.803787
_symmetry_space_group_name_H-M    P1
_symmetry_Int_Tables_number       1
loop_
    _symmetry_equiv_pos_site_id
    _symmetry_equiv_pos_as_xyz
    1  x,y,z
loop_
    _atom_site_type_symbol
    _atom_site_label
    _atom_site_fract_x
    _atom_site_fract_y
    _atom_site_fract_z
    _atom_type_partial_charge
    C   C1   0.572248  0.681736  0.985171  -0.124228
    C   C2   0.739332  0.746357  0.999372  -0.131757
    C   C3   0.797329  0.880643  0.024231  0.061124
    C   C4   0.686507  0.949813  0.052998  -0.011983
    H   H1   0.729910  0.055553  0.081390  0.079592
    C   C5   0.519938  0.884244  0.052858  -0.221358
    C   C6   0.461839  0.749243  0.013690  -0.034724
    C   C7   0.973613  0.946517  0.018226  -0.170489
    C   C8   0.023065  0.054238  0.984753  -0.232008
    H   H2   0.063324  0.903067  0.036539  0.108141
    H   H3   0.933155  0.097508  0.966405  0.149757
    C   C9   0.256919  0.253987  0.001007  -0.198615
    C   C10  0.424086  0.318585  0.013988  -0.179517
    C   C11  0.534746  0.251015  0.986781  0.021246
    C   C12  0.476717  0.116010  0.949590  -0.205047
    C   C13  0.310206  0.050714  0.950109  -0.080737
    H   H4   0.267002  0.945005  0.922911  0.106223
    C   C14  0.199245  0.119916  0.978076  0.161883
    H   H5   0.527901  0.576549  0.957822  0.111981
    H   H6   0.435499  0.938703  0.081191  0.115826
    H   H7   0.468321  0.423725  0.039960  0.157652
    H   H8   0.561176  0.061366  0.922205  0.112629
    O   O1   0.229757  0.662369  0.109046  -0.719936
    O   O2   0.207787  0.600651  0.908251  -0.742619
    C   C15  0.287956  0.673233  0.010499  0.854071
    O   O3   0.104306  0.340319  0.899748  -0.726292
    O   O4   0.117960  0.400809  0.101247  -0.744761
    C   C16  0.146677  0.330095  0.000709  0.958204
    O   O5   0.767046  0.337248  0.890859  -0.621475
    O   O6   0.789481  0.398678  0.092508  -0.721430
    C   C17  0.708921  0.326746  0.989849  0.754472
    O   O7   0.891404  0.659536  0.100139  -0.738076
    O   O8   0.876863  0.598667  0.899441  -0.726086
    C   C18  0.849046  0.669986  0.999587  0.922911
    Zn  Zn1  0.985823  0.458786  0.869498  1.044221
    Zn  Zn2  0.010531  0.541536  0.130376  1.032807
    C   C19  0.089720  0.760179  0.459778  -0.202622
    H   H9   0.096306  0.787578  0.292500  0.160114
    H   H10  0.123963  0.820647  0.684320  0.119129
    H   H11  0.129272  0.864056  0.505378  0.143511
    N   N1   0.022992  0.588684  0.283104  0.167166
    C   C20  0.921761  0.281974  0.662010  0.398324
    C   C21  0.899784  0.232953  0.542612  -0.246594
    C   C22  0.928695  0.315374  0.475673  -0.068297
    C   C23  0.980980  0.449765  0.528719  -0.041860
    C   C24  0.003720  0.496926  0.650958  0.150519
    C   C25  0.010166  0.538110  0.462946  0.110883
    C   C26  0.060353  0.670949  0.520701  0.204757
    C   C27  0.083314  0.716513  0.639757  -0.219039
    C   C28  0.056514  0.631617  0.704013  -0.114806
    C   C29  0.991921  0.499062  0.340891  -0.235185
    C   C30  0.070780  0.717415  0.340376  -0.139706
    N   N2   0.973637  0.412485  0.716199  -0.136843
    H   H12  0.955272  0.398229  0.288501  0.182888
    H   H13  0.907253  0.269441  0.382981  0.138364
    H   H14  0.857751  0.128225  0.500855  0.131916
    H   H15  0.080408  0.677605  0.795612  0.178115
    O   O9   0.887591  0.195865  0.725080  -0.452077
    H   H16  0.972340  0.151523  0.707767  0.349743
