# Generated by REPEAT Assigner based on pymatgen
data_DB0-m2_o11_o12_f0_pcu.sym.64
_audit_creation_date              2022-05-24
_audit_creation_method            REPEAT_Assigner
_cell_length_a                    11.105573
_cell_length_b                    11.020773
_cell_length_c                    9.556272
_cell_angle_alpha                 90.020487
_cell_angle_beta                  102.113860
_cell_angle_gamma                 89.995046
_cell_volume                      1143.566769
_symmetry_space_group_name_H-M    P1
_symmetry_Int_Tables_number       1
loop_
    _symmetry_equiv_pos_site_id
    _symmetry_equiv_pos_as_xyz
    1  x,y,z
loop_
    _atom_site_type_symbol
    _atom_site_label
    _atom_site_fract_x
    _atom_site_fract_y
    _atom_site_fract_z
    _atom_type_partial_charge
    O   O1   0.499520  0.315232  0.610296  -0.587394
    O   O2   0.491791  0.316378  0.367785  -0.606804
    C   C1   0.497552  0.259126  0.489377  0.679825
    O   O3   0.309175  0.479574  0.561500  -0.584764
    O   O4   0.310906  0.491244  0.321710  -0.570831
    C   C2   0.252214  0.483463  0.427392  0.747163
    Cu  Cu1  0.487143  0.490834  0.629230  0.906681
    Cu  Cu2  0.490500  0.493063  0.350121  0.954176
    O   O5   0.483943  0.667298  0.610537  -0.634180
    O   O6   0.480168  0.668984  0.369284  -0.634080
    O   O7   0.666413  0.494263  0.657232  -0.583001
    O   O8   0.668795  0.502882  0.418142  -0.607335
    C   C3   0.480456  0.724912  0.490095  0.770254
    C   C4   0.725903  0.502929  0.552856  0.702639
    H   H1   0.871631  0.460019  0.375307  0.135434
    H   H2   0.111587  0.480497  0.614016  0.048648
    C   C5   0.116826  0.481561  0.396864  -0.495828
    C   C6   0.058097  0.482183  0.505722  0.198187
    C   C7   0.862131  0.510671  0.585938  -0.154955
    C   C8   0.922462  0.483762  0.481309  -0.200311
    H   H3   0.065349  0.483300  0.287146  0.220961
    C   C9   0.485259  0.924097  0.377572  -0.001782
    C   C10  0.477973  0.857822  0.493097  -0.313034
    H   H4   0.489471  0.878496  0.278256  0.107258
    H   H5   0.470151  0.899090  0.593246  0.161146
    C   C11  0.485628  0.058417  0.375702  -0.050507
    C   C12  0.500694  0.126311  0.494096  -0.300744
    H   H6   0.474741  0.102517  0.272498  0.130606
    H   H7   0.515193  0.086083  0.599240  0.182915
    C   C13  0.421829  0.414000  0.903112  0.076795
    N   N1   0.481829  0.488276  0.837549  -0.338641
    H   H8   0.505575  0.569132  0.889634  0.227651
    C   C14  0.409001  0.440875  0.051812  0.128813
    N   N2   0.494342  0.494864  0.141683  -0.344155
    H   H9   0.328973  0.409590  0.088625  0.059169
    H   H10  0.576240  0.508527  0.110036  0.252024
    C   C15  0.935198  0.551824  0.730384  0.014916
    C   C16  0.860487  0.610932  0.828458  0.195159
    C   C17  0.946333  0.677192  0.948539  -0.336825
    H   H11  0.017819  0.613838  0.005082  0.052459
    H   H12  0.990817  0.754409  0.904762  0.070458
    H   H13  0.892529  0.712529  0.025264  0.073067
    H   H14  0.794958  0.677911  0.768187  0.001832
    H   H15  0.811561  0.540485  0.877826  -0.013914
    H   H16  0.986283  0.473460  0.786847  0.045059
    H   H17  0.002090  0.621532  0.711807  0.035364
    C   C18  0.369850  0.296838  0.833516  0.052177
    C   C19  0.290785  0.227057  0.918143  0.062661
    C   C20  0.245040  0.110849  0.839743  -0.261980
    H   H18  0.189063  0.132438  0.732276  0.050276
    H   H19  0.324378  0.053297  0.828480  0.060374
    H   H20  0.187211  0.060639  0.901749  0.069550
    H   H21  0.345768  0.202421  0.025138  0.011447
    H   H22  0.209493  0.282162  0.928356  0.012460
    H   H23  0.311957  0.315059  0.726993  0.075449
    H   H24  0.447707  0.236814  0.824138  0.048011
