# Generated by REPEAT Assigner based on pymatgen
data_DB0-m3_o1490_o156_f0_fsc.sym.17_sqe
_audit_creation_date              2022-05-24
_audit_creation_method            REPEAT_Assigner
_cell_length_a                    8.503656
_cell_length_b                    10.728018
_cell_length_c                    17.479176
_cell_angle_alpha                 97.777038
_cell_angle_beta                  90.110414
_cell_angle_gamma                 90.008357
_cell_volume                      1579.909467
_symmetry_space_group_name_H-M    P1
_symmetry_Int_Tables_number       1
loop_
    _symmetry_equiv_pos_site_id
    _symmetry_equiv_pos_as_xyz
    1  x,y,z
loop_
    _atom_site_type_symbol
    _atom_site_label
    _atom_site_fract_x
    _atom_site_fract_y
    _atom_site_fract_z
    _atom_type_partial_charge
    C   C1   0.997015  0.693683  0.040733  -0.019454
    C   C2   0.137469  0.747642  0.025179  -0.277867
    C   C3   0.140584  0.865578  0.003191  0.368985
    C   C4   0.858317  0.752723  0.027482  -0.378373
    C   C5   0.860466  0.876613  0.012896  0.696794
    C   C6   0.003087  0.936685  0.005018  -0.493782
    C   C7   0.003117  0.063110  0.994070  0.500509
    C   C8   0.140881  0.133124  0.995519  -0.369703
    C   C9   0.138922  0.251825  0.974720  -0.147063
    N   N1   0.724095  0.938211  0.006635  -0.677938
    C   C10  0.721778  0.059466  0.994329  0.385533
    C   C11  0.860758  0.123984  0.987569  -0.272140
    C   C12  0.859420  0.248804  0.974061  -0.229259
    C   C13  0.998496  0.307286  0.960631  0.284022
    H   H1   0.995031  0.597817  0.053084  0.155531
    H   H2   0.251213  0.101918  0.016107  0.193604
    H   H3   0.609836  0.105252  0.989178  0.023175
    O   O1   0.329025  0.632754  0.947109  -0.633330
    O   O2   0.333081  0.626805  0.078835  -0.703660
    C   C14  0.277628  0.669349  0.017223  0.818724
    O   O3   0.330965  0.366453  0.052808  -0.718507
    O   O4   0.335106  0.372114  0.921005  -0.757869
    C   C15  0.280076  0.329213  0.982564  0.931246
    O   O5   0.669513  0.367645  0.053281  -0.681508
    O   O6   0.664636  0.373093  0.921966  -0.719959
    C   C16  0.718845  0.328284  0.982961  0.886514
    O   O7   0.667562  0.634731  0.948360  -0.679732
    O   O8   0.662619  0.629556  0.079736  -0.729217
    C   C17  0.716420  0.674698  0.018790  0.894446
    Zn  Zn1  0.499391  0.494825  0.085322  1.028795
    Zn  Zn2  0.499427  0.505968  0.915452  1.012005
    C   C18  0.519725  0.382985  0.215416  -0.259068
    N   N2   0.499090  0.491041  0.185307  0.151678
    C   C19  0.481086  0.601147  0.231677  -0.254351
    C   C20  0.543170  0.273788  0.325980  -0.376301
    C   C21  0.521087  0.383815  0.294566  0.280091
    C   C22  0.500245  0.495462  0.342403  -0.109240
    C   C23  0.479767  0.604791  0.310766  0.264025
    C   C24  0.457997  0.717306  0.358046  -0.365239
    C   C25  0.566801  0.166499  0.436923  -0.242062
    C   C26  0.543962  0.276100  0.405201  0.236727
    C   C27  0.522059  0.388205  0.452844  -0.033783
    C   C28  0.566745  0.168987  0.516015  -0.197420
    C   C29  0.543668  0.281017  0.563574  0.207599
    C   C30  0.500312  0.497962  0.421394  0.030579
    C   C31  0.478614  0.610234  0.468853  -0.006702
    C   C32  0.456833  0.719916  0.437200  0.211585
    C   C33  0.433791  0.831949  0.484761  -0.199597
    C   C34  0.521971  0.390710  0.531923  0.001331
    C   C35  0.500256  0.502979  0.579382  0.024154
    C   C36  0.478553  0.612741  0.547933  -0.029713
    C   C37  0.456637  0.724843  0.595577  0.230126
    C   C38  0.433796  0.834444  0.563855  -0.234913
    C   C39  0.542310  0.283603  0.642725  -0.355436
    C   C40  0.520441  0.396106  0.690005  0.236210
    C   C41  0.500160  0.505459  0.658372  -0.104100
    C   C42  0.479267  0.617094  0.706213  0.298491
    C   C43  0.457342  0.727142  0.674798  -0.371681
    C   C44  0.518702  0.399691  0.769087  -0.211356
    N   N3   0.500443  0.509764  0.815468  0.163920
    C   C45  0.480296  0.617879  0.785362  -0.305111
    H   H4   0.535253  0.295603  0.177475  0.167800
    H   H5   0.559980  0.185954  0.288625  0.169750
    H   H6   0.441391  0.803255  0.333115  0.160025
    H   H7   0.584948  0.078430  0.400002  0.146590
    H   H8   0.585120  0.082892  0.540512  0.136245
    H   H9   0.415355  0.918037  0.460265  0.136113
    H   H10  0.415634  0.922510  0.600775  0.144145
    H   H11  0.558772  0.197633  0.667652  0.157855
    H   H12  0.440475  0.814968  0.712154  0.168400
    H   H13  0.464666  0.705247  0.823304  0.206469
    H   H14  0.467531  0.687383  0.206814  0.192858
    H   H15  0.531890  0.313394  0.793915  0.173024
    F   F1   0.996760  0.427598  0.945270  -0.136929
    F   F2   0.277078  0.902555  0.973525  -0.193314
