# Generated by REPEAT Assigner based on pymatgen
data_DB0-m3_o52_o14_f0_fsc.sym.39
_audit_creation_date              2022-05-24
_audit_creation_method            REPEAT_Assigner
_cell_length_a                    9.300560
_cell_length_b                    8.552135
_cell_length_c                    14.992337
_cell_angle_alpha                 90.000000
_cell_angle_beta                  91.026064
_cell_angle_gamma                 90.000000
_cell_volume                      1192.293980
_symmetry_space_group_name_H-M    P1
_symmetry_Int_Tables_number       1
loop_
    _symmetry_equiv_pos_site_id
    _symmetry_equiv_pos_as_xyz
    1  x,y,z
loop_
    _atom_site_type_symbol
    _atom_site_label
    _atom_site_fract_x
    _atom_site_fract_y
    _atom_site_fract_z
    _atom_type_partial_charge
    H   H1   0.041270  0.999761  0.561410  0.177547
    C   C1   0.015123  0.139541  0.676144  0.026349
    C   C2   0.015124  0.859980  0.676143  0.026291
    C   C3   0.008096  0.140432  0.767928  0.085574
    C   C4   0.008096  0.859088  0.767928  0.085307
    H   H2   0.004633  0.250997  0.802695  0.023444
    H   H3   0.004632  0.748523  0.802694  0.023528
    C   C5   0.010098  0.999760  0.814318  -0.477519
    C   C6   0.026548  0.999761  0.632050  -0.263410
    N   N1   0.020334  0.863770  0.957139  -0.331886
    N   N2   0.020335  0.135750  0.957139  -0.332136
    N   N3   0.027071  0.863771  0.045295  -0.301187
    N   N4   0.027073  0.135749  0.045295  -0.300691
    C   C7   0.030874  0.999760  0.090380  0.801028
    C   C8   0.015939  0.999760  0.912068  0.860302
    C   C9   0.021769  0.140092  0.234345  0.022729
    C   C10  0.021771  0.859427  0.234345  0.022664
    H   H4   0.034759  0.250623  0.200505  0.028283
    H   H5   0.034762  0.748897  0.200505  0.028569
    C   C11  0.993892  0.138927  0.324350  -0.098944
    C   C12  0.993893  0.860591  0.324350  -0.099275
    C   C13  0.968975  0.999759  0.366460  -0.040271
    H   H6   0.939090  0.999758  0.435139  0.068388
    C   C14  0.026672  0.999760  0.188006  -0.356127
    O   O1   0.133334  0.667954  0.589422  -0.689634
    O   O2   0.133333  0.331567  0.589423  -0.689175
    O   O3   0.883342  0.662747  0.597161  -0.557760
    O   O4   0.883341  0.336774  0.597161  -0.557466
    C   C15  0.010834  0.717130  0.622452  0.714033
    C   C16  0.010834  0.282391  0.622453  0.713320
    O   O5   0.877602  0.670099  0.412553  -0.743393
    O   O6   0.877601  0.329420  0.412553  -0.743864
    O   O7   0.122648  0.664427  0.404551  -0.750830
    O   O8   0.122647  0.335091  0.404552  -0.750938
    C   C17  0.997615  0.719455  0.378998  0.922136
    C   C18  0.997614  0.280063  0.378999  0.922335
    Zn  Zn1  0.843414  0.499760  0.502633  0.956696
    Zn  Zn2  0.164796  0.499759  0.497623  1.079877
    C   C19  0.651778  0.499761  0.339101  -0.151717
    H   H7   0.763867  0.499760  0.329739  0.154276
    C   C20  0.579588  0.499763  0.258812  -0.108475
    H   H8   0.638777  0.499764  0.197411  0.128633
    C   C21  0.434067  0.499762  0.256239  -0.042499
    H   H9   0.376576  0.499762  0.192932  0.100833
    C   C22  0.360432  0.499759  0.334161  -0.195904
    H   H10  0.247861  0.499757  0.323372  0.209815
    C   C23  0.430194  0.499760  0.417705  0.083295
    C   C24  0.580552  0.499760  0.421067  0.207243
    N   N5   0.653560  0.499760  0.501648  -0.099536
    C   C25  0.575331  0.499759  0.577095  0.073651
    H   H11  0.367354  0.499758  0.634356  0.111947
    C   C26  0.426396  0.499759  0.572919  -0.090974
    N   N6   0.354157  0.499759  0.494357  0.036454
    C   C27  0.643293  0.499759  0.665659  0.216497
    C   C28  0.663937  0.360295  0.710411  -0.175151
    C   C29  0.714893  0.360219  0.797354  -0.286867
    C   C30  0.741537  0.499759  0.840606  0.423251
    F   F1   0.790682  0.499759  0.926236  -0.226004
    C   C31  0.714894  0.639299  0.797353  -0.286976
    C   C32  0.663937  0.639222  0.710411  -0.174663
    H   H12  0.639890  0.250830  0.677305  0.124922
    H   H13  0.732266  0.250748  0.831943  0.169619
    H   H14  0.732267  0.748770  0.831942  0.169665
    H   H15  0.639892  0.748688  0.677304  0.124772
