# Generated by REPEAT Assigner based on pymatgen
data_DB0-m3_o18_o23_f0_pcu.sym.1_sqe
_audit_creation_date              2022-05-24
_audit_creation_method            REPEAT_Assigner
_cell_length_a                    14.850049
_cell_length_b                    16.029293
_cell_length_c                    15.953575
_cell_angle_alpha                 89.973926
_cell_angle_beta                  103.592993
_cell_angle_gamma                 86.041235
_cell_volume                      3681.800319
_symmetry_space_group_name_H-M    P1
_symmetry_Int_Tables_number       1
loop_
    _symmetry_equiv_pos_site_id
    _symmetry_equiv_pos_as_xyz
    1  x,y,z
loop_
    _atom_site_type_symbol
    _atom_site_label
    _atom_site_fract_x
    _atom_site_fract_y
    _atom_site_fract_z
    _atom_type_partial_charge
    O   O1   0.382406  0.605115  0.474662  -0.650341
    O   O2   0.535507  0.637566  0.507926  -0.640808
    C   C1   0.446150  0.659609  0.488591  0.706692
    O   O3   0.423817  0.483609  0.608422  -0.722856
    O   O4   0.577163  0.516019  0.641654  -0.714290
    C   C2   0.500593  0.499761  0.663994  0.933610
    Zn  Zn1  0.398958  0.478531  0.478176  1.056874
    Zn  Zn2  0.600937  0.521482  0.521882  1.051944
    O   O5   0.464386  0.362446  0.492129  -0.641616
    O   O6   0.617489  0.394898  0.525393  -0.648308
    O   O7   0.422730  0.483991  0.358404  -0.716737
    O   O8   0.576079  0.516402  0.391636  -0.723503
    C   C3   0.553744  0.340404  0.511473  0.705482
    C   C4   0.499300  0.500255  0.336064  0.936796
    C   C5   0.404047  0.528298  0.931367  -0.126103
    C   C6   0.569587  0.559159  0.968065  -0.135732
    C   C7   0.564023  0.563833  0.061514  -0.109066
    H   H1   0.375259  0.583246  0.046333  0.028647
    H   H2   0.386505  0.593959  0.908102  0.018668
    H   H3   0.640715  0.536013  0.964601  0.020243
    H   H4   0.553615  0.622361  0.937701  0.028485
    H   H5   0.536901  0.627454  0.074697  0.018590
    H   H6   0.634337  0.550616  0.103882  0.016292
    C   C8   0.499178  0.500230  0.246107  -0.234496
    C   C9   0.500273  0.499920  0.921040  0.642755
    C   C10  0.402153  0.522351  0.025645  -0.128360
    C   C11  0.499623  0.500087  0.079019  0.664297
    C   C12  0.533078  0.413976  0.054835  -0.176901
    C   C13  0.526799  0.412401  0.958751  -0.085730
    C   C14  0.499293  0.500178  0.170615  -0.362488
    C   C15  0.500602  0.499831  0.829444  -0.364242
    C   C16  0.500717  0.499781  0.753952  -0.231833
    H   H7   0.473450  0.369821  0.927666  0.015522
    H   H8   0.594925  0.389430  0.947175  0.023069
    H   H9   0.489329  0.366387  0.071911  0.038015
    H   H10  0.352224  0.487988  0.893175  0.022395
    H   H11  0.355947  0.473356  0.034736  0.018625
    H   H12  0.606169  0.399407  0.090375  0.029199
    C   C17  0.415925  0.749117  0.482224  -0.090057
    C   C18  0.583969  0.250895  0.517836  -0.091775
    C   C19  0.294557  0.857287  0.456459  -0.285543
    C   C20  0.322606  0.773758  0.462438  -0.043787
    C   C21  0.480691  0.808924  0.496004  -0.123323
    C   C22  0.453183  0.894417  0.490146  -0.001585
    C   C23  0.358888  0.916896  0.470084  0.283728
    C   C24  0.516437  0.957772  0.503571  0.058901
    C   C25  0.483457  0.042240  0.496479  0.058831
    C   C26  0.387812  0.061249  0.476080  -0.165907
    C   C27  0.327197  0.999412  0.463263  -0.280660
    C   C28  0.612082  0.938763  0.523964  -0.165935
    C   C29  0.672697  0.000600  0.536779  -0.282319
    C   C30  0.641006  0.083116  0.529964  0.285146
    C   C31  0.546711  0.105595  0.509908  -0.002149
    C   C32  0.705337  0.142726  0.543589  -0.286843
    C   C33  0.677287  0.226255  0.537615  -0.043283
    C   C34  0.519203  0.191088  0.504058  -0.123042
    H   H13  0.253421  0.016593  0.447540  0.133687
    H   H14  0.447745  0.214108  0.488909  0.093456
    H   H15  0.729350  0.271464  0.548617  0.091050
    H   H16  0.746473  0.983419  0.552497  0.134430
    H   H17  0.221120  0.875975  0.440863  0.130860
    H   H18  0.270544  0.728548  0.451435  0.091226
    H   H19  0.552149  0.785904  0.511165  0.092949
    H   H20  0.355570  0.123622  0.469104  0.140365
    H   H21  0.644324  0.876391  0.530932  0.140695
    H   H22  0.778774  0.124037  0.559180  0.131329
    N   N1   0.733630  0.549922  0.550509  -0.029964
    N   N2   0.266274  0.450059  0.449497  -0.032330
    C   C35  0.850631  0.630401  0.627837  -0.255342
    C   C36  0.760144  0.609646  0.608147  -0.012612
    C   C37  0.794251  0.509436  0.511024  -0.107717
    C   C38  0.887320  0.528474  0.528801  0.030369
    C   C39  0.913972  0.590043  0.588271  0.273370
    C   C40  0.953973  0.488508  0.489359  0.032585
    C   C41  0.045926  0.511473  0.510633  0.035620
    C   C42  0.068991  0.573923  0.570948  -0.106250
    C   C43  0.003793  0.612198  0.608851  -0.270746
    C   C44  0.930908  0.426062  0.429041  -0.105175
    C   C45  0.996108  0.387788  0.391137  -0.269895
    C   C46  0.085930  0.409940  0.411720  0.271746
    C   C47  0.112579  0.471507  0.471193  0.029655
    C   C48  0.149276  0.369585  0.372157  -0.254795
    C   C49  0.239765  0.390338  0.391855  -0.014235
    C   C50  0.205649  0.490541  0.488979  -0.105080
    H   H23  0.024049  0.660462  0.655403  0.152191
    H   H24  0.233341  0.537155  0.534156  0.158914
    H   H25  0.289633  0.358499  0.361111  0.139736
    H   H26  0.975851  0.339527  0.344581  0.152314
    H   H27  0.871595  0.678606  0.674282  0.143819
    H   H28  0.710280  0.641486  0.638894  0.137966
    H   H29  0.766559  0.462815  0.465854  0.159457
    H   H30  0.137226  0.595860  0.591348  0.129039
    H   H31  0.862671  0.404129  0.408637  0.130178
    H   H32  0.128315  0.321381  0.325709  0.143940
