# Generated by REPEAT Assigner based on pymatgen
data_DB0-m3_o27_o38_f0_fsc
_audit_creation_date              2022-05-24
_audit_creation_method            REPEAT_Assigner
_cell_length_a                    8.562808
_cell_length_b                    15.195206
_cell_length_c                    18.132118
_cell_angle_alpha                 90.000000
_cell_angle_beta                  90.000000
_cell_angle_gamma                 90.000000
_cell_volume                      2359.235862
_symmetry_space_group_name_H-M    P1
_symmetry_Int_Tables_number       1
loop_
    _symmetry_equiv_pos_site_id
    _symmetry_equiv_pos_as_xyz
    1  x,y,z
loop_
    _atom_site_type_symbol
    _atom_site_label
    _atom_site_fract_x
    _atom_site_fract_y
    _atom_site_fract_z
    _atom_type_partial_charge
    O   O1   0.832028  0.915771  0.066565  -0.783973
    O   O2   0.167972  0.084229  0.933435  -0.783976
    O   O3   0.165615  0.097490  0.058185  -0.750066
    O   O4   0.834385  0.902510  0.941815  -0.750063
    O   O5   0.832028  0.084229  0.933435  -0.783974
    O   O6   0.167972  0.915771  0.066565  -0.783975
    O   O7   0.165615  0.902510  0.941815  -0.750064
    O   O8   0.834385  0.097490  0.058185  -0.750064
    C   C1   0.500000  0.867142  0.017658  -0.191823
    C   C2   0.500000  0.132858  0.982342  -0.191846
    C   C3   0.780907  0.877369  0.006375  0.917349
    C   C4   0.219093  0.122631  0.993625  0.917347
    C   C5   0.780907  0.122631  0.993625  0.917348
    C   C6   0.219093  0.877369  0.006375  0.917348
    C   C7   0.500000  0.545126  0.065856  -0.161500
    C   C8   0.500000  0.454874  0.934144  -0.161506
    C   C9   0.500000  0.454161  0.065731  -0.140724
    C   C10  0.500000  0.545839  0.934269  -0.140719
    H   H1   0.500000  0.936973  0.026299  0.151937
    H   H2   0.500000  0.063027  0.973701  0.151946
    C   C11  0.639325  0.823812  0.009807  0.001413
    C   C12  0.360675  0.176188  0.990193  0.001428
    C   C13  0.639325  0.176188  0.990193  0.001428
    C   C14  0.360675  0.823812  0.009807  0.001413
    C   C15  0.640218  0.733349  0.001967  -0.354993
    C   C16  0.359782  0.266651  0.998033  -0.354998
    C   C17  0.640218  0.266651  0.998033  -0.354999
    C   C18  0.359782  0.733349  0.001967  -0.354993
    H   H3   0.749694  0.698255  0.997906  0.122635
    H   H4   0.250306  0.301745  0.002094  0.122635
    H   H5   0.749694  0.301745  0.002094  0.122635
    H   H6   0.250306  0.698255  0.997906  0.122635
    Zn  Zn1  0.000000  0.992577  0.917522  1.152702
    Zn  Zn2  0.000000  0.007423  0.082478  1.152707
    H   H7   0.500000  0.580395  0.117628  0.104626
    H   H8   0.500000  0.419605  0.882372  0.104628
    H   H9   0.500000  0.418532  0.117330  0.097704
    H   H10  0.500000  0.581468  0.882670  0.097702
    C   C19  0.000000  0.067639  0.771181  -0.106272
    C   C20  0.000000  0.932361  0.228819  -0.106267
    C   C21  0.000000  0.913732  0.768351  -0.155635
    C   C22  0.000000  0.086268  0.231649  -0.155628
    H   H11  0.000000  0.128094  0.802611  0.148173
    H   H12  0.000000  0.871906  0.197389  0.148172
    H   H13  0.000000  0.851621  0.797404  0.157798
    H   H14  0.000000  0.148379  0.202596  0.157797
    C   C23  0.000000  0.071114  0.695191  0.158763
    C   C24  0.000000  0.928886  0.304809  0.158762
    C   C25  0.000000  0.914784  0.692084  0.189312
    C   C26  0.000000  0.085216  0.307916  0.189306
    H   H15  0.000000  0.134481  0.668148  0.026102
    H   H16  0.000000  0.865519  0.331852  0.026101
    H   H17  0.000000  0.853196  0.662305  0.023121
    H   H18  0.000000  0.146804  0.337695  0.023121
    C   C27  0.000000  0.994159  0.654806  -0.494519
    C   C28  0.000000  0.005841  0.345194  -0.494517
    C   C29  0.500000  0.408785  0.999823  0.063853
    C   C30  0.500000  0.591215  0.000177  0.063850
    N   N1   0.000000  0.989733  0.806555  0.076732
    N   N2   0.000000  0.010267  0.193445  0.076725
    N   N3   0.000000  0.922066  0.534423  -0.330738
    N   N4   0.000000  0.077934  0.465577  -0.330739
    N   N5   0.000000  0.075040  0.538494  -0.313208
    N   N6   0.000000  0.924960  0.461506  -0.313209
    C   C31  0.000000  0.002896  0.426182  0.890980
    C   C32  0.000000  0.997104  0.573818  0.890978
    C   C33  0.500000  0.687653  0.001070  0.347887
    C   C34  0.500000  0.312347  0.998930  0.347891
