# Generated by REPEAT Assigner based on pymatgen
data_DB0-m1_o41_o17_fsc
_audit_creation_date              2022-05-24
_audit_creation_method            REPEAT_Assigner
_cell_length_a                    16.516304
_cell_length_b                    9.665484
_cell_length_c                    15.386149
_cell_angle_alpha                 98.591455
_cell_angle_beta                  89.741354
_cell_angle_gamma                 89.857583
_cell_volume                      2428.616172
_symmetry_space_group_name_H-M    P1
_symmetry_Int_Tables_number       1
loop_
    _symmetry_equiv_pos_site_id
    _symmetry_equiv_pos_as_xyz
    1  x,y,z
loop_
    _atom_site_type_symbol
    _atom_site_label
    _atom_site_fract_x
    _atom_site_fract_y
    _atom_site_fract_z
    _atom_type_partial_charge
    Zn  Zn1  0.565193  0.361070  0.541469  1.308189
    Zn  Zn2  0.553296  0.664605  0.527312  1.300137
    Zn  Zn3  0.456676  0.465932  0.391485  1.346596
    Zn  Zn4  0.403784  0.505017  0.584434  1.339280
    O   O1   0.494549  0.498311  0.510006  -1.602760
    O   O2   0.673303  0.418990  0.569998  -0.638473
    O   O3   0.559360  0.746633  0.425262  -0.567266
    O   O4   0.506706  0.297104  0.336066  -0.598680
    O   O5   0.667263  0.649226  0.554688  -0.657827
    O   O6   0.582716  0.222632  0.445995  -0.590613
    O   O7   0.484402  0.612802  0.321862  -0.619592
    O   O8   0.338519  0.445023  0.380871  -0.709182
    O   O9   0.406927  0.380586  0.670120  -0.654407
    O   O10  0.305670  0.457412  0.526326  -0.599121
    O   O11  0.524796  0.263156  0.630790  -0.611746
    O   O12  0.498791  0.802834  0.608174  -0.621836
    O   O13  0.383426  0.687299  0.640925  -0.685422
    C   C1   0.284488  0.440287  0.443829  0.631063
    C   C2   0.427026  0.800837  0.645702  0.652185
    C   C3   0.459732  0.282856  0.680227  0.508460
    C   C4   0.709303  0.539220  0.568926  0.537526
    C   C5   0.558422  0.209663  0.364626  0.576118
    C   C6   0.529520  0.723706  0.346001  0.479077
    H   H1   0.616959  0.420875  0.113929  0.135196
    C   C7   0.458911  0.752084  0.070339  0.154513
    C   C8   0.416988  0.646106  0.020117  -0.157813
    C   C9   0.389110  0.664830  0.938661  -0.222953
    C   C10  0.403350  0.789262  0.907606  0.227884
    C   C11  0.443779  0.895963  0.957816  -0.020065
    C   C12  0.472212  0.876539  0.038754  -0.003794
    C   C13  0.456164  0.021467  0.926823  -0.027570
    C   C14  0.497985  0.127231  0.976275  0.065714
    C   C15  0.527189  0.107292  0.056559  -0.106713
    C   C16  0.514074  0.981956  0.087985  0.035213
    C   C17  0.511822  0.251910  0.945051  0.106101
    C   C18  0.554742  0.357337  0.994226  -0.156199
    C   C19  0.583922  0.337744  0.074665  -0.244216
    C   C20  0.569496  0.213355  0.105349  0.327602
    H   H2   0.405838  0.548268  0.044074  0.120635
    H   H3   0.357387  0.580600  0.898855  0.124975
    H   H4   0.566086  0.454827  0.969920  0.112867
    C   C21  0.448551  0.160352  0.810802  -0.072470
    C   C22  0.433723  0.167394  0.723576  0.199640
    C   C23  0.413311  0.048109  0.668952  -0.284216
    H   H5   0.416652  0.046813  0.598650  0.176973
    C   C24  0.400710  0.925928  0.701383  -0.019107
    C   C25  0.400194  0.924703  0.790341  0.112622
    C   C26  0.432147  0.037597  0.843715  0.058522
    C   C27  0.572621  0.078875  0.221360  0.189323
    C   C28  0.576532  0.080654  0.308833  -0.045493
    C   C29  0.567829  0.961134  0.344181  -0.216653
    H   H6   0.570356  0.972672  0.414794  0.169832
    C   C30  0.542381  0.838546  0.294041  0.055600
    C   C31  0.522736  0.843422  0.205953  0.048229
    C   C32  0.538614  0.965767  0.170892  -0.028024
    C   C33  0.593656  0.197715  0.187468  -0.413244
    C   C34  0.485623  0.733973  0.152733  -0.249143
    C   C35  0.485464  0.269867  0.863128  -0.164599
    C   C36  0.380884  0.804090  0.824200  -0.359791
    H   H7   0.625553  0.282464  0.226620  0.167229
    H   H8   0.474131  0.635219  0.174301  0.174306
    H   H9   0.498460  0.367131  0.839397  0.138275
    H   H10  0.348707  0.718909  0.786824  0.206513
    C   C37  0.837422  0.635058  0.518235  -0.295792
    C   C38  0.797975  0.537489  0.560532  0.174456
    C   C39  0.839863  0.420447  0.577431  -0.319712
    C   C40  0.918963  0.398081  0.549593  0.200247
    C   C41  0.957084  0.492513  0.504445  -0.007416
    C   C42  0.916769  0.611968  0.489795  0.169816
    C   C43  0.959210  0.278866  0.564843  -0.203510
    C   C44  0.037853  0.255259  0.536257  -0.218666
    C   C45  0.076166  0.349820  0.491282  0.256644
    C   C46  0.035579  0.467519  0.474336  -0.053251
    C   C47  0.074565  0.562444  0.430113  0.217403
    C   C48  0.033999  0.681649  0.414928  -0.220135
    C   C49  0.955316  0.706037  0.444347  -0.179476
    C   C50  0.156697  0.331203  0.468592  -0.355917
    C   C51  0.197437  0.428885  0.428302  0.148100
    C   C52  0.155367  0.542574  0.406365  -0.323216
    H   H11  0.804975  0.725057  0.502202  0.166858
    H   H12  0.809881  0.342307  0.609372  0.166672
    H   H13  0.929648  0.204043  0.599907  0.133444
    H   H14  0.069507  0.163077  0.550151  0.134186
    H   H15  0.190275  0.246187  0.489793  0.152241
    H   H16  0.187874  0.623748  0.379698  0.163076
    H   H17  0.063935  0.757373  0.380889  0.129632
    H   H18  0.924305  0.799741  0.432022  0.126913
