# Generated by REPEAT Assigner based on pymatgen
data_DB0-m3_o25_o84_f0_fsc.sym.25
_audit_creation_date              2022-05-24
_audit_creation_method            REPEAT_Assigner
_cell_length_a                    6.584033
_cell_length_b                    12.325787
_cell_length_c                    14.294498
_cell_angle_alpha                 89.898881
_cell_angle_beta                  89.931188
_cell_angle_gamma                 80.308839
_cell_volume                      1143.490186
_symmetry_space_group_name_H-M    P1
_symmetry_Int_Tables_number       1
loop_
    _symmetry_equiv_pos_site_id
    _symmetry_equiv_pos_as_xyz
    1  x,y,z
loop_
    _atom_site_type_symbol
    _atom_site_label
    _atom_site_fract_x
    _atom_site_fract_y
    _atom_site_fract_z
    _atom_type_partial_charge
    C   C1   0.183889  0.246456  0.019422  0.059435
    C   C2   0.820653  0.754048  0.986066  0.067560
    C   C3   0.312639  0.148165  0.037253  -0.424600
    C   C4   0.691929  0.852336  0.968191  -0.426579
    C   C5   0.240375  0.049849  0.030801  0.326252
    C   C6   0.764201  0.950651  0.974629  0.326703
    C   C7   0.370566  0.951924  0.047666  -0.349768
    C   C8   0.634021  0.048576  0.957746  -0.343547
    C   C9   0.298218  0.853608  0.040079  -0.222767
    C   C10  0.706357  0.146894  0.965349  -0.233849
    C   C11  0.979916  0.246094  0.996993  -0.330412
    C   C12  0.024625  0.754412  0.008494  -0.336019
    C   C13  0.909138  0.147314  0.988967  0.234011
    C   C14  0.095424  0.853191  0.016483  0.234831
    C   C15  0.038742  0.049373  0.005966  -0.095163
    C   C16  0.965829  0.951130  0.999471  -0.098146
    H   H1   0.471963  0.148159  0.055030  0.202254
    H   H2   0.532613  0.852341  0.950400  0.204364
    H   H3   0.529452  0.952181  0.066490  0.196066
    H   H4   0.475142  0.048315  0.938910  0.192784
    H   H5   0.400441  0.776801  0.053019  0.206537
    H   H6   0.604133  0.223700  0.952409  0.221257
    O   O1   0.322596  0.379277  0.930529  -0.751723
    O   O2   0.681934  0.621229  0.074970  -0.727112
    O   O3   0.335668  0.387257  0.091693  -0.731148
    O   O4   0.668859  0.613249  0.913802  -0.726417
    C   C17  0.274742  0.346466  0.013914  0.857033
    C   C18  0.729788  0.654040  0.991581  0.829711
    O   O5   0.757383  0.384149  0.079003  -0.739574
    O   O6   0.247148  0.616358  0.926495  -0.740056
    O   O7   0.742431  0.382786  0.917701  -0.723060
    O   O8   0.262099  0.617722  0.087794  -0.730863
    C   C19  0.827792  0.346802  0.997250  0.922634
    C   C20  0.176742  0.653706  0.008245  0.935948
    Zn  Zn1  0.515630  0.503114  0.106939  1.058598
    Zn  Zn2  0.488897  0.497392  0.898558  1.108061
    C   C21  0.363562  0.584991  0.531354  -0.180987
    C   C22  0.640695  0.415497  0.474149  -0.243867
    C   C23  0.557421  0.591343  0.475896  -0.286418
    C   C24  0.446826  0.409149  0.529605  -0.178651
    H   H7   0.251214  0.656252  0.556522  0.087217
    H   H8   0.753045  0.344236  0.448979  0.105586
    H   H9   0.836363  0.515204  0.569949  0.065944
    H   H10  0.167895  0.485292  0.435543  0.080241
    N   N1   0.530452  0.505695  0.229610  0.145276
    N   N2   0.474062  0.494810  0.775889  0.062339
    C   C25  0.318762  0.493198  0.466822  -0.195284
    C   C26  0.685496  0.507294  0.538671  -0.135202
    C   C27  0.513473  0.501164  0.412676  0.888165
    C   C28  0.490786  0.499329  0.592822  0.707874
    C   C29  0.524985  0.504140  0.310500  -0.430516
    C   C30  0.479409  0.496360  0.694997  -0.306803
    C   C31  0.622091  0.696828  0.441859  0.487239
    C   C32  0.819546  0.669627  0.385980  -0.412879
    C   C33  0.454268  0.759067  0.380545  -0.386192
    H   H11  0.647703  0.748443  0.502775  -0.058317
    H   H12  0.793853  0.618065  0.325037  0.107567
    H   H13  0.942444  0.623993  0.430882  0.077021
    H   H14  0.866972  0.746895  0.361084  0.110915
    H   H15  0.428524  0.707451  0.319649  0.105406
    H   H16  0.501674  0.836316  0.355588  0.096238
    H   H17  0.309669  0.779030  0.421499  0.071912
    C   C34  0.382027  0.303697  0.563651  0.476258
    C   C35  0.351190  0.232212  0.480577  -0.397053
    C   C36  0.547839  0.242570  0.626597  -0.371206
    H   H18  0.235689  0.323591  0.603336  -0.063773
    H   H19  0.497526  0.212328  0.440890  0.091304
    H   H20  0.229717  0.276982  0.434475  0.062992
    H   H21  0.303746  0.154965  0.505516  0.106222
    H   H22  0.694195  0.222702  0.586923  0.084264
    H   H23  0.500393  0.165314  0.651515  0.091254
    H   H24  0.570383  0.294921  0.687462  0.082680
