# Generated by REPEAT Assigner based on pymatgen
data_DB0-m3_o11_o15_f0_nbo.sym.59_sqe
_audit_creation_date              2022-05-24
_audit_creation_method            REPEAT_Assigner
_cell_length_a                    19.065693
_cell_length_b                    19.077592
_cell_length_c                    19.179656
_cell_angle_alpha                 109.284496
_cell_angle_beta                  109.768306
_cell_angle_gamma                 109.123761
_cell_volume                      5385.774901
_symmetry_space_group_name_H-M    P1
_symmetry_Int_Tables_number       1
loop_
    _symmetry_equiv_pos_site_id
    _symmetry_equiv_pos_as_xyz
    1  x,y,z
loop_
    _atom_site_type_symbol
    _atom_site_label
    _atom_site_fract_x
    _atom_site_fract_y
    _atom_site_fract_z
    _atom_type_partial_charge
    O   O1   0.404590  0.330536  0.429720  -0.690641
    O   O2   0.400420  0.431936  0.532675  -0.661698
    C   C1   0.375454  0.352361  0.481551  0.668670
    O   O3   0.587976  0.430204  0.524547  -0.672597
    O   O4   0.577720  0.528691  0.623886  -0.657083
    C   C2   0.612062  0.481320  0.603839  0.722734
    Zn  Zn1  0.494829  0.404726  0.413708  1.285823
    Zn  Zn2  0.484790  0.538133  0.543322  1.268581
    O   O5   0.580118  0.510944  0.425309  -0.667059
    O   O6   0.574349  0.612325  0.526521  -0.692103
    O   O7   0.402397  0.414754  0.333106  -0.666483
    O   O8   0.390941  0.511929  0.432600  -0.681249
    C   C3   0.604583  0.590422  0.475634  0.683448
    C   C4   0.367178  0.461048  0.353553  0.719750
    H   H1   0.537820  0.195869  0.559625  0.084482
    C   C5   0.762820  0.638693  0.738479  -0.255573
    C   C6   0.828842  0.716475  0.807370  -0.061966
    C   C7   0.882942  0.720421  0.878920  -0.083602
    C   C8   0.874157  0.646408  0.879957  -0.208668
    C   C9   0.810219  0.566909  0.809086  0.115057
    C   C10  0.750312  0.563234  0.740125  0.178151
    C   C11  0.805574  0.491713  0.806918  -0.174952
    C   C12  0.737397  0.412919  0.737711  0.131234
    C   C13  0.671717  0.409731  0.674202  0.173751
    C   C14  0.679430  0.484732  0.673535  -0.231438
    C   C15  0.734190  0.336636  0.730305  -0.221420
    C   C16  0.663340  0.259281  0.666060  -0.094688
    C   C17  0.594583  0.256593  0.608675  -0.052586
    C   C18  0.598555  0.331006  0.612255  -0.254215
    H   H2   0.723008  0.639679  0.683751  0.172724
    H   H3   0.837223  0.774591  0.805603  0.089452
    H   H4   0.933426  0.781685  0.934018  0.091739
    H   H5   0.918065  0.653576  0.938312  0.154159
    H   H6   0.786395  0.334407  0.772879  0.163089
    H   H7   0.661285  0.200626  0.661732  0.096453
    H   H8   0.542175  0.324735  0.565815  0.168921
    C   C19  0.243775  0.229816  0.554466  -0.078653
    C   C20  0.164497  0.174883  0.488366  -0.160289
    H   H9   0.261814  0.228844  0.613986  0.137303
    H   H10  0.143048  0.181735  0.432208  0.122654
    C   C21  0.304733  0.298444  0.551641  -0.116208
    C   C22  0.312122  0.284129  0.482197  -0.132191
    H   H11  0.348811  0.359735  0.609573  0.145963
    H   H12  0.275183  0.220356  0.427367  0.123518
    C   C23  0.171662  0.472476  0.230768  -0.101519
    C   C24  0.184610  0.498619  0.177483  -0.086579
    H   H13  0.111279  0.455483  0.230129  0.128513
    H   H14  0.247550  0.524172  0.183658  0.102643
    C   C25  0.241165  0.475754  0.297966  -0.047797
    C   C26  0.298231  0.456070  0.284681  -0.204890
    H   H15  0.242599  0.490302  0.358198  0.131664
    H   H16  0.292080  0.432678  0.221995  0.122065
    C   C27  0.743388  0.799554  0.495226  -0.104726
    C   C28  0.820692  0.807493  0.513786  -0.141644
    H   H17  0.727804  0.844544  0.480539  0.139141
    H   H18  0.840485  0.769246  0.537926  0.115368
    C   C29  0.680811  0.735496  0.501464  -0.074091
    C   C30  0.670264  0.656884  0.475243  -0.159509
    H   H19  0.637777  0.750545  0.520402  0.134758
    H   H20  0.706743  0.638973  0.447316  0.127497
    O   O9   0.938906  0.353598  0.914595  -0.696411
    O   O10  0.036150  0.445615  0.896642  -0.661344
    C   C31  0.984303  0.368609  0.877596  0.687888
    O   O11  0.853797  0.452591  0.913581  -0.672154
    O   O12  0.953703  0.540863  0.895321  -0.651837
    C   C32  0.874351  0.495729  0.875830  0.687355
    Zn  Zn3  0.929010  0.436652  0.003998  1.286748
    Zn  Zn4  0.061296  0.558033  0.985709  1.270584
    O   O13  0.954066  0.549087  0.092916  -0.671441
    O   O14  0.051109  0.641101  0.074861  -0.676536
    O   O15  0.036609  0.453455  0.094083  -0.666894
    O   O16  0.136587  0.542153  0.076102  -0.680923
    C   C33  0.005712  0.626053  0.111919  0.737268
    C   C34  0.115795  0.498427  0.113134  0.671127
    O   O17  0.051290  0.078762  0.645621  -0.669332
    O   O18  0.945116  0.082374  0.545472  -0.689032
    C   C35  0.999582  0.108870  0.624684  0.692891
    O   O19  0.131454  0.083266  0.546387  -0.690430
    O   O20  0.020909  0.078134  0.442049  -0.678536
    C   C36  0.102708  0.109046  0.492869  0.708333
    Zn  Zn5  0.065515  0.991125  0.565753  1.284615
    Zn  Zn6  0.920190  0.990066  0.435326  1.290882
    O   O21  0.042497  0.900834  0.455462  -0.674820
    O   O22  0.932744  0.900569  0.355532  -0.685294
    O   O23  0.964631  0.901035  0.556953  -0.685917
    O   O24  0.854286  0.899851  0.456703  -0.691266
    C   C37  0.987019  0.873023  0.376243  0.720527
    C   C38  0.882834  0.872673  0.508789  0.714280
    C   C39  0.979429  0.230513  0.679652  -0.074972
    C   C40  0.004306  0.176469  0.693623  -0.155641
    H   H21  0.958489  0.226410  0.617711  0.136690
    H   H22  0.034685  0.186130  0.757579  0.123944
    C   C41  0.990171  0.302983  0.749469  -0.117619
    C   C42  0.975261  0.295559  0.810489  -0.142561
    H   H23  0.004705  0.361819  0.747246  0.147478
    H   H24  0.951079  0.234324  0.807976  0.124677
    C   C43  0.051984  0.793493  0.322978  -0.067890
    C   C44  0.987099  0.810281  0.306985  -0.198988
    H   H25  0.103463  0.825668  0.388217  0.104671
    H   H26  0.934139  0.780483  0.243280  0.131063
    C   C45  0.059332  0.733096  0.257564  -0.061598
    C   C46  0.007566  0.697720  0.173527  -0.186522
    H   H27  0.958338  0.713130  0.148664  0.125801
    C   C47  0.129635  0.715414  0.288604  0.202352
    C   C48  0.136756  0.684874  0.345192  -0.156608
    C   C49  0.207386  0.676499  0.381435  -0.273131
    C   C50  0.272120  0.700269  0.362479  0.302699
    C   C51  0.350582  0.695363  0.404002  -0.343925
    C   C52  0.265095  0.730742  0.305996  -0.258725
    C   C53  0.194326  0.738651  0.269443  -0.109242
    H   H28  0.087279  0.668104  0.361867  0.125729
    H   H29  0.212254  0.652802  0.425878  0.133972
    H   H30  0.345402  0.668018  0.446009  0.093317
    H   H31  0.407230  0.760451  0.442684  0.078327
    H   H32  0.358832  0.654611  0.354340  0.110841
    H   H33  0.315985  0.750111  0.291587  0.130159
    H   H34  0.191296  0.766039  0.228100  0.102182
