# Generated by REPEAT Assigner based on pymatgen
data_DB0-m3_o146_o22_f0_fsc.sym.93
_audit_creation_date              2022-05-24
_audit_creation_method            REPEAT_Assigner
_cell_length_a                    15.247263
_cell_length_b                    11.887380
_cell_length_c                    9.108708
_cell_angle_alpha                 90.165050
_cell_angle_beta                  89.992754
_cell_angle_gamma                 90.000000
_cell_volume                      1650.946437
_symmetry_space_group_name_H-M    P1
_symmetry_Int_Tables_number       1
loop_
    _symmetry_equiv_pos_site_id
    _symmetry_equiv_pos_as_xyz
    1  x,y,z
loop_
    _atom_site_type_symbol
    _atom_site_label
    _atom_site_fract_x
    _atom_site_fract_y
    _atom_site_fract_z
    _atom_type_partial_charge
    C   C1   0.300367  0.733173  0.997440  -0.033298
    C   C2   0.074925  0.940161  0.995405  -0.162838
    C   C3   0.171809  0.804830  0.115534  -0.149344
    H   H1   0.126320  0.802898  0.206529  0.106976
    C   C4   0.285126  0.804156  0.879981  -0.159982
    H   H2   0.328365  0.803307  0.785939  0.136803
    C   C5   0.244279  0.735711  0.116513  -0.128881
    H   H3   0.254160  0.680012  0.208595  0.113973
    C   C6   0.156552  0.875654  0.998820  0.232512
    C   C7   0.214145  0.876718  0.881893  -0.182719
    H   H4   0.201664  0.930653  0.788861  0.111708
    C   C8   0.299522  0.263803  0.994356  -0.053911
    C   C9   0.073938  0.056156  0.002387  0.088640
    C   C10  0.163458  0.204611  0.890751  -0.241371
    H   H5   0.112739  0.216796  0.809833  0.102476
    C   C11  0.292613  0.180452  0.099237  -0.224104
    H   H6   0.342573  0.171638  0.182608  0.135079
    C   C12  0.235956  0.273276  0.887726  -0.105337
    H   H7   0.240143  0.338408  0.805480  0.105291
    C   C13  0.155367  0.121979  0.996132  0.283916
    C   C14  0.221958  0.107382  0.097453  -0.103270
    H   H8   0.216902  0.043297  0.180948  0.096763
    C   C15  0.692070  0.727872  0.993443  -0.041160
    C   C16  0.917242  0.937387  0.985593  -0.318766
    C   C17  0.827273  0.789573  0.097975  -0.192131
    H   H9   0.876143  0.782454  0.183412  0.155870
    C   C18  0.704710  0.800884  0.877477  -0.097048
    H   H10  0.658338  0.803447  0.787802  0.102674
    C   C19  0.753648  0.722775  0.103904  -0.132530
    H   H11  0.746575  0.663340  0.192689  0.135610
    C   C20  0.837485  0.867963  0.987516  0.316210
    C   C21  0.776613  0.871682  0.875368  -0.257274
    H   H12  0.786867  0.925211  0.781723  0.143209
    C   C22  0.996821  0.882162  0.989133  0.019652
    C   C23  0.689098  0.261888  0.998384  -0.004745
    C   C24  0.915489  0.054170  0.998384  0.370235
    C   C25  0.790784  0.142975  0.872493  0.042770
    H   H13  0.816536  0.111510  0.770060  0.023416
    C   C26  0.729977  0.235889  0.129538  -0.165852
    H   H14  0.705512  0.269809  0.231695  0.109993
    C   C27  0.719904  0.214963  0.869718  -0.230545
    H   H15  0.689987  0.235246  0.765562  0.124874
    C   C28  0.832531  0.117518  0.002932  -0.109387
    C   C29  0.802776  0.166754  0.132062  0.091572
    C   C30  0.994287  0.112251  0.010848  -0.281878
    H   H16  0.998176  0.791645  0.981676  0.060991
    O   O1   0.590068  0.610731  0.120729  -0.644006
    O   O2   0.586647  0.616093  0.867315  -0.646843
    C   C31  0.618028  0.649591  0.994111  0.677130
    O   O3   0.588315  0.382039  0.870197  -0.603957
    O   O4   0.586095  0.377870  0.123227  -0.617790
    C   C32  0.616822  0.343345  0.996652  0.640211
    O   O5   0.399228  0.384326  0.870307  -0.700499
    O   O6   0.403218  0.377866  0.123601  -0.669644
    C   C33  0.371752  0.344697  0.996469  0.757033
    O   O7   0.400522  0.612013  0.121064  -0.636187
    O   O8   0.403466  0.617743  0.867403  -0.611783
    C   C34  0.372717  0.651800  0.994937  0.651701
    Zn  Zn1  0.494491  0.497786  0.831035  0.995494
    Zn  Zn2  0.494798  0.497082  0.159890  0.951999
    C   C35  0.557942  0.416651  0.579450  0.087202
    H   H17  0.538366  0.329387  0.607216  0.020054
    H   H18  0.623774  0.434845  0.625275  0.010043
    C   C36  0.565713  0.426659  0.413816  -0.081022
    H   H19  0.630223  0.463892  0.385478  0.029867
    H   H20  0.561534  0.339544  0.371101  0.059362
    H   H21  0.384519  0.384832  0.618248  0.052300
    H   H22  0.410701  0.358074  0.388637  0.098359
    C   C37  0.408106  0.466045  0.575103  0.121537
    C   C38  0.517407  0.605356  0.579140  0.178727
    N   N1   0.493506  0.495575  0.637226  -0.056913
    H   H23  0.477769  0.672549  0.631247  0.008870
    H   H24  0.587800  0.622388  0.599552  0.014111
    N   N2   0.495406  0.495700  0.353571  0.298115
    C   C39  0.413759  0.449805  0.410117  -0.309107
    C   C40  0.503349  0.609026  0.414563  -0.134190
    H   H25  0.560174  0.653794  0.367572  0.029236
    H   H26  0.443047  0.657872  0.391177  0.044867
    H   H27  0.359639  0.532820  0.600743  0.009087
    H   H28  0.356769  0.491475  0.357728  0.126796
    C   C41  0.847040  0.145311  0.271841  0.011944
    C   C42  0.874705  0.232564  0.361539  0.080529
    Cl  Cl1  0.857276  0.373141  0.311820  -0.070880
    C   C43  0.919206  0.209073  0.489900  -0.253647
    C   C44  0.935376  0.098995  0.529126  0.330283
    Cl  Cl2  0.994834  0.067584  0.687656  -0.155580
    C   C45  0.903793  0.012550  0.443936  -0.196643
    C   C46  0.859198  0.036066  0.316639  -0.135520
    H   H29  0.942871  0.277096  0.558188  0.108537
    H   H30  0.913863  0.926266  0.477071  0.093138
    H   H31  0.831053  0.968848  0.254279  0.098540
    C   C47  0.994879  0.232488  0.045352  0.114272
    C   C48  0.035623  0.268690  0.172471  0.257587
    Cl  Cl3  0.076556  0.171170  0.298763  -0.128452
    C   C49  0.041061  0.381698  0.204115  -0.325651
    C   C50  0.004407  0.459022  0.110332  0.242401
    Cl  Cl4  0.009140  0.601996  0.154665  -0.125132
    C   C51  0.963462  0.423514  0.983366  -0.241514
    C   C52  0.959042  0.310266  0.950376  -0.071801
    H   H32  0.072310  0.409557  0.304344  0.135970
    H   H33  0.935416  0.484479  0.909103  0.125540
    H   H34  0.929759  0.283407  0.848260  0.121074
