# Generated by REPEAT Assigner based on pymatgen
data_DB0-m29_o85_o110_f0_pts.sym.55
_audit_creation_date              2022-05-24
_audit_creation_method            REPEAT_Assigner
_cell_length_a                    13.446251
_cell_length_b                    14.230036
_cell_length_c                    11.020592
_cell_angle_alpha                 96.008125
_cell_angle_beta                  85.725892
_cell_angle_gamma                 98.187718
_cell_volume                      2071.916889
_symmetry_space_group_name_H-M    P1
_symmetry_Int_Tables_number       1
loop_
    _symmetry_equiv_pos_site_id
    _symmetry_equiv_pos_as_xyz
    1  x,y,z
loop_
    _atom_site_type_symbol
    _atom_site_label
    _atom_site_fract_x
    _atom_site_fract_y
    _atom_site_fract_z
    _atom_type_partial_charge
    C   C1   0.190796  0.962806  0.133787  -0.071538
    H   H1   0.203298  0.937612  0.219807  0.138288
    C   C2   0.093613  0.963578  0.104255  -0.152348
    H   H2   0.034127  0.933122  0.165303  0.118692
    C   C3   0.074073  0.003607  0.000829  0.092609
    C   C4   0.155374  0.033714  0.920940  -0.162107
    H   H3   0.144259  0.063100  0.837596  0.133029
    C   C5   0.253302  0.025898  0.946006  -0.011689
    C   C6   0.270786  0.997082  0.057870  -0.047265
    C   C7   0.943180  0.012380  0.855954  -0.132452
    H   H4   0.997282  0.007664  0.779144  0.121172
    C   C8   0.845811  0.016987  0.831027  -0.128255
    H   H5   0.828408  0.017503  0.737025  0.163866
    C   C9   0.769631  0.013194  0.921670  -0.045006
    C   C10  0.791863  0.009682  0.042288  0.036388
    C   C11  0.891711  0.010415  0.067770  -0.184255
    H   H6   0.908878  0.013272  0.162170  0.146285
    C   C12  0.968281  0.009539  0.974726  0.094231
    O   O1   0.623940  0.030520  0.128587  -0.510151
    C   C13  0.712569  0.005769  0.143420  0.522791
    O   O2   0.539945  0.827432  0.197115  -0.408505
    O   O3   0.730328  0.976943  0.248014  -0.507172
    O   O4   0.525393  0.911954  0.379362  -0.475854
    C   C14  0.529099  0.828942  0.316440  0.484936
    Fe  Fe1  0.520051  0.007971  0.263250  1.434561
    O   O5   0.390663  0.956266  0.185772  -0.573627
    O   O6   0.433944  0.087984  0.084245  -0.506121
    C   C15  0.371188  0.010977  0.104671  0.717112
    O   O7   0.533478  0.136260  0.359893  -0.625198
    O   O8   0.363945  0.095246  0.381046  -0.555807
    C   C16  0.444207  0.157124  0.402494  0.630021
    O   O9   0.507439  0.884708  0.624511  -0.630456
    O   O10  0.675732  0.930689  0.598914  -0.577048
    C   C17  0.597163  0.866100  0.580492  0.687821
    O   O11  0.649339  0.062494  0.802654  -0.543475
    O   O12  0.603384  0.928743  0.900261  -0.496134
    C   C18  0.667564  0.005179  0.881591  0.696958
    O   O13  0.328015  0.090230  0.759810  -0.521787
    O   O14  0.521516  0.109190  0.602533  -0.538563
    C   C19  0.539459  0.195928  0.657015  0.584585
    O   O15  0.413757  0.992864  0.851587  -0.547052
    C   C20  0.336251  0.040036  0.850968  0.596720
    O   O16  0.546672  0.206993  0.775847  -0.481727
    Fe  Fe2  0.521354  0.013357  0.720466  1.441732
    C   C21  0.354566  0.293275  0.410564  -0.148741
    C   C22  0.432344  0.254972  0.451550  0.080963
    C   C23  0.506812  0.314898  0.513279  0.019810
    C   C24  0.569236  0.280387  0.588907  0.049305
    C   C25  0.652053  0.339646  0.629241  -0.135186
    C   C26  0.358363  0.389996  0.412093  -0.100093
    C   C27  0.443932  0.450854  0.447363  0.010591
    C   C28  0.516404  0.413174  0.503545  0.079700
    C   C29  0.598133  0.473388  0.550153  -0.048852
    C   C30  0.398477  0.584292  0.351457  -0.298135
    C   C31  0.458818  0.547591  0.426597  0.156584
    C   C32  0.538239  0.608423  0.476923  -0.118882
    C   C33  0.426407  0.673503  0.312059  0.303259
    C   C34  0.498539  0.737476  0.371288  -0.082644
    C   C35  0.669587  0.433053  0.604972  -0.071731
    C   C36  0.606185  0.572013  0.542362  0.144067
    C   C37  0.680360  0.635701  0.599789  -0.140326
    C   C38  0.548296  0.706307  0.463927  0.075776
    C   C39  0.612887  0.768083  0.538412  0.061605
    C   C40  0.681218  0.731840  0.600249  -0.139281
    H   H7   0.293487  0.413623  0.379898  0.123396
    H   H8   0.335311  0.542035  0.309993  0.183805
    H   H9   0.738838  0.471812  0.636337  0.110808
    H   H10  0.733882  0.615464  0.656282  0.145664
    H   H11  0.703203  0.313419  0.684666  0.143622
    H   H12  0.293197  0.247869  0.367330  0.148338
    H   H13  0.731669  0.778937  0.658583  0.132133
    O   O17  0.373483  0.704243  0.225098  -0.317297
    C   C41  0.376519  0.642871  0.115825  0.156136
    H   H14  0.356592  0.682367  0.041564  0.035014
    H   H15  0.317963  0.579938  0.121088  -0.023446
    C   C42  0.479317  0.610807  0.078223  0.283246
    H   H16  0.540551  0.671374  0.084633  -0.056914
    H   H17  0.495180  0.554687  0.133747  -0.070578
    C   C43  0.479572  0.568085  0.946270  -0.221573
    H   H18  0.416704  0.508882  0.935329  0.014151
    H   H19  0.551900  0.540059  0.920839  0.051536
    H   H20  0.471352  0.623458  0.885367  0.055964
