# Generated by REPEAT Assigner based on pymatgen
data_DB0-m3_o96_o23_f0_fsc.sym.96
_audit_creation_date              2022-05-24
_audit_creation_method            REPEAT_Assigner
_cell_length_a                    13.078982
_cell_length_b                    13.636124
_cell_length_c                    15.981679
_cell_angle_alpha                 94.527953
_cell_angle_beta                  90.046102
_cell_angle_gamma                 90.647128
_cell_volume                      2841.197023
_symmetry_space_group_name_H-M    P1
_symmetry_Int_Tables_number       1
loop_
    _symmetry_equiv_pos_site_id
    _symmetry_equiv_pos_as_xyz
    1  x,y,z
loop_
    _atom_site_type_symbol
    _atom_site_label
    _atom_site_fract_x
    _atom_site_fract_y
    _atom_site_fract_z
    _atom_type_partial_charge
    C   C1   0.828993  0.058943  0.223404  -0.043290
    C   C2   0.776841  0.114097  0.171032  0.038615
    C   C3   0.826010  0.105443  0.094721  0.303617
    N   N1   0.910290  0.049757  0.100219  -0.522072
    C   C4   0.913313  0.023468  0.180162  0.436215
    C   C5   0.788879  0.138385  0.024288  -0.391362
    C   C6   0.818509  0.098246  0.939702  0.196384
    C   C7   0.755162  0.084266  0.869427  -0.100807
    C   C8   0.816063  0.051965  0.803583  0.149205
    C   C9   0.914281  0.044793  0.835249  0.115801
    N   N2   0.915009  0.074404  0.917796  -0.204433
    C   C10  0.006104  0.015482  0.787146  -0.391709
    C   C11  0.084517  0.969968  0.820776  0.363395
    C   C12  0.170761  0.937791  0.777912  0.013720
    C   C13  0.225554  0.885779  0.831043  0.002870
    C   C14  0.175758  0.892349  0.907053  0.393092
    N   N3   0.088415  0.943604  0.900789  -0.523463
    C   C15  0.215165  0.861826  0.977789  -0.425654
    C   C16  0.178080  0.891996  0.062614  0.179936
    C   C17  0.238927  0.903186  0.133554  0.046885
    C   C18  0.179148  0.938343  0.198465  0.109828
    C   C19  0.081511  0.946209  0.165977  0.143412
    N   N4   0.081539  0.917146  0.083123  -0.220746
    C   C20  0.990143  0.976244  0.213791  -0.435660
    H   H1   0.724246  0.186842  0.029030  0.155746
    H   H2   0.006665  0.025609  0.720646  0.173341
    H   H3   0.287714  0.824794  0.974294  0.159226
    H   H4   0.989576  0.966658  0.280385  0.181100
    H   H5   0.979287  0.084802  0.956113  0.304828
    H   H6   0.018201  0.909686  0.043534  0.279496
    C   C21  0.341072  0.885854  0.144198  -0.188173
    C   C22  0.382060  0.904869  0.223628  -0.152738
    C   C23  0.323040  0.944151  0.290312  0.003238
    C   C24  0.219463  0.961817  0.278001  -0.245012
    C   C25  0.789696  0.036650  0.299522  -0.188053
    C   C26  0.695903  0.075974  0.322153  -0.032760
    C   C27  0.647201  0.139852  0.271554  -0.056648
    C   C28  0.686346  0.157896  0.194281  -0.201631
    C   C29  0.650966  0.096250  0.857767  -0.053608
    C   C30  0.613219  0.082701  0.776607  -0.146565
    C   C31  0.674496  0.049745  0.709596  -0.011804
    C   C32  0.777522  0.031619  0.723047  -0.210058
    C   C33  0.208869  0.959019  0.700968  -0.208190
    C   C34  0.303513  0.921091  0.678314  -0.019315
    C   C35  0.354564  0.860175  0.729952  -0.066132
    C   C36  0.316935  0.843596  0.807924  -0.205467
    H   H7   0.388809  0.857751  0.092864  0.135851
    H   H8   0.172247  0.991596  0.329130  0.133916
    H   H9   0.826772  0.985857  0.337986  0.113917
    H   H10  0.573301  0.169798  0.288718  0.097639
    H   H11  0.643786  0.201738  0.153269  0.117349
    H   H12  0.826101  0.004856  0.671747  0.136390
    H   H13  0.169680  0.007252  0.661433  0.121471
    H   H14  0.428922  0.831364  0.712738  0.110311
    H   H15  0.360823  0.801105  0.849091  0.113270
    H   H16  0.462402  0.891577  0.233151  0.143424
    H   H17  0.532434  0.091166  0.765358  0.182603
    O   O1   0.373259  0.052837  0.410511  -0.662090
    O   O2   0.434126  0.894569  0.396022  -0.711850
    C   C37  0.374730  0.963900  0.371928  0.763923
    O   O3   0.637894  0.951570  0.409555  -0.634092
    O   O4   0.577396  0.109840  0.429249  -0.660914
    C   C38  0.639497  0.044924  0.393970  0.699023
    O   O5   0.625162  0.942843  0.588794  -0.636074
    O   O6   0.564227  0.101076  0.603462  -0.677649
    C   C39  0.623922  0.031651  0.627353  0.715190
    O   O7   0.360446  0.044218  0.589784  -0.599988
    O   O8   0.421016  0.885976  0.570257  -0.675425
    C   C40  0.358751  0.951005  0.605471  0.669784
    Zn  Zn1  0.537817  0.895108  0.489351  1.125205
    Zn  Zn2  0.460565  0.100616  0.510034  1.095374
    C   C41  0.422663  0.585624  0.531670  -0.079928
    C   C42  0.604742  0.534545  0.545950  -0.040653
    C   C43  0.563460  0.433425  0.562364  -0.080235
    H   H18  0.369614  0.470532  0.605628  0.033684
    H   H19  0.423454  0.625846  0.594590  0.021982
    H   H20  0.678878  0.525785  0.513316  0.084877
    H   H21  0.543305  0.431406  0.629582  0.025639
    H   H22  0.623137  0.377829  0.546778  0.071284
    N   N5   0.423706  0.224294  0.520284  -0.214534
    C   C44  0.528681  0.585605  0.491593  0.228122
    C   C45  0.385642  0.480625  0.538708  0.061162
    C   C46  0.469453  0.410231  0.508281  0.165041
    C   C47  0.498449  0.422255  0.417154  -0.021701
    C   C48  0.517369  0.530343  0.405486  -0.090001
    C   C49  0.438735  0.307655  0.516391  0.112938
    C   C50  0.559573  0.688105  0.483194  0.096128
    N   N6   0.574671  0.771429  0.479112  -0.211744
    H   H23  0.449043  0.558786  0.374696  0.009346
    H   H24  0.436913  0.393178  0.374060  0.037566
    H   H25  0.368077  0.623944  0.492709  0.042071
    H   H26  0.568200  0.379138  0.401758  0.051165
    C   C51  0.577679  0.114075  0.926803  0.446721
    H   H27  0.593575  0.090262  0.988395  -0.001022
    O   O9   0.494147  0.148583  0.913587  -0.480174
    C   C52  0.625499  0.593452  0.627139  0.455377
    H   H28  0.565898  0.606548  0.673592  0.001936
    O   O10  0.711570  0.625136  0.642522  -0.442870
    C   C53  0.605908  0.545889  0.348318  0.436977
    H   H29  0.593700  0.585327  0.292933  0.006782
    O   O11  0.690102  0.512530  0.361068  -0.428600
    C   C54  0.288697  0.461344  0.490444  0.396391
    H   H30  0.284971  0.471674  0.423975  0.012846
    O   O12  0.212043  0.435637  0.526557  -0.427727
