# Generated by REPEAT Assigner based on pymatgen
data_DB0-m29_o84_o420_f0_pts.sym.55
_audit_creation_date              2022-05-24
_audit_creation_method            REPEAT_Assigner
_cell_length_a                    13.141554
_cell_length_b                    11.832990
_cell_length_c                    13.508001
_cell_angle_alpha                 90.885775
_cell_angle_beta                  100.251398
_cell_angle_gamma                 111.677845
_cell_volume                      1913.237944
_symmetry_space_group_name_H-M    P1
_symmetry_Int_Tables_number       1
loop_
    _symmetry_equiv_pos_site_id
    _symmetry_equiv_pos_as_xyz
    1  x,y,z
loop_
    _atom_site_type_symbol
    _atom_site_label
    _atom_site_fract_x
    _atom_site_fract_y
    _atom_site_fract_z
    _atom_type_partial_charge
    C   C1   0.185940  0.976387  0.893653  -0.032756
    C   C2   0.078977  0.950412  0.839396  -0.130919
    C   C3   0.995653  0.955965  0.886523  0.170239
    C   C4   0.889705  0.927954  0.831073  -0.179403
    C   C5   0.806576  0.936048  0.876520  -0.044128
    C   C6   0.207002  0.005717  0.997936  -0.092645
    C   C7   0.123173  0.014771  0.044289  0.087078
    C   C8   0.017503  0.989571  0.988419  -0.008141
    C   C9   0.933950  0.998833  0.034298  -0.012633
    C   C10  0.828506  0.974918  0.978312  0.065083
    C   C11  0.745962  0.988212  0.024374  -0.088692
    C   C12  0.144457  0.051415  0.146448  -0.080960
    C   C13  0.061296  0.058702  0.191994  -0.153363
    C   C14  0.955915  0.032295  0.136251  0.186259
    C   C15  0.873514  0.040488  0.183083  -0.205633
    C   C16  0.768269  0.020225  0.128159  0.074369
    H   H1   0.059330  0.925583  0.759004  0.127147
    H   H2   0.870794  0.898982  0.751390  0.145860
    H   H3   0.724707  0.909212  0.830117  0.107187
    H   H4   0.225796  0.077324  0.193268  0.102272
    H   H5   0.080018  0.086915  0.271813  0.133912
    H   H6   0.893137  0.066428  0.263319  0.155300
    O   O1   0.595395  0.048966  0.135713  -0.555502
    C   C17  0.683384  0.030056  0.182952  0.574162
    O   O2   0.511946  0.774670  0.241003  -0.479260
    O   O3   0.695071  0.017440  0.280151  -0.541139
    O   O4   0.456931  0.906628  0.322721  -0.547261
    C   C18  0.481929  0.809161  0.320186  0.543045
    Fe  Fe1  0.477872  0.021713  0.216369  1.454535
    O   O5   0.330406  0.946864  0.120403  -0.614500
    O   O6   0.394875  0.138698  0.070108  -0.541945
    C   C19  0.316520  0.028977  0.060875  0.769127
    O   O7   0.522692  0.188699  0.286334  -0.585397
    O   O8   0.364767  0.071751  0.336857  -0.506053
    C   C20  0.446902  0.177872  0.341807  0.561597
    O   O9   0.416885  0.836705  0.727214  -0.586003
    O   O10  0.585787  0.926456  0.686923  -0.553289
    C   C21  0.491502  0.831738  0.675875  0.572776
    O   O11  0.635434  0.053571  0.895865  -0.600901
    O   O12  0.549493  0.875022  0.961840  -0.524159
    C   C22  0.638523  0.973498  0.961269  0.691879
    O   O13  0.250097  0.955206  0.739402  -0.542796
    O   O14  0.522574  0.122261  0.699780  -0.554561
    C   C23  0.490704  0.214901  0.702015  0.574978
    O   O15  0.375712  0.996046  0.886796  -0.578939
    C   C24  0.273415  0.973963  0.838286  0.661320
    O   O16  0.430864  0.223011  0.767758  -0.535454
    Fe  Fe2  0.486297  0.003471  0.802291  1.442610
    C   C25  0.462442  0.748590  0.585132  0.155167
    C   C26  0.460375  0.631458  0.588738  -0.300883
    H   H7   0.446447  0.588812  0.657192  0.153891
    C   C27  0.480655  0.573955  0.507446  0.169851
    C   C28  0.490436  0.633294  0.418598  -0.298073
    H   H8   0.508709  0.596089  0.353799  0.156767
    C   C29  0.478198  0.744290  0.412018  0.174616
    C   C30  0.468384  0.802346  0.496664  -0.243632
    C   C31  0.468441  0.376340  0.426296  -0.200563
    H   H9   0.447591  0.403260  0.352071  0.146143
    C   C32  0.470700  0.261413  0.431290  0.128961
    C   C33  0.474379  0.212876  0.522200  -0.272495
    C   C34  0.492395  0.281893  0.611086  0.083274
    C   C35  0.512064  0.406454  0.608772  -0.050826
    C   C36  0.487920  0.450789  0.514584  0.063780
    H   H10  0.471444  0.894803  0.497441  0.186261
    H   H11  0.462633  0.117649  0.522550  0.196811
    N   N1   0.586181  0.491263  0.690346  0.127300
    C   C37  0.561480  0.498506  0.789559  -0.097107
    C   C38  0.644082  0.469132  0.868366  0.262791
    O   O17  0.753766  0.542411  0.862174  -0.419048
    C   C39  0.771214  0.507023  0.769327  0.312623
    C   C40  0.702048  0.544047  0.683762  -0.211953
    H   H12  0.474130  0.439263  0.790659  0.092413
    H   H13  0.571247  0.593730  0.809489  0.067980
    H   H14  0.631270  0.371367  0.861491  0.005123
    H   H15  0.629889  0.489333  0.944026  0.062132
    H   H16  0.751014  0.407323  0.760540  -0.006558
    H   H17  0.860700  0.554105  0.766137  0.034806
    H   H18  0.713985  0.512212  0.610641  0.103723
    H   H19  0.729941  0.644966  0.689511  0.092419
