# Generated by REPEAT Assigner based on pymatgen
data_DB0-m29_o91_o420_f0_pts.sym.7
_audit_creation_date              2022-05-24
_audit_creation_method            REPEAT_Assigner
_cell_length_a                    12.242432
_cell_length_b                    26.961582
_cell_length_c                    12.933303
_cell_angle_alpha                 45.380582
_cell_angle_beta                  88.789847
_cell_angle_gamma                 78.469906
_cell_volume                      2933.413542
_symmetry_space_group_name_H-M    P1
_symmetry_Int_Tables_number       1
loop_
    _symmetry_equiv_pos_site_id
    _symmetry_equiv_pos_as_xyz
    1  x,y,z
loop_
    _atom_site_type_symbol
    _atom_site_label
    _atom_site_fract_x
    _atom_site_fract_y
    _atom_site_fract_z
    _atom_type_partial_charge
    C   C1   0.234559  0.974998  0.932193  0.032625
    C   C2   0.118053  0.989008  0.916223  -0.261258
    H   H1   0.076040  0.997438  0.831202  0.174564
    C   C3   0.060685  0.992963  0.005779  0.291621
    C   C4   0.124737  0.989564  0.099196  -0.296094
    H   H2   0.086774  0.007087  0.147115  0.174540
    C   C5   0.241340  0.969631  0.122857  0.150022
    C   C6   0.295746  0.959258  0.043488  -0.158251
    C   C7   0.879777  0.992708  0.105937  0.349109
    C   C8   0.762899  0.008381  0.087667  -0.086110
    C   C9   0.700346  0.033139  0.966559  -0.122704
    C   C10  0.752474  0.036072  0.868400  -0.000823
    C   C11  0.868325  0.025998  0.877686  -0.093616
    H   H3   0.903772  0.032813  0.793039  0.116636
    C   C12  0.934631  0.005910  0.994631  -0.161663
    H   H4   0.386620  0.949146  0.053429  0.171757
    H   H5   0.609965  0.040591  0.961236  0.177766
    O   O1   0.414342  0.043237  0.327456  -0.574014
    O   O2   0.344283  0.108152  0.091368  -0.469177
    C   C13  0.345769  0.100589  0.203297  0.598174
    O   O3   0.419970  0.951711  0.228780  -0.585020
    O   O4   0.261953  0.993998  0.267945  -0.436523
    C   C14  0.309484  0.969301  0.214926  0.506692
    O   O5   0.663839  0.960385  0.485616  -0.476013
    O   O6   0.599333  0.031829  0.161851  -0.649438
    C   C15  0.700688  0.989974  0.203047  0.697136
    O   O7   0.564109  0.888587  0.519759  -0.650975
    C   C16  0.639320  0.897852  0.571766  0.847865
    O   O8   0.729424  0.924133  0.336217  -0.540527
    Fe  Fe1  0.501388  0.978363  0.310510  1.489021
    O   O9   0.424801  0.105024  0.495026  -0.658620
    C   C17  0.354579  0.095480  0.438646  0.865545
    O   O10  0.253171  0.049984  0.679809  -0.531299
    O   O11  0.335125  0.031856  0.519761  -0.430980
    O   O12  0.403264  0.957381  0.856737  -0.659708
    C   C18  0.294818  0.989820  0.817908  0.703923
    Fe  Fe2  0.494680  0.015082  0.701444  1.482811
    O   O13  0.575988  0.042816  0.780843  -0.594967
    O   O14  0.732230  0.022296  0.704747  -0.450972
    C   C19  0.684002  0.038857  0.771957  0.567605
    O   O15  0.582451  0.953290  0.677400  -0.597668
    O   O16  0.667715  0.895092  0.903158  -0.457693
    C   C20  0.657932  0.898868  0.796808  0.630110
    C   C21  0.009809  0.377043  0.028970  0.450162
    N   N1   0.119874  0.343136  0.091875  -0.145733
    C   C22  0.181683  0.368754  0.122927  0.430184
    C   C23  0.133108  0.430298  0.090278  -0.101313
    C   C24  0.021027  0.465363  0.026085  0.104890
    C   C25  0.958803  0.438593  0.995427  -0.119512
    C   C26  0.196100  0.457386  0.120136  -0.050434
    C   C27  0.146750  0.519106  0.085920  -0.044807
    C   C28  0.033954  0.554026  0.022077  -0.119865
    C   C29  0.971519  0.526966  0.992408  0.096246
    C   C30  0.859362  0.561913  0.928647  -0.078378
    C   C31  0.796353  0.534800  0.898848  -0.064523
    C   C32  0.845955  0.473437  0.931852  -0.045150
    C   C33  0.983421  0.616145  0.986647  0.451392
    N   N2   0.873101  0.649827  0.924701  -0.149011
    C   C34  0.810807  0.623495  0.895911  0.416452
    O   O17  0.948741  0.349743  0.002415  -0.464977
    O   O18  0.291968  0.335635  0.181376  -0.458566
    H   H6   0.284333  0.430860  0.170188  0.128853
    H   H7   0.197518  0.539401  0.110082  0.124839
    O   O19  0.045416  0.644335  0.009860  -0.455911
    O   O20  0.700200  0.656053  0.839145  -0.456753
    H   H8   0.708070  0.561255  0.849028  0.134787
    H   H9   0.795331  0.453314  0.907100  0.127417
    C   C35  0.754729  0.773515  0.754032  -0.143106
    H   H10  0.743835  0.773332  0.671620  0.185997
    C   C36  0.706018  0.835748  0.718585  -0.076505
    C   C37  0.720886  0.837862  0.821375  -0.046814
    C   C38  0.788552  0.777852  0.956792  -0.095549
    H   H11  0.800360  0.777560  0.039788  0.123424
    C   C39  0.839299  0.716493  0.990250  -0.116708
    H   H12  0.888376  0.669610  0.098698  0.132661
    C   C40  0.821934  0.713738  0.889459  0.181619
    C   C41  0.237264  0.219388  0.259909  -0.098790
    H   H13  0.245441  0.218002  0.344997  0.163572
    C   C42  0.288266  0.158429  0.291595  -0.135488
    C   C43  0.279063  0.159470  0.183216  0.024851
    C   C44  0.212647  0.220450  0.047551  -0.141118
    H   H14  0.204515  0.222851  0.961002  0.137378
    C   C45  0.158377  0.280053  0.018675  -0.094408
    H   H15  0.110116  0.327818  0.910269  0.132717
    C   C46  0.171881  0.280253  0.123955  0.155221
    O   O21  0.938619  0.957872  0.239315  -0.295459
    C   C47  0.910748  0.005827  0.253262  0.106919
    H   H16  0.854128  0.987765  0.335564  0.061936
    H   H17  0.871007  0.061271  0.144962  -0.005074
    H   H18  0.988375  0.006522  0.294416  0.049027
