# Generated by REPEAT Assigner based on pymatgen
data_DB0-m2_o23_o25_f0_nbo.sym.88
_audit_creation_date              2022-05-24
_audit_creation_method            REPEAT_Assigner
_cell_length_a                    27.454087
_cell_length_b                    27.446228
_cell_length_c                    27.492460
_cell_angle_alpha                 109.372148
_cell_angle_beta                  109.518421
_cell_angle_gamma                 109.418626
_cell_volume                      15967.594219
_symmetry_space_group_name_H-M    P1
_symmetry_Int_Tables_number       1
loop_
    _symmetry_equiv_pos_site_id
    _symmetry_equiv_pos_as_xyz
    1  x,y,z
loop_
    _atom_site_type_symbol
    _atom_site_label
    _atom_site_fract_x
    _atom_site_fract_y
    _atom_site_fract_z
    _atom_type_partial_charge
    O   O1    0.936685  0.977188  0.536737  -0.615118
    O   O2    0.940573  0.904099  0.468567  -0.593168
    C   C1    0.918854  0.921165  0.502617  0.776972
    O   O3    0.941150  0.040350  0.477298  -0.598871
    O   O4    0.938162  0.963829  0.405636  -0.616933
    C   C2    0.920260  0.002048  0.421719  0.777085
    Cu  Cu1   0.000132  0.044064  0.544499  1.010670
    Cu  Cu2   0.000690  0.959639  0.461638  1.014269
    O   O5    0.060251  0.099602  0.537575  -0.597466
    O   O6    0.064135  0.026518  0.469397  -0.615131
    O   O7    0.062650  0.039861  0.600497  -0.610899
    O   O8    0.059674  0.963349  0.528838  -0.598819
    C   C3    0.081970  0.082544  0.503529  0.775600
    C   C4    0.080543  0.001636  0.584416  0.758491
    C   C5    0.702493  0.984712  0.255868  -0.531764
    C   C6    0.733209  0.949176  0.243602  0.156633
    H   H1    0.661033  0.969636  0.258356  0.170766
    H   H2    0.729809  0.936380  0.153539  0.095336
    C   C7    0.875633  0.002088  0.376161  -0.127218
    C   C8    0.626657  0.003615  0.129059  -0.051246
    C   C9    0.762844  0.038639  0.304167  0.194549
    C   C10   0.792613  0.002735  0.292035  0.481813
    C   C11   0.770698  0.057816  0.260365  -0.309082
    C   C12   0.711123  0.003272  0.212003  0.797111
    C   C13   0.800908  0.021212  0.248090  -0.090098
    C   C14   0.740530  0.966751  0.198705  -0.282213
    C   C15   0.838148  0.002292  0.338026  -0.347736
    C   C16   0.664917  0.003548  0.166555  -0.442984
    H   H3    0.842568  0.036232  0.245947  0.060417
    H   H4    0.785108  0.103308  0.266596  0.105387
    C   C17   0.809102  0.804044  0.566339  -0.128351
    C   C18   0.777629  0.731933  0.463361  -0.282997
    C   C19   0.739838  0.687251  0.474561  0.230540
    H   H5    0.774318  0.741311  0.593563  0.033574
    H   H6    0.847612  0.796882  0.581762  0.019581
    H   H7    0.755269  0.720686  0.416303  0.048307
    H   H8    0.820566  0.732394  0.474594  0.057925
    H   H9    0.771541  0.682819  0.508048  -0.043818
    C   C20   0.626134  0.630697  0.505851  -0.161677
    C   C21   0.789145  0.792896  0.503161  0.658114
    C   C22   0.758000  0.761618  0.567773  -0.099768
    C   C23   0.709703  0.713830  0.504391  0.397381
    C   C24   0.683254  0.744388  0.475390  0.019866
    C   C25   0.732098  0.795120  0.479764  -0.206714
    C   C26   0.663950  0.668511  0.505540  -0.307744
    C   C27   0.835336  0.838616  0.502914  -0.348906
    C   C28   0.873429  0.876285  0.502735  -0.144780
    H   H10   0.738987  0.838192  0.510524  0.037224
    H   H11   0.718985  0.790829  0.435137  0.053300
    H   H12   0.662404  0.762710  0.499112  0.019023
    H   H13   0.822787  0.850609  0.596358  0.033551
    H   H14   0.739927  0.786532  0.589707  0.028505
    H   H15   0.648337  0.713484  0.428361  -0.039949
    C   C29   0.248219  0.063113  0.767915  -0.160395
    C   C30   0.243335  0.981339  0.690908  -0.109695
    C   C31   0.291426  0.981624  0.738515  -0.162614
    H   H16   0.339561  0.094596  0.828575  0.025406
    H   H17   0.271364  0.092286  0.753779  0.033820
    H   H18   0.214417  0.935995  0.651378  0.021331
    H   H19   0.264308  0.012547  0.677395  0.039533
    H   H20   0.335804  0.013317  0.748513  0.041945
    H   H21   0.286006  0.936364  0.722369  0.041385
    C   C32   0.371624  0.001277  0.877922  -0.212827
    C   C33   0.206661  0.000458  0.715157  0.599397
    C   C34   0.294398  0.062494  0.816547  -0.075429
    C   C35   0.286599  0.000453  0.794336  0.523892
    C   C36   0.226285  0.956800  0.781019  -0.090161
    C   C37   0.177700  0.955591  0.732380  0.021450
    C   C38   0.333209  0.000906  0.840131  -0.271503
    C   C39   0.161815  0.000938  0.668463  -0.399507
    C   C40   0.124830  0.001332  0.630025  -0.094555
    H   H22   0.155414  0.911121  0.692692  -0.005693
    H   H23   0.224782  0.969204  0.822776  -0.008001
    H   H24   0.223103  0.081649  0.784163  0.050647
    H   H25   0.289523  0.075839  0.856588  0.011656
    H   H26   0.221166  0.911663  0.764556  0.020765
    C   C41   0.202957  0.265289  0.517025  -0.132895
    C   C42   0.206353  0.187549  0.442475  -0.117187
    C   C43   0.251000  0.236829  0.441180  -0.165225
    H   H27   0.234483  0.330534  0.491713  0.039009
    H   H28   0.159750  0.253149  0.481100  0.029261
    H   H29   0.215740  0.150181  0.433652  0.023763
    H   H30   0.160693  0.171279  0.407657  0.036098
    H   H31   0.227009  0.248628  0.409821  0.032821
    H   H32   0.278527  0.221350  0.426100  0.044748
    C   C44   0.374410  0.375345  0.503136  -0.066093
    C   C45   0.211307  0.211395  0.503173  0.646758
    C   C46   0.253257  0.314587  0.521405  -0.144738
    C   C47   0.290582  0.290965  0.503041  0.697715
    C   C48   0.319809  0.273610  0.546613  -0.135137
    C   C49   0.272297  0.229200  0.549932  -0.164045
    C   C50   0.336538  0.337157  0.503019  -0.441649
    C   C51   0.165313  0.165320  0.503275  -0.393556
    C   C52   0.127328  0.127474  0.503388  -0.118206
    H   H33   0.277241  0.249725  0.594726  0.036061
    H   H34   0.277396  0.189314  0.542001  0.047772
    H   H35   0.351444  0.313681  0.591324  0.038559
    H   H36   0.203128  0.280912  0.559839  0.038208
    H   H37   0.281487  0.352143  0.567894  0.029096
    H   H38   0.344446  0.253237  0.531436  0.028135
    O   O9    0.461641  0.027834  0.063909  -0.595206
    O   O10   0.533441  0.099986  0.062514  -0.610034
    C   C53   0.499584  0.083665  0.084708  0.763142
    O   O11   0.525387  0.969026  0.067353  -0.611375
    O   O12   0.597042  0.037604  0.062364  -0.609212
    C   C54   0.581017  0.003480  0.084342  0.727768
    Cu  Cu3   0.457688  0.960881  0.004487  1.009889
    Cu  Cu4   0.540619  0.044379  0.002826  1.011411
    O   O13   0.461775  0.905240  0.941749  -0.616228
    O   O14   0.533406  0.977401  0.940178  -0.599991
    O   O15   0.401180  0.967493  0.944850  -0.595172
    O   O16   0.473002  0.036402  0.940016  -0.598486
    C   C55   0.499479  0.921625  0.923359  0.767461
    C   C56   0.417310  0.001726  0.922920  0.825408
    O   O17   0.538300  0.564558  0.602521  -0.597537
    O   O18   0.465426  0.565270  0.530696  -0.617452
    C   C57   0.499870  0.582310  0.586384  0.774525
    O   O19   0.597914  0.566468  0.542922  -0.605165
    O   O20   0.525021  0.563960  0.467603  -0.602463
    C   C58   0.581015  0.585158  0.505584  0.813206
    Cu  Cu5   0.542371  0.502536  0.545958  1.019237
    Cu  Cu6   0.458196  0.503508  0.462965  1.013306
    O   O21   0.538213  0.443898  0.478258  -0.618538
    O   O22   0.465495  0.444772  0.406441  -0.596010
    O   O23   0.475478  0.442185  0.541331  -0.616689
    O   O24   0.402766  0.439524  0.466036  -0.615951
    C   C59   0.500084  0.423116  0.422516  0.771709
    C   C60   0.419535  0.420967  0.503457  0.740224
    C   C61   0.436447  0.195930  0.200557  -0.124589
    C   C62   0.525371  0.271648  0.211141  -0.325349
    C   C63   0.522954  0.319818  0.256258  0.103084
    H   H39   0.404893  0.255268  0.232540  0.007305
    H   H40   0.409738  0.192605  0.157938  0.018442
    H   H41   0.572401  0.286476  0.222339  0.053383
    H   H42   0.499544  0.262718  0.165438  0.086783
    H   H43   0.568956  0.357833  0.287987  -0.003370
    C   C64   0.500517  0.378770  0.376808  -0.124851
    C   C65   0.499669  0.214417  0.212677  0.704984
    C   C66   0.437466  0.241875  0.250792  -0.064727
    C   C67   0.500044  0.295323  0.291469  0.499061
    C   C68   0.541017  0.275526  0.320772  -0.066528
    C   C69   0.537409  0.224242  0.273403  -0.211577
    C   C70   0.500503  0.341284  0.338321  -0.357374
    C   C71   0.499432  0.167605  0.167039  -0.376848
    C   C72   0.499405  0.129232  0.129443  -0.122340
    H   H44   0.516971  0.183277  0.275564  0.038208
    H   H45   0.582912  0.234790  0.281220  0.056546
    H   H46   0.527468  0.260978  0.349518  0.032560
    H   H47   0.415887  0.151953  0.197460  0.025745
    H   H48   0.424464  0.221951  0.276648  0.020354
    H   H49   0.587554  0.313148  0.348636  0.013081
    C   C73   0.492024  0.738994  0.807798  0.095321
    C   C74   0.558590  0.817017  0.795818  -0.036270
    C   C75   0.560769  0.767578  0.752450  -0.167317
    H   H50   0.519587  0.675194  0.774155  0.079165
    H   H51   0.560612  0.850532  0.781391  0.008206
    H   H52   0.597514  0.839382  0.840875  -0.001774
    H   H53   0.595142  0.759117  0.777213  0.024967
    H   H54   0.572403  0.781124  0.722305  0.040901
    C   C76   0.500164  0.627459  0.632021  -0.127097
    C   C77   0.500556  0.791186  0.796191  0.553519
    C   C78   0.487562  0.689590  0.757105  -0.317037
    C   C79   0.500353  0.711412  0.716448  0.696524
    C   C80   0.452739  0.724849  0.687690  -0.160782
    C   C81   0.449456  0.768643  0.735655  -0.125925
    C   C82   0.500294  0.665354  0.670209  -0.374226
    C   C83   0.499807  0.837801  0.841120  -0.383286
    C   C84   0.499454  0.876083  0.878418  -0.106701
    H   H55   0.406388  0.746313  0.733669  0.026705
    H   H56   0.452304  0.806529  0.728135  0.043529
    H   H57   0.408936  0.683214  0.658205  0.043976
    H   H58   0.449255  0.721968  0.807677  -0.020080
    H   H59   0.441866  0.650695  0.731376  0.052864
    H   H60   0.463997  0.744377  0.660890  0.028404
    C   C85   0.713958  0.887282  0.235725  -0.119289
    C   C86   0.651835  0.843569  0.182302  0.303119
    C   C87   0.632843  0.781786  0.174677  -0.320249
    H   H61   0.664323  0.767417  0.167535  0.068188
    H   H62   0.632423  0.782191  0.215001  0.069770
    H   H63   0.587446  0.750133  0.135539  0.065777
    H   H64   0.619879  0.857326  0.189032  -0.055608
    H   H65   0.651647  0.842512  0.141577  -0.057622
    H   H66   0.745802  0.873375  0.228885  0.025760
    H   H67   0.713993  0.888156  0.276352  0.030545
    C   C88   0.700505  0.624105  0.420214  -0.181274
    C   C89   0.645981  0.613578  0.369466  0.170312
    C   C90   0.617902  0.552596  0.316480  -0.286478
    H   H68   0.649753  0.550331  0.300670  0.067564
    H   H69   0.605326  0.518194  0.329509  0.106639
    H   H70   0.577387  0.544370  0.280079  0.061000
    H   H71   0.612186  0.614022  0.382746  0.005535
    H   H72   0.658273  0.647321  0.355688  -0.013040
    H   H73   0.729050  0.614223  0.402628  0.030853
    H   H74   0.685685  0.591681  0.434937  0.031600
    C   C91   0.127088  0.957960  0.744256  -0.163981
    C   C92   0.145168  0.999858  0.807784  0.255365
    C   C93   0.098076  0.017220  0.806823  -0.278445
    H   H75   0.097169  0.044470  0.784772  0.066102
    H   H76   0.053811  0.976533  0.782462  0.057531
    H   H77   0.108917  0.043783  0.853165  0.049021
    H   H78   0.147867  0.976349  0.833672  -0.025936
    H   H79   0.188340  0.040817  0.830466  -0.045800
    H   H80   0.099526  0.967989  0.713682  0.047066
    H   H81   0.097019  0.912447  0.733208  0.037507
    C   C94   0.485244  0.342067  0.225262  -0.189055
    C   C95   0.519161  0.381548  0.206723  0.298022
    C   C96   0.483693  0.407816  0.181527  -0.280176
    H   H82   0.439626  0.371455  0.142536  0.051012
    H   H83   0.477367  0.435682  0.215977  0.059584
    H   H84   0.508332  0.435917  0.167423  0.056984
    H   H85   0.562855  0.418323  0.245810  -0.081236
    H   H86   0.526617  0.355498  0.172289  -0.051937
    H   H87   0.442737  0.304121  0.185342  0.044447
    H   H88   0.474657  0.368985  0.255675  0.056091
    C   C97   0.541839  0.756831  0.867873  -0.112734
    C   C98   0.520821  0.711743  0.887156  0.211605
    C   C99   0.570896  0.729178  0.945956  -0.267638
    H   H89   0.609472  0.729775  0.940894  0.053738
    H   H90   0.584679  0.773943  0.980444  0.064712
    H   H91   0.555150  0.696258  0.959869  0.058355
    H   H92   0.482505  0.710945  0.892896  -0.027701
    H   H93   0.507031  0.666647  0.853414  -0.036590
    H   H94   0.581960  0.759661  0.865086  0.029884
    H   H95   0.554796  0.800781  0.902930  0.028334
    C   C100  0.777846  0.079775  0.366163  -0.151685
    C   C101  0.739926  0.109387  0.362684  0.298116
    C   C102  0.755327  0.150612  0.424825  -0.292311
    H   H96   0.746608  0.124741  0.447484  0.064361
    H   H97   0.803024  0.185505  0.450671  0.064640
    H   H98   0.727407  0.172035  0.421895  0.055479
    H   H99   0.748463  0.135640  0.340344  -0.056717
    H   H100  0.692088  0.074978  0.337121  -0.056524
    H   H101  0.769117  0.053485  0.388443  0.038560
    H   H102  0.825670  0.114310  0.391958  0.032836
