# Generated by REPEAT Assigner based on pymatgen
data_DB0-m3_o12_o27_f0_pcu.sym.14
_audit_creation_date              2022-05-24
_audit_creation_method            REPEAT_Assigner
_cell_length_a                    10.002574
_cell_length_b                    11.187499
_cell_length_c                    19.380551
_cell_angle_alpha                 89.997757
_cell_angle_beta                  80.790505
_cell_angle_gamma                 92.459204
_cell_volume                      2138.777240
_symmetry_space_group_name_H-M    P1
_symmetry_Int_Tables_number       1
loop_
    _symmetry_equiv_pos_site_id
    _symmetry_equiv_pos_as_xyz
    1  x,y,z
loop_
    _atom_site_type_symbol
    _atom_site_label
    _atom_site_fract_x
    _atom_site_fract_y
    _atom_site_fract_z
    _atom_type_partial_charge
    O   O1   0.437153  0.685948  0.500467  -0.584253
    O   O2   0.573477  0.298907  0.485352  -0.600498
    O   O3   0.664243  0.649527  0.480309  -0.639781
    O   O4   0.345805  0.335624  0.504770  -0.640076
    C   C1   0.564825  0.723912  0.489649  0.711319
    C   C2   0.445370  0.261537  0.496600  0.722232
    O   O5   0.394691  0.506611  0.605668  -0.607546
    O   O6   0.615821  0.477292  0.380260  -0.659977
    O   O7   0.622116  0.471288  0.585263  -0.617874
    O   O8   0.387822  0.514364  0.400659  -0.600752
    C   C3   0.508891  0.486698  0.628055  0.660251
    C   C4   0.501675  0.498174  0.358144  0.666766
    Zn  Zn1  0.354882  0.516856  0.506577  0.981317
    Zn  Zn2  0.655326  0.468171  0.479385  1.039266
    C   C5   0.419498  0.557490  0.744967  -0.119259
    C   C6   0.581296  0.418818  0.242341  -0.297223
    H   H1   0.354708  0.611948  0.719901  0.078369
    H   H2   0.638510  0.357256  0.267739  0.181293
    C   C7   0.411807  0.562969  0.816780  0.044638
    C   C8   0.588633  0.413990  0.170635  0.350376
    C   C9   0.496511  0.493565  0.849045  -0.452590
    C   C10  0.513874  0.492267  0.137635  -0.522258
    C   C11  0.583216  0.418780  0.808772  -0.066667
    C   C12  0.438391  0.575787  0.177488  -0.049385
    H   H3   0.647335  0.364087  0.834352  0.084107
    H   H4   0.381975  0.638487  0.152451  0.113152
    C   C13  0.590857  0.413018  0.736953  0.087588
    C   C14  0.432451  0.581314  0.249102  0.040206
    C   C15  0.508580  0.484906  0.704252  -0.071994
    C   C16  0.502683  0.499906  0.282243  -0.038713
    N   N1   0.510782  0.390228  0.957949  -0.482388
    N   N2   0.498452  0.595570  0.028658  -0.368678
    N   N3   0.516351  0.389268  0.025634  -0.134283
    N   N4   0.492528  0.596509  0.961001  -0.319852
    C   C17  0.511763  0.492073  0.061790  0.812834
    C   C18  0.497806  0.493772  0.924825  0.964068
    H   H5   0.606518  0.096844  0.445882  0.136830
    H   H6   0.394445  0.886867  0.471577  0.136822
    C   C19  0.594466  0.855464  0.485232  -0.222847
    C   C20  0.414253  0.130739  0.501129  -0.296414
    C   C21  0.493172  0.926240  0.476282  -0.101645
    C   C22  0.511275  0.058079  0.472579  -0.131311
    H   H7   0.131888  0.419462  0.455119  0.155279
    H   H8   0.876244  0.532006  0.546318  0.097962
    N   N5   0.853140  0.435663  0.461199  -0.223063
    N   N6   0.156882  0.549448  0.525050  -0.161541
    C   C23  0.929123  0.485085  0.502186  0.157507
    C   C24  0.080725  0.481475  0.491917  0.009966
    C   C25  0.306950  0.640121  0.856416  0.233635
    C   C26  0.192803  0.564104  0.898334  -0.061429
    H   H9   0.155443  0.495508  0.863874  0.001924
    H   H10  0.227047  0.519560  0.943006  0.022375
    H   H11  0.108647  0.622278  0.918823  0.004568
    H   H12  0.351876  0.704859  0.890261  -0.070395
    H   H13  0.261331  0.694078  0.819019  -0.033583
    C   C27  0.686322  0.329801  0.132141  -0.192793
    C   C28  0.622313  0.204154  0.133976  0.054463
    H   H14  0.602071  0.170328  0.188597  -0.014444
    H   H15  0.525590  0.204225  0.112987  -0.052739
    H   H16  0.692865  0.144450  0.101940  0.010531
    H   H17  0.723272  0.359106  0.077674  0.053741
    H   H18  0.777099  0.328256  0.158276  0.039130
    C   C29  0.684021  0.324390  0.698923  0.031530
    C   C30  0.603731  0.218574  0.674764  -0.182755
    H   H19  0.535927  0.177907  0.720373  0.038461
    H   H20  0.542066  0.246387  0.635517  0.088205
    H   H21  0.674962  0.151043  0.651144  0.044642
    H   H22  0.754555  0.366233  0.654940  -0.022655
    H   H23  0.748579  0.288848  0.734898  0.031624
    C   C31  0.358706  0.682212  0.286456  0.090642
    C   C32  0.207616  0.651877  0.300426  -0.134569
    H   H24  0.168717  0.641043  0.250232  0.027680
    H   H25  0.187648  0.567552  0.330927  0.034132
    H   H26  0.154934  0.725283  0.330458  0.030378
    H   H27  0.395610  0.704983  0.335883  -0.006914
    H   H28  0.377211  0.763446  0.252906  -0.007896
    C   C33  0.283127  0.075902  0.540794  0.439562
    C   C34  0.199023  0.160009  0.589858  -0.483180
    H   H29  0.264004  0.211516  0.621655  0.120377
    H   H30  0.143309  0.220097  0.560199  0.120631
    H   H31  0.122710  0.105627  0.625887  0.081948
    H   H32  0.220170  0.037716  0.503302  -0.036477
    H   H33  0.307623  0.002944  0.574764  -0.024677
    C   C35  0.730325  0.914710  0.492601  0.222718
    C   C36  0.830502  0.834160  0.517812  -0.156646
    H   H34  0.781753  0.782870  0.564815  0.027630
    H   H35  0.873662  0.774422  0.475092  0.042244
    H   H36  0.915031  0.891063  0.532374  0.003758
    H   H37  0.777952  0.954458  0.441669  0.000060
    H   H38  0.713883  0.986959  0.531840  0.014934
    C   C37  0.089473  0.632003  0.575535  0.202386
    C   C38  0.185561  0.724910  0.599932  -0.196501
    H   H39  0.267074  0.683524  0.622075  0.090645
    H   H40  0.227065  0.785231  0.555808  0.020462
    H   H41  0.127539  0.779291  0.641254  0.047588
    H   H42  0.019105  0.684779  0.550874  0.011109
    H   H43  0.034532  0.581697  0.621578  0.002640
    C   C39  0.911517  0.371747  0.399663  0.170576
    C   C40  0.938620  0.244177  0.418559  -0.158834
    H   H44  0.841689  0.197631  0.441494  0.030608
    H   H45  0.982664  0.196744  0.370562  0.072783
    H   H46  0.009377  0.241863  0.456908  0.030262
    H   H47  0.837270  0.365994  0.363008  0.046235
    H   H48  0.003314  0.419481  0.371462  -0.021610
