# Generated by REPEAT Assigner based on pymatgen
data_DB0-m3_o12_o14_f0_pcu.sym.29_sqe
_audit_creation_date              2022-05-24
_audit_creation_method            REPEAT_Assigner
_cell_length_a                    10.051037
_cell_length_b                    10.961251
_cell_length_c                    11.251698
_cell_angle_alpha                 89.989536
_cell_angle_beta                  92.457018
_cell_angle_gamma                 80.907820
_cell_volume                      1222.890250
_symmetry_space_group_name_H-M    P1
_symmetry_Int_Tables_number       1
loop_
    _symmetry_equiv_pos_site_id
    _symmetry_equiv_pos_as_xyz
    1  x,y,z
loop_
    _atom_site_type_symbol
    _atom_site_label
    _atom_site_fract_x
    _atom_site_fract_y
    _atom_site_fract_z
    _atom_type_partial_charge
    O   O1   0.579989  0.490217  0.282682  -0.708761
    O   O2   0.351947  0.523079  0.313856  -0.697265
    C   C1   0.453752  0.508218  0.243346  0.879045
    O   O3   0.618758  0.302256  0.458556  -0.505823
    O   O4   0.390457  0.335726  0.489024  -0.614217
    C   C2   0.505068  0.261690  0.475925  0.636065
    Zn  Zn1  0.656345  0.478288  0.452590  1.038983
    Zn  Zn2  0.355554  0.522918  0.494056  1.057448
    O   O5   0.660204  0.478918  0.632800  -0.713867
    O   O6   0.431731  0.511818  0.664037  -0.693315
    O   O7   0.621470  0.665357  0.457748  -0.710663
    O   O8   0.393064  0.699105  0.488258  -0.672014
    C   C3   0.558172  0.493490  0.703271  0.847649
    C   C4   0.507854  0.739376  0.474914  0.868266
    H   H1   0.333962  0.136198  0.365090  0.114092
    C   C5   0.691331  0.099510  0.632619  -0.211514
    H   H2   0.690432  0.197391  0.642043  0.150793
    C   C6   0.782540  0.023769  0.705054  -0.061670
    H   H3   0.851256  0.063251  0.764645  0.097393
    C   C7   0.783448  0.898664  0.704646  -0.070877
    H   H4   0.852876  0.839536  0.763929  0.095033
    C   C8   0.693212  0.848701  0.631717  -0.335406
    H   H5   0.693730  0.750809  0.640437  0.183628
    C   C9   0.602844  0.923269  0.554866  0.279452
    C   C10  0.601791  0.050553  0.555395  0.148451
    C   C11  0.506775  0.127415  0.483708  -0.151781
    C   C12  0.409420  0.077127  0.419047  -0.067192
    H   H6   0.335638  0.913690  0.364220  0.105517
    C   C13  0.410524  0.951363  0.418451  -0.057434
    C   C14  0.509073  0.873262  0.482424  -0.281656
    H   H7   0.384506  0.518193  0.878231  0.140981
    H   H8   0.627473  0.483220  0.068429  0.117401
    C   C15  0.424088  0.512454  0.114544  -0.408732
    C   C16  0.522558  0.498338  0.037504  0.053482
    H   H9   0.692241  0.474251  0.864694  0.165125
    C   C17  0.587862  0.489239  0.832074  -0.373348
    C   C18  0.489418  0.503230  0.909138  -0.043137
    H   H10  0.319720  0.527380  0.081893  0.163270
    H   H11  0.893496  0.587032  0.534779  0.189231
    H   H12  0.124815  0.432492  0.390098  0.188736
    N   N1   0.157914  0.552953  0.521843  -0.237264
    C   C19  0.081094  0.493130  0.459022  0.030268
    N   N2   0.853970  0.448260  0.424705  -0.044722
    C   C20  0.935358  0.511174  0.478999  -0.005633
    H   H13  0.111976  0.609042  0.586412  0.251074
    N   N3   0.910233  0.337411  0.374479  0.487294
    O   O9   0.847542  0.295982  0.283340  -0.302892
    O   O10  0.996825  0.259735  0.437220  -0.319495
