# Generated by REPEAT Assigner based on pymatgen
data_DB0-m3_o4_o17_f0_nbo.sym.71_sqe
_audit_creation_date              2022-05-24
_audit_creation_method            REPEAT_Assigner
_cell_length_a                    30.088621
_cell_length_b                    31.059724
_cell_length_c                    21.553532
_cell_angle_alpha                 90.000000
_cell_angle_beta                  134.247583
_cell_angle_gamma                 90.000000
_cell_volume                      14428.869497
_symmetry_space_group_name_H-M    P1
_symmetry_Int_Tables_number       1
loop_
    _symmetry_equiv_pos_site_id
    _symmetry_equiv_pos_as_xyz
    1  x,y,z
loop_
    _atom_site_type_symbol
    _atom_site_label
    _atom_site_fract_x
    _atom_site_fract_y
    _atom_site_fract_z
    _atom_type_partial_charge
    O   O1    0.323666  0.763615  0.139406  -0.689539
    O   O2    0.676334  0.763615  0.860594  -0.689541
    O   O3    0.823666  0.263615  0.139406  -0.689547
    O   O4    0.176334  0.263615  0.860594  -0.689547
    O   O5    0.264082  0.815877  0.033600  -0.676676
    O   O6    0.735918  0.815877  0.966400  -0.676688
    O   O7    0.764082  0.315877  0.033600  -0.676677
    O   O8    0.235918  0.315877  0.966400  -0.676688
    C   C1    0.308376  0.803963  0.114790  0.693606
    C   C2    0.691624  0.803963  0.885210  0.693589
    C   C3    0.808376  0.303963  0.114790  0.693612
    C   C4    0.191624  0.303963  0.885210  0.693593
    O   O9    0.340770  0.716628  0.045829  -0.686640
    O   O10   0.659231  0.716628  0.954171  -0.686655
    O   O11   0.840770  0.216628  0.045829  -0.686638
    O   O12   0.159231  0.216628  0.954171  -0.686652
    O   O13   0.286695  0.770926  0.943851  -0.706648
    O   O14   0.713305  0.770926  0.056149  -0.706660
    O   O15   0.786695  0.270926  0.943851  -0.706643
    O   O16   0.213305  0.270926  0.056149  -0.706655
    C   C5    0.333810  0.744245  0.993670  0.623553
    C   C6    0.666190  0.744245  0.006330  0.623658
    C   C7    0.833810  0.244245  0.993670  0.623547
    C   C8    0.166190  0.244245  0.006330  0.623648
    Zn  Zn1   0.285361  0.709251  0.066945  1.307719
    Zn  Zn2   0.714639  0.709251  0.933055  1.307708
    Zn  Zn3   0.785361  0.209251  0.066945  1.307724
    Zn  Zn4   0.214639  0.209251  0.933055  1.307712
    Zn  Zn5   0.211926  0.777643  0.927344  1.308451
    Zn  Zn6   0.788074  0.777643  0.072656  1.308463
    Zn  Zn7   0.711926  0.277643  0.927344  1.308447
    Zn  Zn8   0.288074  0.277643  0.072656  1.308457
    O   O17   0.232256  0.670932  0.960767  -0.681751
    O   O18   0.767744  0.670932  0.039233  -0.681682
    O   O19   0.732256  0.170932  0.960767  -0.681749
    O   O20   0.267744  0.170932  0.039233  -0.681681
    O   O21   0.174527  0.723307  0.854764  -0.694703
    O   O22   0.825473  0.723307  0.145236  -0.694652
    O   O23   0.674527  0.223307  0.854764  -0.694698
    O   O24   0.325473  0.223307  0.145236  -0.694645
    O   O25   0.211338  0.716673  0.051945  -0.716744
    O   O26   0.788662  0.716673  0.948055  -0.716762
    O   O27   0.711338  0.216673  0.051945  -0.716749
    O   O28   0.288662  0.216673  0.948055  -0.716765
    O   O29   0.155645  0.769466  0.946806  -0.685085
    O   O30   0.844355  0.769466  0.053193  -0.685102
    O   O31   0.655645  0.269466  0.946806  -0.685087
    O   O32   0.344355  0.269466  0.053193  -0.685101
    C   C9    0.188897  0.682921  0.879450  0.752088
    C   C10   0.811104  0.682921  0.120550  0.751859
    C   C11   0.688897  0.182921  0.879450  0.752084
    C   C12   0.311104  0.182921  0.120550  0.751854
    C   C13   0.163361  0.742535  0.000460  0.661251
    C   C14   0.836639  0.742535  0.999540  0.661309
    C   C15   0.663361  0.242535  0.000460  0.661258
    C   C16   0.336639  0.242535  0.999540  0.661312
    C   C17   0.597353  0.783421  0.011355  -0.373531
    C   C18   0.402647  0.783421  0.988645  -0.373559
    C   C19   0.097353  0.283421  0.011355  -0.373530
    C   C20   0.902647  0.283421  0.988645  -0.373554
    C   C21   0.618757  0.744918  0.008429  0.240747
    C   C22   0.381243  0.744918  0.991571  0.240842
    C   C23   0.118757  0.244918  0.008429  0.240751
    C   C24   0.881243  0.244918  0.991571  0.240840
    C   C25   0.593117  0.706632  0.003181  -0.351795
    C   C26   0.406883  0.706632  0.996819  -0.351841
    C   C27   0.093117  0.206632  0.003181  -0.351795
    C   C28   0.906883  0.206632  0.996819  -0.351838
    C   C29   0.546839  0.706671  0.002165  0.225175
    C   C30   0.453161  0.706671  0.997835  0.225180
    C   C31   0.046839  0.206671  0.002165  0.225173
    C   C32   0.953161  0.206671  0.997835  0.225181
    C   C33   0.523963  0.745132  0.002140  -0.055813
    C   C34   0.476037  0.745132  0.997860  -0.055816
    C   C35   0.023963  0.245132  0.002140  -0.055813
    C   C36   0.976037  0.245132  0.997860  -0.055815
    C   C37   0.548848  0.783538  0.006043  0.229396
    C   C38   0.451152  0.783538  0.993957  0.229387
    C   C39   0.048848  0.283538  0.006043  0.229397
    C   C40   0.951152  0.283538  0.993957  0.229381
    C   C41   0.523115  0.668220  0.000486  -0.210704
    C   C42   0.476885  0.668220  0.999514  -0.210694
    C   C43   0.023115  0.168220  0.000486  -0.210704
    C   C44   0.976885  0.168220  0.999514  -0.210696
    C   C45   0.475404  0.821975  0.996514  -0.201918
    C   C46   0.524596  0.821975  0.003486  -0.201926
    C   C47   0.975404  0.321975  0.996514  -0.201913
    C   C48   0.024596  0.321975  0.003486  -0.201926
    H   H1    0.616547  0.813481  0.013626  0.162639
    H   H2    0.383453  0.813481  0.986374  0.162651
    H   H3    0.116547  0.313481  0.013626  0.162638
    H   H4    0.883453  0.313481  0.986374  0.162650
    H   H5    0.610198  0.676457  0.001582  0.157952
    H   H6    0.389802  0.676457  0.998418  0.157973
    H   H7    0.110198  0.176457  0.001582  0.157951
    H   H8    0.889802  0.176457  0.998418  0.157971
    H   H9    0.541024  0.637970  0.000786  0.131880
    H   H10   0.458976  0.637970  0.999214  0.131877
    H   H11   0.041024  0.137970  0.000786  0.131881
    H   H12   0.958976  0.137970  0.999214  0.131878
    H   H13   0.456455  0.852229  0.994020  0.132090
    H   H14   0.543545  0.852229  0.005980  0.132093
    H   H15   0.956455  0.352229  0.994020  0.132089
    H   H16   0.043545  0.352229  0.005980  0.132092
    C   C49   0.404802  0.835511  0.251604  -0.192756
    C   C50   0.595198  0.835511  0.748396  -0.192768
    C   C51   0.904802  0.335511  0.251604  -0.192767
    C   C52   0.095198  0.335511  0.748396  -0.192777
    C   C53   0.341903  0.837409  0.181117  0.072748
    C   C54   0.658097  0.837409  0.818883  0.072799
    C   C55   0.841903  0.337409  0.181117  0.072751
    C   C56   0.158097  0.337409  0.818883  0.072801
    C   C57   0.311181  0.872834  0.175489  -0.244840
    C   C58   0.688819  0.872834  0.824511  -0.244875
    C   C59   0.811181  0.372834  0.175489  -0.244843
    C   C60   0.188819  0.372834  0.824511  -0.244878
    H   H17   0.261546  0.875912  0.121510  0.153775
    H   H18   0.738454  0.875912  0.878490  0.153785
    H   H19   0.761546  0.375912  0.121510  0.153775
    H   H20   0.238454  0.375912  0.878490  0.153786
    C   C61   0.343434  0.903713  0.241013  -0.104382
    C   C62   0.656566  0.903713  0.758986  -0.104396
    C   C63   0.843434  0.403713  0.241013  -0.104375
    C   C64   0.156566  0.403713  0.758986  -0.104387
    H   H21   0.318380  0.930518  0.236503  0.130197
    H   H22   0.681620  0.930518  0.763497  0.130220
    H   H23   0.818380  0.430518  0.236503  0.130195
    H   H24   0.181620  0.430518  0.763497  0.130214
    C   C65   0.407285  0.900780  0.310548  -0.168539
    C   C66   0.592715  0.900780  0.689452  -0.168545
    C   C67   0.907285  0.400780  0.310548  -0.168554
    C   C68   0.092715  0.400780  0.689452  -0.168552
    C   C69   0.435979  0.866140  0.311577  0.327282
    C   C70   0.564021  0.866140  0.688423  0.327277
    C   C71   0.935979  0.366140  0.311577  0.327294
    C   C72   0.064021  0.366140  0.688423  0.327282
    C   C73   0.497202  0.844976  0.363867  -0.419771
    C   C74   0.502798  0.844976  0.636133  -0.419774
    C   C75   0.997202  0.344976  0.363867  -0.419789
    C   C76   0.002798  0.344976  0.636133  -0.419778
    C   C77   0.460553  0.809031  0.293021  0.205520
    C   C78   0.539447  0.809031  0.706979  0.205520
    C   C79   0.960553  0.309031  0.293021  0.205548
    C   C80   0.039447  0.309031  0.706979  0.205537
    H   H25   0.528869  0.863977  0.364824  0.142758
    H   H26   0.471131  0.863977  0.635176  0.142753
    H   H27   0.028869  0.363977  0.364824  0.142759
    H   H28   0.971131  0.363977  0.635176  0.142751
    H   H29   0.516391  0.833893  0.427540  0.112502
    H   H30   0.483609  0.833893  0.572460  0.112503
    H   H31   0.016391  0.333893  0.427540  0.112504
    H   H32   0.983609  0.333893  0.572460  0.112503
    H   H33   0.459832  0.777512  0.316473  0.030865
    H   H34   0.540168  0.777512  0.683527  0.030867
    H   H35   0.959832  0.277512  0.316473  0.030861
    H   H36   0.040168  0.277512  0.683527  0.030864
    C   C81   0.869383  0.738021  0.922028  -0.376100
    C   C82   0.130617  0.738021  0.077972  -0.376106
    C   C83   0.369383  0.238021  0.922028  -0.376076
    C   C84   0.630617  0.238021  0.077972  -0.376119
    C   C85   0.884909  0.740681  0.999110  0.234720
    C   C86   0.115091  0.740681  0.000890  0.234749
    C   C87   0.384909  0.240681  0.999110  0.234698
    C   C88   0.615091  0.240681  0.000890  0.234749
    C   C89   0.946475  0.742327  0.076468  -0.407545
    C   C90   0.053526  0.742327  0.923531  -0.407559
    C   C91   0.446475  0.242327  0.076468  -0.407469
    C   C92   0.553526  0.242327  0.923531  -0.407559
    C   C93   0.992505  0.740580  0.076936  0.264863
    C   C94   0.007495  0.740580  0.923064  0.264824
    C   C95   0.492505  0.240580  0.076936  0.264698
    C   C96   0.507495  0.240580  0.923064  0.264855
    C   C97   0.976977  0.739426  0.999806  -0.057044
    C   C98   0.023023  0.739426  0.000194  -0.057032
    C   C99   0.476977  0.239426  0.999806  -0.056909
    C   C100  0.523023  0.239426  0.000194  -0.057117
    C   C101  0.915412  0.738586  0.922308  0.239007
    C   C102  0.084588  0.738586  0.077692  0.239006
    C   C103  0.415412  0.238586  0.922308  0.238949
    C   C104  0.584588  0.238586  0.077692  0.239061
    C   C105  0.054065  0.740262  0.154463  -0.221473
    C   C106  0.945935  0.740263  0.845537  -0.221453
    C   C107  0.554065  0.240263  0.154463  -0.221362
    C   C108  0.445935  0.240262  0.845537  -0.221473
    C   C109  0.100034  0.738693  0.154847  -0.227269
    C   C110  0.899966  0.738693  0.845153  -0.227270
    C   C111  0.600034  0.238693  0.154847  -0.227330
    C   C112  0.399966  0.238693  0.845153  -0.227250
    H   H37   0.821141  0.737311  0.861378  0.172578
    H   H38   0.178859  0.737311  0.138622  0.172578
    H   H39   0.321141  0.237311  0.861378  0.172576
    H   H40   0.678859  0.237311  0.138622  0.172584
    H   H41   0.958655  0.743847  0.136931  0.174261
    H   H42   0.041345  0.743847  0.863069  0.174287
    H   H43   0.458655  0.243847  0.136931  0.174239
    H   H44   0.541345  0.243847  0.863069  0.174285
    H   H45   0.066554  0.740975  0.215185  0.140480
    H   H46   0.933446  0.740975  0.784815  0.140476
    H   H47   0.566554  0.240975  0.215185  0.140471
    H   H48   0.433446  0.240975  0.784815  0.140479
    H   H49   0.148142  0.738223  0.215847  0.137029
    H   H50   0.851858  0.738223  0.784153  0.137026
    H   H51   0.648142  0.238223  0.215847  0.137031
    H   H52   0.351858  0.238223  0.784153  0.137025
    C   C113  0.183163  0.613778  0.817720  0.144383
    C   C114  0.816838  0.613778  0.182280  0.144357
    C   C115  0.683163  0.113778  0.817720  0.144388
    C   C116  0.316838  0.113778  0.182280  0.144359
    C   C117  0.154375  0.649597  0.812956  -0.106656
    C   C118  0.845625  0.649597  0.187044  -0.106474
    C   C119  0.654375  0.149597  0.812956  -0.106659
    C   C120  0.345625  0.149597  0.187044  -0.106474
    C   C121  0.090802  0.652777  0.741629  -0.177683
    C   C122  0.909198  0.652777  0.258371  -0.177800
    C   C123  0.590802  0.152777  0.741629  -0.177679
    C   C124  0.409198  0.152777  0.258371  -0.177801
    H   H53   0.065624  0.680233  0.734877  0.152667
    H   H54   0.934376  0.680233  0.265123  0.152709
    H   H55   0.565624  0.180233  0.734877  0.152666
    H   H56   0.434376  0.180233  0.265123  0.152709
    C   C125  0.058671  0.620139  0.679478  -0.182365
    C   C126  0.941329  0.620139  0.320522  -0.182336
    C   C127  0.558671  0.120139  0.679478  -0.182371
    C   C128  0.441329  0.120139  0.320522  -0.182344
    H   H57   0.009103  0.622939  0.624733  0.152310
    H   H58   0.990897  0.622939  0.375267  0.152319
    H   H59   0.509103  0.122939  0.624733  0.152312
    H   H60   0.490897  0.122939  0.375267  0.152322
    C   C129  0.090349  0.585152  0.685802  -0.042331
    C   C130  0.909651  0.585152  0.314198  -0.042345
    C   C131  0.590349  0.085152  0.685802  -0.042316
    C   C132  0.409651  0.085152  0.314198  -0.042325
    C   C133  0.153185  0.583956  0.756359  0.086127
    C   C134  0.846815  0.583956  0.243641  0.086112
    C   C135  0.653185  0.083956  0.756359  0.086116
    C   C136  0.346815  0.083956  0.243641  0.086102
    C   C137  0.209368  0.557816  0.798604  -0.157777
    C   C138  0.790632  0.557816  0.201396  -0.157771
    C   C139  0.709368  0.057816  0.798604  -0.157769
    C   C140  0.290632  0.057816  0.201396  -0.157773
    C   C141  0.244755  0.593122  0.870586  -0.176385
    C   C142  0.755245  0.593122  0.129414  -0.176387
    C   C143  0.744755  0.093122  0.870586  -0.176387
    C   C144  0.255245  0.093122  0.129414  -0.176384
    H   H61   0.208014  0.526222  0.821219  0.086781
    H   H62   0.791986  0.526222  0.178781  0.086787
    H   H63   0.708014  0.026222  0.821219  0.086779
    H   H64   0.291986  0.026222  0.178781  0.086788
    H   H65   0.221781  0.557394  0.760769  0.074552
    H   H66   0.778219  0.557394  0.239230  0.074556
    H   H67   0.721781  0.057394  0.760769  0.074550
    H   H68   0.278219  0.057394  0.239230  0.074557
    H   H69   0.263456  0.581216  0.933555  0.075986
    H   H70   0.736544  0.581216  0.066445  0.075975
    H   H71   0.763456  0.081216  0.933555  0.075985
    H   H72   0.236544  0.081216  0.066445  0.075973
    H   H73   0.276673  0.612544  0.872599  0.084382
    H   H74   0.723327  0.612544  0.127401  0.084393
    H   H75   0.776673  0.112544  0.872599  0.084383
    H   H76   0.223327  0.112544  0.127401  0.084394
    O   O33   0.995897  0.538387  0.414166  -0.700914
    O   O34   0.004104  0.538387  0.585834  -0.700900
    O   O35   0.495897  0.038387  0.414166  -0.700907
    O   O36   0.504104  0.038387  0.585834  -0.700886
    O   O37   0.913867  0.536586  0.403255  -0.663367
    O   O38   0.086133  0.536586  0.596745  -0.663348
    O   O39   0.413867  0.036586  0.403255  -0.663357
    O   O40   0.586133  0.036586  0.596745  -0.663333
    C   C145  0.941373  0.551673  0.380366  0.704150
    C   C146  0.058627  0.551673  0.619634  0.704110
    C   C147  0.441373  0.051673  0.380366  0.704132
    C   C148  0.558627  0.051673  0.619634  0.704087
    O   O41   0.495646  0.945845  0.413810  -0.709364
    O   O42   0.504354  0.945845  0.586190  -0.709379
    O   O43   0.995646  0.445845  0.413810  -0.709367
    O   O44   0.004354  0.445845  0.586190  -0.709375
    O   O45   0.413862  0.947621  0.403355  -0.688780
    O   O46   0.586138  0.947621  0.596645  -0.688803
    O   O47   0.913862  0.447621  0.403355  -0.688782
    O   O48   0.086138  0.447621  0.596645  -0.688785
    C   C149  0.441041  0.932644  0.379973  0.754760
    C   C150  0.558959  0.932644  0.620027  0.754802
    C   C151  0.941041  0.432644  0.379973  0.754773
    C   C152  0.058959  0.432644  0.620027  0.754794
    Zn  Zn9   0.552126  0.992044  0.503881  1.291643
    Zn  Zn10  0.447874  0.992044  0.496119  1.291659
    Zn  Zn11  0.052126  0.492044  0.503881  1.291646
    Zn  Zn12  0.947874  0.492044  0.496119  1.291668
    C   C153  0.474935  0.807209  0.238119  -0.244650
    C   C154  0.537459  0.785908  0.288598  0.206874
    C   C155  0.548115  0.779130  0.230185  -0.217333
    H   H77   0.513706  0.755805  0.178506  0.066675
    H   H78   0.543422  0.810197  0.200685  0.050294
    H   H79   0.595445  0.766125  0.268862  0.027195
    H   H80   0.574923  0.806592  0.343875  -0.024108
    H   H81   0.538463  0.754272  0.313390  -0.047107
    H   H82   0.438450  0.788063  0.179056  0.104582
    H   H83   0.475231  0.840186  0.218671  0.061507
    C   C156  0.525065  0.807209  0.761881  -0.244612
    C   C157  0.462541  0.785908  0.711402  0.206875
    C   C158  0.451885  0.779130  0.769815  -0.217328
    H   H84   0.486294  0.755805  0.821494  0.066672
    H   H85   0.456578  0.810197  0.799315  0.050293
    H   H86   0.404556  0.766125  0.731138  0.027195
    H   H87   0.425077  0.806592  0.656125  -0.024110
    H   H88   0.461537  0.754272  0.686609  -0.047110
    H   H89   0.561550  0.788063  0.820944  0.104554
    H   H90   0.524769  0.840186  0.781329  0.061500
    C   C159  0.974935  0.307209  0.238119  -0.244671
    C   C160  0.037459  0.285908  0.288598  0.206881
    C   C161  0.048115  0.279130  0.230185  -0.217335
    H   H91   0.013706  0.255805  0.178506  0.066676
    H   H92   0.043422  0.310197  0.200685  0.050295
    H   H93   0.095445  0.266125  0.268862  0.027194
    H   H94   0.074923  0.306592  0.343875  -0.024108
    H   H95   0.038463  0.254272  0.313390  -0.047109
    H   H96   0.938450  0.288063  0.179056  0.104587
    H   H97   0.975231  0.340186  0.218671  0.061511
    C   C162  0.025065  0.307209  0.761881  -0.244616
    C   C163  0.962541  0.285908  0.711402  0.206866
    C   C164  0.951885  0.279130  0.769815  -0.217322
    H   H98   0.986294  0.255806  0.821494  0.066672
    H   H99   0.956578  0.310197  0.799315  0.050290
    H   H100  0.904555  0.266125  0.731138  0.027192
    H   H101  0.925077  0.306592  0.656125  -0.024109
    H   H102  0.961537  0.254272  0.686609  -0.047110
    H   H103  0.061550  0.288063  0.820944  0.104557
    H   H104  0.024769  0.340186  0.781329  0.061501
