# Generated by REPEAT Assigner based on pymatgen
data_DB0-m2_o23_uni
_audit_creation_date              2022-05-24
_audit_creation_method            REPEAT_Assigner
_cell_length_a                    23.771044
_cell_length_b                    38.989426
_cell_length_c                    33.096281
_cell_angle_alpha                 122.012689
_cell_angle_beta                  81.797566
_cell_angle_gamma                 88.624166
_cell_volume                      25561.502294
_symmetry_space_group_name_H-M    P1
_symmetry_Int_Tables_number       1
loop_
    _symmetry_equiv_pos_site_id
    _symmetry_equiv_pos_as_xyz
    1  x,y,z
loop_
    _atom_site_type_symbol
    _atom_site_label
    _atom_site_fract_x
    _atom_site_fract_y
    _atom_site_fract_z
    _atom_type_partial_charge
    O   O1    0.996325  0.091000  0.548812  -0.637846
    O   O2    0.021768  0.036296  0.471176  -0.663298
    C   C1    0.015464  0.075982  0.502693  0.808136
    O   O3    0.057241  0.050904  0.580145  -0.632715
    O   O4    0.081819  0.995740  0.502601  -0.604562
    C   C2    0.095628  0.021943  0.544437  0.849644
    Cu  Cu1   0.976297  0.058510  0.576769  1.047393
    Cu  Cu2   0.005566  0.995142  0.487707  1.022095
    O   O5    0.961450  0.018876  0.594746  -0.623552
    O   O6    0.986629  0.963391  0.517534  -0.656716
    O   O7    0.898994  0.055560  0.560976  -0.639015
    O   O8    0.925183  0.000296  0.483690  -0.636603
    C   C3    0.968503  0.979277  0.564184  0.796591
    C   C4    0.885741  0.027988  0.519161  0.856060
    O   O9    0.471486  0.883018  0.358413  -0.653239
    O   O10   0.491720  0.825599  0.282353  -0.626753
    C   C5    0.474514  0.864709  0.311220  0.798042
    O   O11   0.570131  0.862485  0.380731  -0.626405
    O   O12   0.590846  0.805220  0.304552  -0.629864
    C   C6    0.606925  0.837612  0.340956  0.832334
    Cu  Cu3   0.489710  0.855557  0.391708  1.024584
    Cu  Cu4   0.512382  0.789873  0.303931  1.035897
    O   O13   0.509139  0.818041  0.412201  -0.661450
    O   O14   0.527906  0.761184  0.335698  -0.632020
    O   O15   0.411710  0.842013  0.392149  -0.635343
    O   O16   0.430315  0.784995  0.315714  -0.619258
    C   C7    0.524257  0.778491  0.382605  0.812907
    C   C8    0.394202  0.810787  0.355903  0.860135
    O   O17   0.136575  0.360492  0.491611  -0.643085
    O   O18   0.121393  0.372126  0.567727  -0.637083
    C   C9    0.123563  0.347482  0.520924  0.812715
    O   O19   0.233448  0.400435  0.509814  -0.613330
    O   O20   0.218490  0.411877  0.585872  -0.625570
    C   C10   0.253005  0.400952  0.545136  0.853333
    Cu  Cu5   0.154318  0.416267  0.512369  0.987713
    Cu  Cu6   0.135944  0.429212  0.599762  1.030964
    O   O21   0.170933  0.473575  0.545790  -0.650847
    O   O22   0.154471  0.484345  0.621504  -0.615559
    O   O23   0.073040  0.434251  0.525276  -0.620110
    O   O24   0.056175  0.445324  0.601162  -0.627483
    C   C11   0.169100  0.497607  0.592861  0.793298
    C   C12   0.037780  0.445358  0.565508  0.836319
    O   O25   0.784714  0.068092  0.015280  -0.623347
    O   O26   0.787982  0.014484  0.025170  -0.649599
    C   C13   0.777839  0.053888  0.043513  0.847418
    O   O27   0.730804  0.023190  0.936441  -0.637673
    O   O28   0.735729  0.969086  0.945373  -0.617540
    C   C14   0.707015  0.993475  0.937619  0.833087
    Cu  Cu7   0.810092  0.034868  0.945224  1.005418
    Cu  Cu8   0.814446  0.972602  0.955555  0.973474
    O   O29   0.836948  0.995004  0.876492  -0.628999
    O   O30   0.841012  0.940389  0.884501  -0.650791
    O   O31   0.890303  0.036526  0.954772  -0.635819
    O   O32   0.892990  0.982289  0.963558  -0.613728
    C   C15   0.848009  0.955763  0.857215  0.850817
    C   C16   0.918132  0.011146  0.961952  0.845088
    O   O33   0.332015  0.884436  0.004089  -0.639299
    O   O34   0.331189  0.830595  0.013602  -0.625600
    C   C17   0.336697  0.869060  0.030791  0.837230
    O   O35   0.236032  0.862759  0.961265  -0.612463
    O   O36   0.234886  0.809005  0.970971  -0.632444
    C   C18   0.207968  0.840297  0.973692  0.839120
    Cu  Cu9   0.317799  0.853223  0.936738  0.964732
    Cu  Cu10  0.317970  0.791674  0.948460  1.008133
    O   O37   0.303714  0.812497  0.871075  -0.653431
    O   O38   0.304837  0.759388  0.881904  -0.625340
    O   O39   0.399839  0.837746  0.914806  -0.600740
    O   O40   0.401196  0.784342  0.925171  -0.621941
    C   C19   0.299249  0.773767  0.854587  0.836870
    C   C20   0.428122  0.807632  0.913055  0.817166
    O   O41   0.682229  0.371586  0.292331  -0.612870
    O   O42   0.658710  0.385183  0.369143  -0.651360
    C   C21   0.676070  0.359022  0.322274  0.793053
    O   O43   0.744279  0.437483  0.326470  -0.640540
    O   O44   0.719940  0.451377  0.403383  -0.628696
    C   C22   0.758466  0.446896  0.367892  0.856561
    Cu  Cu11  0.666718  0.428202  0.311538  1.033775
    Cu  Cu12  0.639481  0.444489  0.400190  0.990743
    O   O45   0.646274  0.486622  0.340844  -0.643708
    O   O46   0.622717  0.501323  0.418108  -0.640937
    O   O47   0.585673  0.420080  0.309063  -0.623683
    O   O48   0.562750  0.434396  0.386260  -0.611839
    C   C23   0.628014  0.513163  0.387259  0.816337
    C   C24   0.548002  0.424019  0.344925  0.855704
    C   C25   0.739499  0.948966  0.480981  -0.207235
    C   C26   0.815562  0.931509  0.411578  -0.142146
    C   C27   0.784787  0.895595  0.380070  -0.102815
    H   H1    0.714671  0.888284  0.448166  0.014009
    H   H2    0.769814  0.935735  0.493089  0.038594
    H   H3    0.837617  0.942679  0.389635  0.023370
    H   H4    0.847790  0.921737  0.425742  0.057586
    H   H5    0.798079  0.869414  0.382558  0.021337
    H   H6    0.796256  0.886816  0.341852  0.035818
    C   C28   0.665367  0.846264  0.337602  -0.221108
    C   C29   0.772599  0.965398  0.453432  0.624202
    C   C30   0.705104  0.916312  0.448278  -0.039995
    C   C31   0.720632  0.907210  0.397204  0.581231
    C   C32   0.703474  0.944986  0.397352  -0.114421
    C   C33   0.731272  0.980446  0.433671  -0.199689
    C   C34   0.690527  0.873524  0.364634  -0.278875
    C   C35   0.802687  0.999107  0.485981  -0.235356
    C   C36   0.827271  0.027239  0.512151  -0.250727
    H   H7    0.697771  0.003591  0.463869  0.051826
    H   H8    0.754612  0.994452  0.415608  0.055845
    H   H9    0.656279  0.952517  0.407413  0.041108
    H   H10   0.710077  0.974001  0.513186  0.049352
    H   H11   0.658764  0.927122  0.462073  0.019855
    H   H12   0.717668  0.939278  0.360681  0.028189
    C   C37   0.212304  0.870911  0.435057  -0.171372
    C   C38   0.275011  0.904701  0.403949  -0.232233
    C   C39   0.242960  0.946400  0.441752  -0.111023
    H   H13   0.145459  0.915038  0.446220  0.023589
    H   H14   0.196371  0.852615  0.400547  0.055174
    H   H15   0.319989  0.907954  0.393285  0.079981
    H   H16   0.254475  0.890379  0.371512  0.039067
    H   H17   0.211282  0.954520  0.425716  0.038589
    H   H18   0.273632  0.969391  0.453852  0.019457
    C   C40   0.153392  0.018240  0.551062  -0.287850
    C   C41   0.273602  0.878186  0.424812  0.605554
    C   C42   0.174968  0.911472  0.467186  -0.074748
    C   C43   0.212519  0.945704  0.484779  0.676345
    C   C44   0.256555  0.938275  0.509047  -0.135870
    C   C45   0.296483  0.899963  0.471825  -0.181444
    C   C46   0.177242  0.984845  0.519563  -0.254453
    C   C47   0.308956  0.839025  0.390057  -0.125825
    C   C48   0.334436  0.805685  0.360258  -0.347389
    H   H19   0.299626  0.879713  0.485670  0.045872
    H   H20   0.339554  0.908359  0.465370  0.061863
    H   H21   0.234564  0.934607  0.538184  0.019664
    H   H22   0.210468  0.854109  0.453633  0.034929
    H   H23   0.149461  0.912404  0.498612  0.023674
    H   H24   0.281676  0.964524  0.525077  0.053004
    C   C49   0.137154  0.213267  0.494358  -0.166745
    C   C50   0.057960  0.211240  0.452571  -0.174444
    C   C51   0.046620  0.171168  0.447829  -0.130794
    H   H25   0.147309  0.148498  0.464104  0.041375
    H   H26   0.167387  0.203201  0.460259  0.035273
    H   H27   0.017126  0.227604  0.455777  0.028735
    H   H28   0.087760  0.205019  0.419820  0.038148
    H   H29   0.075145  0.145832  0.415202  0.032335
    H   H30   0.001470  0.166200  0.443892  0.040800
    C   C52   0.030353  0.103514  0.487044  -0.162276
    C   C53   0.084012  0.237389  0.497245  0.723016
    C   C54   0.120801  0.176210  0.495304  -0.145520
    C   C55   0.057925  0.172253  0.492449  0.585325
    C   C56   0.022276  0.209127  0.537153  -0.168140
    C   C57   0.041005  0.247920  0.541891  -0.140186
    C   C58   0.042827  0.134559  0.489656  -0.308695
    C   C59   0.099104  0.275069  0.500000  -0.398715
    C   C60   0.111460  0.305882  0.501943  -0.133473
    H   H31   0.060911  0.264844  0.574497  0.041429
    H   H32   0.003107  0.267325  0.545857  0.032259
    H   H33   0.027865  0.209191  0.569886  0.050352
    H   H34   0.158306  0.232697  0.525547  0.050935
    H   H35   0.128794  0.179630  0.529394  0.034448
    H   H36   0.976453  0.207824  0.533987  0.050362
    C   C61   0.844856  0.945532  0.714207  -0.159306
    C   C62   0.934738  0.900481  0.689026  -0.201453
    C   C63   0.947881  0.903871  0.645099  -0.138839
    H   H37   0.842114  0.931999  0.642352  0.035766
    H   H38   0.821743  0.918216  0.700770  0.032557
    H   H39   0.975329  0.896657  0.699842  0.035011
    H   H40   0.911679  0.873569  0.679721  0.056873
    H   H41   0.926462  0.881102  0.616011  0.029819
    H   H42   0.994762  0.897741  0.631699  0.048433
    C   C64   0.956333  0.953323  0.582443  -0.170117
    C   C65   0.898050  0.938735  0.730686  0.684855
    C   C66   0.861745  0.953127  0.673841  -0.121399
    C   C67   0.926387  0.946318  0.658892  0.608300
    C   C68   0.952307  0.977372  0.701382  -0.171552
    C   C69   0.931769  0.974829  0.745226  -0.102225
    C   C70   0.942799  0.950669  0.617301  -0.317296
    C   C71   0.881651  0.934307  0.772215  -0.332808
    C   C72   0.868270  0.929740  0.805632  -0.197569
    H   H43   0.904077  0.003248  0.773680  0.038736
    H   H44   0.969202  0.971243  0.759744  0.023342
    H   H45   0.939282  0.008437  0.710196  0.050701
    H   H46   0.816264  0.972227  0.745079  0.046339
    H   H47   0.846024  0.984927  0.686772  0.031306
    H   H48   0.999646  0.971073  0.691723  0.048854
    C   C73   0.448097  0.851718  0.169875  -0.190455
    C   C74   0.436169  0.926937  0.220145  -0.126716
    C   C75   0.419313  0.926570  0.177354  -0.201021
    H   H49   0.459691  0.848285  0.101896  0.039492
    H   H50   0.495028  0.852558  0.164130  0.051571
    H   H51   0.413318  0.954217  0.254395  0.026681
    H   H52   0.482939  0.928152  0.218556  0.038553
    H   H53   0.458416  0.923569  0.152481  0.042104
    H   H54   0.392767  0.955564  0.190614  0.054589
    C   C76   0.349063  0.894048  0.079099  -0.207871
    C   C77   0.420476  0.888816  0.218576  0.662406
    C   C78   0.423980  0.851543  0.129658  -0.118379
    C   C79   0.385687  0.891013  0.150464  0.618734
    C   C80   0.334950  0.893565  0.185821  -0.068219
    C   C81   0.355970  0.889112  0.224245  -0.212294
    C   C82   0.365560  0.892317  0.111061  -0.312388
    C   C83   0.440628  0.887577  0.258009  -0.322861
    C   C84   0.457671  0.887220  0.290625  -0.171871
    H   H55   0.344366  0.860192  0.220158  0.043332
    H   H56   0.335337  0.914910  0.260720  0.050265
    H   H57   0.308357  0.868931  0.166152  0.031061
    H   H58   0.439390  0.823609  0.169168  0.054645
    H   H59   0.398778  0.825461  0.112484  0.043278
    H   H60   0.308566  0.923424  0.203435  0.020127
    C   C85   0.577558  0.649327  0.350426  -0.247606
    C   C86   0.511863  0.679129  0.428960  -0.185288
    C   C87   0.525077  0.639507  0.426156  -0.115074
    H   H61   0.571194  0.587078  0.329518  0.038798
    H   H62   0.539508  0.643833  0.332851  0.063028
    H   H63   0.502866  0.704754  0.467457  0.035702
    H   H64   0.473609  0.677443  0.412613  0.054249
    H   H65   0.496895  0.617168  0.404272  0.022298
    H   H66   0.516976  0.645293  0.463215  0.033244
    C   C88   0.613176  0.555484  0.404047  -0.138828
    C   C89   0.562616  0.686202  0.401915  0.695408
    C   C90   0.596418  0.612073  0.350985  -0.082702
    C   C91   0.587190  0.622456  0.402772  0.611228
    C   C92   0.625085  0.654658  0.430642  -0.112031
    C   C93   0.613412  0.691270  0.426870  -0.169417
    C   C94   0.601414  0.585580  0.403287  -0.372452
    C   C95   0.548400  0.723098  0.401438  -0.348379
    C   C96   0.536799  0.753556  0.401379  -0.154606
    H   H67   0.651688  0.693878  0.405640  0.036498
    H   H68   0.604211  0.719308  0.463727  0.039093
    H   H69   0.670716  0.641927  0.415482  0.034355
    H   H70   0.612707  0.654914  0.329485  0.055030
    H   H71   0.642429  0.602000  0.334541  0.036039
    H   H72   0.616025  0.664328  0.469272  0.024713
    C   C97   0.283117  0.602848  0.677818  -0.123727
    C   C98   0.187447  0.623654  0.729684  -0.158671
    C   C99   0.210314  0.661781  0.766886  -0.117255
    H   H73   0.326728  0.640256  0.736964  0.036745
    H   H74   0.291550  0.581240  0.688984  0.030840
    H   H75   0.141197  0.630639  0.731904  0.041379
    H   H76   0.193138  0.599546  0.737484  0.039120
    H   H77   0.232128  0.654991  0.789754  0.029065
    H   H78   0.174203  0.686123  0.790310  0.041353
    C   C100  0.287108  0.746622  0.806507  -0.175406
    C   C101  0.219438  0.608952  0.679166  0.648691
    C   C102  0.303422  0.643378  0.712138  -0.098681
    C   C103  0.252452  0.675902  0.741303  0.620032
    C   C104  0.223490  0.681725  0.707013  -0.187318
    C   C105  0.207890  0.641163  0.667882  -0.121175
    C   C106  0.271546  0.714653  0.777246  -0.338208
    C   C107  0.200321  0.570225  0.643201  -0.361301
    C   C108  0.184271  0.538664  0.613517  -0.144781
    H   H79   0.233912  0.631860  0.632298  0.020116
    H   H80   0.161935  0.644462  0.666293  0.036232
    H   H81   0.252813  0.694041  0.689890  0.057026
    H   H82   0.306859  0.590118  0.640473  0.022967
    H   H83   0.332780  0.652250  0.690911  0.013566
    H   H84   0.184118  0.703562  0.727579  0.034326
    C   C109  0.863888  0.477209  0.527185  -0.108626
    C   C110  0.919399  0.410824  0.464356  -0.126022
    C   C111  0.884646  0.409956  0.428846  -0.169737
    H   H85   0.792533  0.466921  0.490086  0.051963
    H   H86   0.838763  0.461251  0.541745  0.025205
    H   H87   0.962950  0.394790  0.444842  0.033448
    H   H88   0.898304  0.395189  0.481209  0.035324
    H   H89   0.843941  0.397435  0.431751  0.041076
    H   H90   0.909264  0.390235  0.391426  0.043945
    C   C112  0.816901  0.451891  0.374579  -0.230222
    C   C113  0.923639  0.454631  0.503254  0.592947
    C   C114  0.834572  0.478673  0.490227  -0.152852
    C   C115  0.871772  0.452824  0.440370  0.673939
    C   C116  0.927472  0.470925  0.440105  -0.224209
    C   C117  0.956263  0.474748  0.480138  -0.065912
    C   C118  0.841728  0.451798  0.403958  -0.284133
    C   C119  0.953678  0.455696  0.539686  -0.279609
    C   C120  0.978357  0.457425  0.570110  -0.225028
    H   H91   0.956709  0.507412  0.507932  0.015400
    H   H92   0.000961  0.459780  0.464732  0.038838
    H   H93   0.918768  0.501466  0.445990  0.053277
    H   H94   0.866415  0.508694  0.557387  0.035755
    H   H95   0.827698  0.510609  0.500014  0.025617
    H   H96   0.956181  0.450873  0.404594  0.052354
    C   C121  0.469138  0.385139  0.422320  -0.016933
    C   C122  0.383473  0.384097  0.387466  -0.172318
    C   C123  0.344556  0.382584  0.426826  -0.099940
    H   H97   0.428747  0.343506  0.438004  0.049334
    H   H98   0.490041  0.355939  0.389537  0.015056
    H   H99   0.358722  0.399002  0.373748  0.056844
    H   H100  0.400659  0.352679  0.357173  0.035491
    H   H101  0.336859  0.350636  0.413364  0.033542
    H   H102  0.303118  0.401196  0.436475  0.038873
    C   C124  0.313179  0.390131  0.539097  -0.324946
    C   C125  0.432527  0.407968  0.408048  0.591595
    C   C126  0.431773  0.376668  0.456469  -0.238255
    C   C127  0.372442  0.399410  0.471155  0.604349
    C   C128  0.377376  0.444215  0.491899  -0.225843
    C   C129  0.408660  0.449441  0.452582  -0.057251
    C   C130  0.337662  0.394425  0.507734  -0.158740
    C   C131  0.467238  0.412936  0.371461  -0.215182
    C   C132  0.489964  0.416486  0.339022  -0.301941
    H   H103  0.444057  0.468144  0.465990  0.022046
    H   H104  0.378544  0.465102  0.443110  0.008936
    H   H105  0.401474  0.456015  0.522141  0.048161
    H   H106  0.502588  0.403828  0.440712  0.024152
    H   H107  0.451078  0.386811  0.489081  0.068365
    H   H108  0.334074  0.461552  0.505758  0.071397
    C   C133  0.635910  0.892944  0.917813  -0.049184
    C   C134  0.568882  0.905633  0.875271  -0.205483
    C   C135  0.541791  0.868277  0.867689  -0.063477
    H   H109  0.625387  0.829198  0.883743  0.060526
    H   H110  0.669182  0.880381  0.884738  0.014908
    H   H111  0.535891  0.928015  0.878591  0.046343
    H   H112  0.603049  0.896633  0.843709  0.043608
    H   H113  0.566159  0.840635  0.834757  0.022537
    H   H114  0.497011  0.870801  0.862813  0.024750
    C   C136  0.489457  0.801195  0.899035  -0.260131
    C   C137  0.594135  0.924712  0.921106  0.653408
    C   C138  0.604164  0.858837  0.915575  -0.204835
    C   C139  0.542581  0.865089  0.911320  0.568192
    C   C140  0.512999  0.904327  0.956657  -0.099988
    C   C141  0.546351  0.939395  0.964325  -0.157488
    C   C142  0.512768  0.830536  0.905597  -0.222278
    C   C143  0.624009  0.959220  0.926725  -0.292023
    C   C144  0.649012  0.987048  0.930090  -0.217245
    H   H115  0.564838  0.951216  0.997625  0.031298
    H   H116  0.517126  0.964153  0.968597  0.038695
    H   H117  0.510634  0.901557  0.988500  0.035093
    H   H118  0.656811  0.907086  0.950044  0.032322
    H   H119  0.605077  0.858845  0.948985  0.038397
    H   H120  0.468969  0.910322  0.952602  0.042525
    C   C145  0.062828  0.940862  0.031199  -0.147157
    C   C146  0.042964  0.886215  0.952050  -0.219093
    C   C147  0.006909  0.918559  0.951494  -0.060041
    H   H121  0.989047  0.982174  0.047054  0.034310
    H   H122  0.030725  0.930316  0.048727  0.032199
    H   H123  0.062561  0.861922  0.914379  0.043957
    H   H124  0.015378  0.872702  0.968637  0.065719
    H   H125  0.963306  0.923912  0.972437  0.028628
    H   H126  0.003811  0.907980  0.913575  0.029340
    C   C148  0.976962  0.014441  0.967844  -0.259794
    C   C149  0.089733  0.905272  0.981097  0.589267
    C   C150  0.033803  0.973668  0.027044  -0.113278
    C   C151  0.034236  0.957849  0.974108  0.623176
    C   C152  0.095637  0.949407  0.948031  -0.244205
    C   C153  0.129767  0.920632  0.955763  -0.023008
    C   C154  0.002120  0.988322  0.970086  -0.242418
    C   C155  0.121846  0.874838  0.985184  -0.238147
    C   C156  0.146962  0.850140  0.989845  -0.253110
    H   H127  0.161882  0.936967  0.978379  0.014167
    H   H128  0.152252  0.894566  0.920211  0.034397
    H   H129  0.115041  0.978326  0.962361  0.066167
    H   H130  0.096307  0.953558  0.053684  0.043845
    H   H131  0.057016  0.000933  0.043028  0.024971
    H   H132  0.096464  0.935321  0.908716  0.047202
    C   C157  0.671110  0.174106  0.176965  -0.136736
    C   C158  0.765074  0.187287  0.148632  -0.111739
    C   C159  0.747829  0.232194  0.187100  -0.171579
    H   H133  0.631022  0.235434  0.209399  0.032742
    H   H134  0.656527  0.170969  0.144915  0.040998
    H   H135  0.812087  0.180139  0.142706  0.024633
    H   H136  0.752905  0.180383  0.114167  0.042348
    H   H137  0.722366  0.246243  0.172826  0.033687
    H   H138  0.786815  0.247678  0.196427  0.060187
    C   C160  0.688164  0.316048  0.303111  -0.145696
    C   C161  0.735179  0.161644  0.165072  0.603742
    C   C162  0.657253  0.218081  0.219348  -0.111160
    C   C163  0.712287  0.236885  0.231998  0.644787
    C   C164  0.745707  0.214608  0.248816  -0.088348
    C   C165  0.755428  0.169313  0.210313  -0.152806
    C   C166  0.699033  0.280429  0.270761  -0.362682
    C   C167  0.748429  0.118089  0.126358  -0.300026
    C   C168  0.759270  0.082177  0.095037  -0.208398
    H   H139  0.731218  0.152625  0.224288  0.031857
    H   H140  0.801670  0.158376  0.201519  0.040582
    H   H141  0.721464  0.219557  0.283048  0.020091
    H   H142  0.648521  0.154157  0.186608  0.026519
    H   H143  0.632615  0.219127  0.251145  0.021415
    H   H144  0.787595  0.226486  0.255285  0.008056
