# Generated by REPEAT Assigner based on pymatgen
data_DB0-m3_o12_o16_f0_pcu.sym.98_sqe
_audit_creation_date              2022-05-24
_audit_creation_method            REPEAT_Assigner
_cell_length_a                    10.079909
_cell_length_b                    11.352986
_cell_length_c                    13.266698
_cell_angle_alpha                 91.382737
_cell_angle_beta                  109.785659
_cell_angle_gamma                 92.442083
_cell_volume                      1426.077575
_symmetry_space_group_name_H-M    P1
_symmetry_Int_Tables_number       1
loop_
    _symmetry_equiv_pos_site_id
    _symmetry_equiv_pos_as_xyz
    1  x,y,z
loop_
    _atom_site_type_symbol
    _atom_site_label
    _atom_site_fract_x
    _atom_site_fract_y
    _atom_site_fract_z
    _atom_type_partial_charge
    O   O1   0.914319  0.677212  0.516204  -0.704338
    O   O2   0.119229  0.648362  0.480571  -0.662078
    C   C1   0.025493  0.717022  0.494486  0.860284
    O   O3   0.992802  0.518717  0.684314  -0.703483
    O   O4   0.199237  0.494247  0.651793  -0.689540
    C   C2   0.130225  0.510940  0.718495  0.818749
    Zn  Zn1  0.853579  0.508174  0.532434  1.079481
    Zn  Zn2  0.126983  0.470988  0.489948  1.036919
    O   O5   0.859113  0.330154  0.538900  -0.752073
    O   O6   0.067151  0.302429  0.507653  -0.664767
    O   O7   0.780583  0.487668  0.370481  -0.601933
    O   O8   0.988115  0.457605  0.337873  -0.663492
    C   C3   0.954187  0.261336  0.525970  0.958852
    C   C4   0.850574  0.466958  0.305051  0.687065
    C   C5   0.738272  0.347384  0.023701  -0.250633
    H   H1   0.924788  0.341937  0.159613  0.101284
    H   H2   0.560154  0.288286  0.834905  0.136322
    H   H3   0.778185  0.290155  0.975539  0.121414
    C   C6   0.769294  0.445691  0.190840  -0.034001
    C   C7   0.155494  0.601304  0.896166  0.400036
    C   C8   0.227817  0.622878  0.003125  -0.320130
    C   C9   0.357352  0.578825  0.051295  -0.105485
    C   C10  0.416809  0.506197  0.994086  -0.017660
    C   C11  0.338798  0.476322  0.886600  0.185884
    C   C12  0.551590  0.461915  0.041908  0.050877
    C   C13  0.604225  0.388135  0.981674  0.235845
    C   C14  0.521894  0.351177  0.879628  -0.274747
    C   C15  0.389701  0.391898  0.833593  -0.144088
    C   C16  0.636241  0.488666  0.148296  -0.199726
    C   C17  0.821561  0.377184  0.127479  -0.044549
    C   C18  0.209408  0.527955  0.835427  -0.329576
    H   H4   0.603712  0.543663  0.201497  0.095919
    H   H5   0.406351  0.604014  0.134611  0.161186
    H   H6   0.184804  0.679500  0.049697  0.141614
    H   H7   0.328117  0.352514  0.756499  0.107959
    H   H8   0.884991  0.899090  0.534086  0.143770
    C   C19  0.050554  0.843698  0.485360  -0.331353
    C   C20  0.973141  0.925624  0.509040  -0.150800
    H   H9   0.841961  0.101976  0.554329  0.178299
    C   C21  0.929277  0.132695  0.529834  -0.520527
    C   C22  0.006702  0.052689  0.502483  0.400159
    H   H10  0.139191  0.868678  0.460615  0.148204
    H   H11  0.554075  0.427070  0.432313  0.174606
    N   N1   0.307949  0.446373  0.463213  -0.286926
    C   C23  0.420797  0.509013  0.515397  0.262355
    H   H12  0.672576  0.585245  0.624397  0.182221
    N   N2   0.673665  0.533203  0.560369  -0.189580
    C   C24  0.555281  0.485447  0.498512  -0.050649
    H   H13  0.320284  0.380303  0.413194  0.240537
    N   N3   0.415027  0.600581  0.587811  -0.152037
    C   C25  0.433601  0.709888  0.555211  0.663981
    O   O9   0.413330  0.725348  0.460647  -0.540128
    C   C26  0.477927  0.812495  0.633927  -0.616525
    H   H14  0.465747  0.588155  0.668038  0.210236
    H   H15  0.488227  0.784662  0.715651  0.146755
    H   H16  0.397823  0.879894  0.609961  0.216770
    H   H17  0.580902  0.851511  0.634410  0.163741
    N   N4   0.027439  0.656993  0.850819  -0.474196
    C   C27  0.044671  0.764255  0.813932  0.871627
    O   O10  0.149169  0.788723  0.790380  -0.620624
    C   C28  0.937817  0.854479  0.803692  -0.667697
    H   H18  0.961724  0.655502  0.895627  0.228359
    H   H19  0.848245  0.818451  0.826240  0.141704
    H   H20  0.896892  0.881827  0.719647  0.194545
    H   H21  0.988419  0.932551  0.856775  0.162708
    N   N5   0.118786  0.088856  0.466678  -0.522271
    C   C29  0.081509  0.092280  0.359074  0.837863
    O   O11  0.957223  0.093631  0.303970  -0.584371
    C   C30  0.191295  0.094928  0.306698  -0.605088
    H   H22  0.217496  0.059711  0.506409  0.265413
    H   H23  0.298625  0.096152  0.367550  0.117933
    H   H24  0.181906  0.175238  0.259333  0.181837
    H   H25  0.174716  0.015760  0.252355  0.161757
