data_DB0-m3_o25_o115_f0_fsc.sym.1_repeat
_audit_creation_date              2024-02-23
_audit_creation_method            'Materials Studio'
_symmetry_space_group_name_H-M    'P1'
_symmetry_Int_Tables_number       1
_symmetry_cell_setting            triclinic
loop_
_symmetry_equiv_pos_as_xyz
  x,y,z
_cell_length_a                    14.2251
_cell_length_b                    16.5201
_cell_length_c                    16.6809
_cell_angle_alpha                 90.0679
_cell_angle_beta                  98.8016
_cell_angle_gamma                 90.6961
loop_
_atom_site_label
_atom_site_type_symbol
_atom_site_fract_x
_atom_site_fract_y
_atom_site_fract_z
_atom_site_U_iso_or_equiv
_atom_site_adp_type
_atom_site_occupancy
H1     H     0.07544   0.92129   0.72316   0.00000  Uiso   1.00
H2     H     0.92456   0.07872   0.27684   0.00000  Uiso   1.00
C1     C     0.99779   0.25679   0.95834   0.00000  Uiso   1.00
C2     C     0.00221   0.74321   0.04166   0.00000  Uiso   1.00
C3     C     0.99712   0.25682   0.04063   0.00000  Uiso   1.00
C4     C     0.00289   0.74318   0.95937   0.00000  Uiso   1.00
C5     C     0.99696   0.17660   0.06401   0.00000  Uiso   1.00
C6     C     0.00304   0.82340   0.93599   0.00000  Uiso   1.00
N1     N     0.99853   0.12772   0.99956   0.00000  Uiso   1.00
N2     N     0.00147   0.87228   0.00044   0.00000  Uiso   1.00
C7     C     0.99933   0.17657   0.93506   0.00000  Uiso   1.00
C8     C     0.00067   0.82343   0.06494   0.00000  Uiso   1.00
C9     C     0.99292   0.15142   0.13967   0.00000  Uiso   1.00
C10    C     0.00708   0.84858   0.86032   0.00000  Uiso   1.00
C11    C     0.98401   0.06555   0.16246   0.00000  Uiso   1.00
C12    C     0.01599   0.93445   0.83754   0.00000  Uiso   1.00
C13    C     0.94932   0.04104   0.23155   0.00000  Uiso   1.00
C14    C     0.05068   0.95896   0.76845   0.00000  Uiso   1.00
C15    C     0.95032   0.95782   0.23182   0.00000  Uiso   1.00
C16    C     0.04968   0.04217   0.76818   0.00000  Uiso   1.00
C17    C     0.98563   0.93426   0.16292   0.00000  Uiso   1.00
C18    C     0.01437   0.06574   0.83708   0.00000  Uiso   1.00
N3     N     0.00772   0.00022   0.12147   0.00000  Uiso   1.00
N4     N     0.99228   0.99978   0.87853   0.00000  Uiso   1.00
C19    C     0.99614   0.84861   0.14055   0.00000  Uiso   1.00
C20    C     0.00386   0.15139   0.85945   0.00000  Uiso   1.00
H3     H     0.99817   0.31026   0.92109   0.00000  Uiso   1.00
H4     H     0.00183   0.68974   0.07891   0.00000  Uiso   1.00
H5     H     0.99570   0.31033   0.07779   0.00000  Uiso   1.00
H6     H     0.00430   0.68967   0.92221   0.00000  Uiso   1.00
H7     H     0.92639   0.91945   0.27729   0.00000  Uiso   1.00
H8     H     0.07361   0.08055   0.72271   0.00000  Uiso   1.00
H9     H     0.04239   0.00080   0.07099   0.00000  Uiso   1.00
H10    H     0.95761   0.99920   0.92901   0.00000  Uiso   1.00
C21    C     0.09336   0.75626   0.78118   0.00000  Uiso   1.00
C22    C     0.90664   0.24375   0.21882   0.00000  Uiso   1.00
H11    H     0.15972   0.77674   0.81609   0.00000  Uiso   1.00
H12    H     0.84028   0.22326   0.18391   0.00000  Uiso   1.00
C23    C     0.09366   0.69891   0.72098   0.00000  Uiso   1.00
C24    C     0.90634   0.30109   0.27902   0.00000  Uiso   1.00
C25    C     0.00879   0.67219   0.67656   0.00000  Uiso   1.00
C26    C     0.99121   0.32781   0.32344   0.00000  Uiso   1.00
C27    C     0.92398   0.70381   0.69266   0.00000  Uiso   1.00
C28    C     0.07603   0.29619   0.30734   0.00000  Uiso   1.00
H13    H     0.85661   0.68430   0.65882   0.00000  Uiso   1.00
H14    H     0.14339   0.31570   0.34118   0.00000  Uiso   1.00
C29    C     0.92406   0.76152   0.75226   0.00000  Uiso   1.00
C30    C     0.07594   0.23848   0.24773   0.00000  Uiso   1.00
H15    H     0.85759   0.78611   0.76444   0.00000  Uiso   1.00
H16    H     0.14241   0.21389   0.23555   0.00000  Uiso   1.00
C31    C     0.00851   0.78766   0.79675   0.00000  Uiso   1.00
C32    C     0.99149   0.21234   0.20325   0.00000  Uiso   1.00
C33    C     0.08996   0.24785   0.78275   0.00000  Uiso   1.00
C34    C     0.91004   0.75215   0.21725   0.00000  Uiso   1.00
H17    H     0.15590   0.23087   0.81970   0.00000  Uiso   1.00
H18    H     0.84410   0.76913   0.18030   0.00000  Uiso   1.00
C35    C     0.09057   0.30505   0.72257   0.00000  Uiso   1.00
C36    C     0.90944   0.69495   0.27743   0.00000  Uiso   1.00
H19    H     0.15750   0.33240   0.71348   0.00000  Uiso   1.00
H20    H     0.84250   0.66760   0.28652   0.00000  Uiso   1.00
C37    C     0.00625   0.32738   0.67548   0.00000  Uiso   1.00
C38    C     0.99375   0.67262   0.32452   0.00000  Uiso   1.00
C39    C     0.92171   0.29137   0.68888   0.00000  Uiso   1.00
C40    C     0.07829   0.70863   0.31111   0.00000  Uiso   1.00
H21    H     0.85481   0.30736   0.65292   0.00000  Uiso   1.00
H22    H     0.14519   0.69264   0.34708   0.00000  Uiso   1.00
C41    C     0.92153   0.23380   0.74853   0.00000  Uiso   1.00
C42    C     0.07847   0.76620   0.25147   0.00000  Uiso   1.00
H23    H     0.85527   0.20584   0.75862   0.00000  Uiso   1.00
H24    H     0.14474   0.79416   0.24138   0.00000  Uiso   1.00
C43    C     0.00540   0.21220   0.79579   0.00000  Uiso   1.00
C44    C     0.99461   0.78780   0.20421   0.00000  Uiso   1.00
H25    H     0.16079   0.67496   0.70974   0.00000  Uiso   1.00
H26    H     0.83921   0.32504   0.29026   0.00000  Uiso   1.00
O1     O     0.92495   0.58190   0.57871   0.00000  Uiso   1.00
O2     O     0.07505   0.41810   0.42129   0.00000  Uiso   1.00
O3     O     0.08861   0.58613   0.59333   0.00000  Uiso   1.00
O4     O     0.91139   0.41387   0.40667   0.00000  Uiso   1.00
C45    C     0.00769   0.61046   0.61318   0.00000  Uiso   1.00
C46    C     0.99231   0.38954   0.38682   0.00000  Uiso   1.00
O5     O     0.08688   0.41777   0.59551   0.00000  Uiso   1.00
O6     O     0.91312   0.58223   0.40449   0.00000  Uiso   1.00
O7     O     0.92290   0.41381   0.57522   0.00000  Uiso   1.00
O8     O     0.07710   0.58620   0.42478   0.00000  Uiso   1.00
C47    C     0.00556   0.38920   0.61229   0.00000  Uiso   1.00
C48    C     0.99444   0.61080   0.38771   0.00000  Uiso   1.00
Zn1    Zn    0.10593   0.50066   0.51068   0.00000  Uiso   1.00
Zn2    Zn    0.89408   0.49934   0.48931   0.00000  Uiso   1.00
C49    C     0.51040   0.53609   0.43110   0.00000  Uiso   1.00
C50    C     0.48960   0.46391   0.56890   0.00000  Uiso   1.00
C51    C     0.44944   0.46102   0.43870   0.00000  Uiso   1.00
C52    C     0.55056   0.53898   0.56129   0.00000  Uiso   1.00
H27    H     0.40478   0.42857   0.38812   0.00000  Uiso   1.00
H28    H     0.59523   0.57143   0.61188   0.00000  Uiso   1.00
H29    H     0.52143   0.56586   0.37367   0.00000  Uiso   1.00
H30    H     0.47857   0.43414   0.62633   0.00000  Uiso   1.00
H31    H     0.55498   0.36151   0.49709   0.00000  Uiso   1.00
H32    H     0.44502   0.63849   0.50291   0.00000  Uiso   1.00
N5     N     0.23068   0.50137   0.52060   0.00000  Uiso   1.00
N6     N     0.76932   0.49863   0.47940   0.00000  Uiso   1.00
C53    C     0.47130   0.57568   0.50131   0.00000  Uiso   1.00
C54    C     0.52870   0.42432   0.49870   0.00000  Uiso   1.00
C55    C     0.41214   0.50060   0.50879   0.00000  Uiso   1.00
C56    C     0.58786   0.49940   0.49121   0.00000  Uiso   1.00
C57    C     0.31119   0.50113   0.51678   0.00000  Uiso   1.00
C58    C     0.68881   0.49887   0.48322   0.00000  Uiso   1.00
