data_DB0-m29_o96_o100_f0_pts.sym.81_repeat
_audit_creation_date              2024-02-23
_audit_creation_method            'Materials Studio'
_symmetry_space_group_name_H-M    'P1'
_symmetry_Int_Tables_number       1
_symmetry_cell_setting            triclinic
loop_
_symmetry_equiv_pos_as_xyz
  x,y,z
_cell_length_a                    17.4890
_cell_length_b                    14.2357
_cell_length_c                    17.3058
_cell_angle_alpha                 91.5931
_cell_angle_beta                  91.0235
_cell_angle_gamma                 99.9975
loop_
_atom_site_label
_atom_site_type_symbol
_atom_site_fract_x
_atom_site_fract_y
_atom_site_fract_z
_atom_site_U_iso_or_equiv
_atom_site_adp_type
_atom_site_occupancy
C1     C     0.20724   0.00998   0.11856   0.00000  Uiso   1.00
C2     C     0.15691   0.98421   0.17668   0.00000  Uiso   1.00
C3     C     0.08255   0.97848   0.14518   0.00000  Uiso   1.00
N1     N     0.08669   0.99928   0.06958   0.00000  Uiso   1.00
C4     C     0.16291   0.01824   0.05300   0.00000  Uiso   1.00
C5     C     0.01602   0.95850   0.18318   0.00000  Uiso   1.00
C6     C     0.93910   0.96766   0.15187   0.00000  Uiso   1.00
C7     C     0.87931   0.98682   0.19700   0.00000  Uiso   1.00
C8     C     0.81657   0.98675   0.14974   0.00000  Uiso   1.00
C9     C     0.83927   0.96820   0.07541   0.00000  Uiso   1.00
N2     N     0.91428   0.95527   0.07740   0.00000  Uiso   1.00
C10    C     0.78960   0.96584   0.00544   0.00000  Uiso   1.00
C11    C     0.81775   0.98680   0.93555   0.00000  Uiso   1.00
C12    C     0.77403   0.99918   0.87048   0.00000  Uiso   1.00
C13    C     0.82513   0.02905   0.81434   0.00000  Uiso   1.00
C14    C     0.89872   0.03076   0.84494   0.00000  Uiso   1.00
N3     N     0.89420   0.00567   0.91954   0.00000  Uiso   1.00
C15    C     0.96427   0.04891   0.80537   0.00000  Uiso   1.00
C16    C     0.04145   0.03839   0.83587   0.00000  Uiso   1.00
C17    C     0.10155   0.02017   0.79059   0.00000  Uiso   1.00
C18    C     0.16408   0.01905   0.83800   0.00000  Uiso   1.00
C19    C     0.14091   0.03548   0.91254   0.00000  Uiso   1.00
N4     N     0.06599   0.04870   0.91056   0.00000  Uiso   1.00
C20    C     0.19056   0.03747   0.98255   0.00000  Uiso   1.00
H1     H     0.01745   0.94181   0.24320   0.00000  Uiso   1.00
H2     H     0.72753   0.95688   0.01297   0.00000  Uiso   1.00
H3     H     0.96016   0.06413   0.74477   0.00000  Uiso   1.00
H4     H     0.25260   0.04718   0.97476   0.00000  Uiso   1.00
H5     H     0.94577   0.93368   0.03174   0.00000  Uiso   1.00
H6     H     0.03453   0.06946   0.95654   0.00000  Uiso   1.00
C21    C     0.10415   0.00358   0.71236   0.00000  Uiso   1.00
C22    C     0.17359   0.98813   0.68216   0.00000  Uiso   1.00
C23    C     0.23922   0.99012   0.72957   0.00000  Uiso   1.00
C24    C     0.23444   0.00439   0.80916   0.00000  Uiso   1.00
C25    C     0.28681   0.02384   0.13032   0.00000  Uiso   1.00
C26    C     0.31456   0.00720   0.20315   0.00000  Uiso   1.00
C27    C     0.26352   0.98110   0.26231   0.00000  Uiso   1.00
C28    C     0.18446   0.97269   0.25080   0.00000  Uiso   1.00
C29    C     0.87740   0.00540   0.27505   0.00000  Uiso   1.00
C30    C     0.80833   0.02179   0.30532   0.00000  Uiso   1.00
C31    C     0.74268   0.01962   0.25798   0.00000  Uiso   1.00
C32    C     0.74672   0.00313   0.17856   0.00000  Uiso   1.00
C33    C     0.69481   0.98643   0.85699   0.00000  Uiso   1.00
C34    C     0.66896   0.00899   0.78474   0.00000  Uiso   1.00
C35    C     0.72185   0.04310   0.72864   0.00000  Uiso   1.00
C36    C     0.80072   0.05186   0.74252   0.00000  Uiso   1.00
H7     H     0.05403   0.00263   0.67480   0.00000  Uiso   1.00
H8     H     0.28452   0.00570   0.84687   0.00000  Uiso   1.00
H9     H     0.32674   0.04513   0.08457   0.00000  Uiso   1.00
H10    H     0.28585   0.97162   0.31967   0.00000  Uiso   1.00
H11    H     0.92771   0.00720   0.31253   0.00000  Uiso   1.00
H12    H     0.69648   0.00137   0.14098   0.00000  Uiso   1.00
H13    H     0.65384   0.96047   0.90076   0.00000  Uiso   1.00
H14    H     0.70157   0.05975   0.67214   0.00000  Uiso   1.00
H15    H     0.84089   0.07669   0.69780   0.00000  Uiso   1.00
H16    H     0.17614   0.97604   0.62046   0.00000  Uiso   1.00
H17    H     0.80622   0.03500   0.36694   0.00000  Uiso   1.00
O1     O     0.60387   0.02066   0.25429   0.00000  Uiso   1.00
C37    C     0.66926   0.02945   0.29450   0.00000  Uiso   1.00
O2     O     0.55088   0.83421   0.32302   0.00000  Uiso   1.00
O3     O     0.66717   0.03714   0.37013   0.00000  Uiso   1.00
O4     O     0.51156   0.92623   0.41722   0.00000  Uiso   1.00
C38    C     0.53048   0.84460   0.39493   0.00000  Uiso   1.00
Fe1    Fe    0.51886   0.01272   0.32905   0.00000  Uiso   1.00
O5     O     0.41959   0.96053   0.27105   0.00000  Uiso   1.00
O6     O     0.44398   0.09814   0.20485   0.00000  Uiso   1.00
C39    C     0.39737   0.01920   0.22172   0.00000  Uiso   1.00
O7     O     0.53624   0.14650   0.37373   0.00000  Uiso   1.00
O8     O     0.42010   0.08661   0.42511   0.00000  Uiso   1.00
C40    C     0.47969   0.15627   0.42073   0.00000  Uiso   1.00
C41    C     0.48479   0.53332   0.78545   0.00000  Uiso   1.00
C42    C     0.46173   0.25176   0.54138   0.00000  Uiso   1.00
C43    C     0.40780   0.52751   0.80401   0.00000  Uiso   1.00
C44    C     0.35134   0.51652   0.74624   0.00000  Uiso   1.00
C45    C     0.50535   0.52813   0.70911   0.00000  Uiso   1.00
C46    C     0.44888   0.51712   0.65122   0.00000  Uiso   1.00
C47    C     0.37183   0.51133   0.66988   0.00000  Uiso   1.00
C48    C     0.45809   0.34000   0.57542   0.00000  Uiso   1.00
C49    C     0.47423   0.42346   0.53457   0.00000  Uiso   1.00
C50    C     0.47070   0.51161   0.57008   0.00000  Uiso   1.00
C51    C     0.48763   0.59476   0.52874   0.00000  Uiso   1.00
C52    C     0.48478   0.68336   0.56347   0.00000  Uiso   1.00
C53    C     0.50237   0.76640   0.52328   0.00000  Uiso   1.00
C54    C     0.48020   0.24686   0.46360   0.00000  Uiso   1.00
C55    C     0.49784   0.32991   0.42344   0.00000  Uiso   1.00
C56    C     0.49487   0.41849   0.45814   0.00000  Uiso   1.00
C57    C     0.51176   0.50163   0.41678   0.00000  Uiso   1.00
C58    C     0.50819   0.58977   0.45228   0.00000  Uiso   1.00
C59    C     0.52420   0.67321   0.41139   0.00000  Uiso   1.00
C60    C     0.47703   0.48474   0.27778   0.00000  Uiso   1.00
C61    C     0.53355   0.49611   0.33564   0.00000  Uiso   1.00
C62    C     0.61062   0.50223   0.31693   0.00000  Uiso   1.00
C63    C     0.49757   0.47952   0.20144   0.00000  Uiso   1.00
C64    C     0.57457   0.48565   0.18283   0.00000  Uiso   1.00
C65    C     0.52058   0.76145   0.44544   0.00000  Uiso   1.00
C66    C     0.63108   0.49700   0.24057   0.00000  Uiso   1.00
H18    H     0.52903   0.54193   0.83075   0.00000  Uiso   1.00
H19    H     0.39170   0.53158   0.86386   0.00000  Uiso   1.00
H20    H     0.29100   0.51198   0.76083   0.00000  Uiso   1.00
H21    H     0.56570   0.53268   0.69456   0.00000  Uiso   1.00
H22    H     0.32757   0.50272   0.62461   0.00000  Uiso   1.00
H23    H     0.44383   0.34263   0.63558   0.00000  Uiso   1.00
H24    H     0.47084   0.69083   0.62353   0.00000  Uiso   1.00
H25    H     0.51192   0.32245   0.36341   0.00000  Uiso   1.00
H26    H     0.53829   0.67055   0.35120   0.00000  Uiso   1.00
H27    H     0.41667   0.47993   0.29237   0.00000  Uiso   1.00
H28    H     0.65491   0.51113   0.36218   0.00000  Uiso   1.00
H29    H     0.45329   0.47061   0.15616   0.00000  Uiso   1.00
H30    H     0.59065   0.48155   0.12297   0.00000  Uiso   1.00
H31    H     0.69144   0.50181   0.22595   0.00000  Uiso   1.00
O9     O     0.56311   0.05356   0.71555   0.00000  Uiso   1.00
O10    O     0.54042   0.91508   0.78069   0.00000  Uiso   1.00
C67    C     0.58633   0.99466   0.76407   0.00000  Uiso   1.00
O11    O     0.44667   0.86672   0.61344   0.00000  Uiso   1.00
O12    O     0.56243   0.92684   0.56141   0.00000  Uiso   1.00
C68    C     0.50299   0.85703   0.56615   0.00000  Uiso   1.00
O13    O     0.43150   0.17902   0.66382   0.00000  Uiso   1.00
O14    O     0.37884   0.99236   0.73294   0.00000  Uiso   1.00
C69    C     0.31314   0.98218   0.69295   0.00000  Uiso   1.00
O15    O     0.47042   0.08685   0.56951   0.00000  Uiso   1.00
C70    C     0.45170   0.16856   0.59186   0.00000  Uiso   1.00
O16    O     0.31512   0.97443   0.61732   0.00000  Uiso   1.00
Fe2    Fe    0.46369   0.00069   0.65787   0.00000  Uiso   1.00
N5     N     0.13552   0.95310   0.31440   0.00000  Uiso   1.00
C71    C     0.12999   0.03474   0.36142   0.00000  Uiso   1.00
C72    C     0.12389   0.02600   0.44056   0.00000  Uiso   1.00
C73    C     0.11717   0.10410   0.48727   0.00000  Uiso   1.00
C74    C     0.11630   0.19142   0.45541   0.00000  Uiso   1.00
C75    C     0.12153   0.20059   0.37664   0.00000  Uiso   1.00
C76    C     0.12804   0.12275   0.32959   0.00000  Uiso   1.00
H32    H     0.15039   0.89927   0.34684   0.00000  Uiso   1.00
H33    H     0.12407   0.95791   0.46663   0.00000  Uiso   1.00
H34    H     0.11228   0.09685   0.54901   0.00000  Uiso   1.00
H35    H     0.11094   0.25251   0.49212   0.00000  Uiso   1.00
H36    H     0.12004   0.26894   0.35152   0.00000  Uiso   1.00
H37    H     0.13033   0.13264   0.26805   0.00000  Uiso   1.00
