# Generated by REPEAT Assigner based on pymatgen
data_DB0-m2_o9_o17_f0_nbo.sym.148
_audit_creation_date              2022-05-24
_audit_creation_method            REPEAT_Assigner
_cell_length_a                    21.080759
_cell_length_b                    21.355988
_cell_length_c                    21.289061
_cell_angle_alpha                 91.458307
_cell_angle_beta                  119.119962
_cell_angle_gamma                 119.016230
_cell_volume                      6879.655677
_symmetry_space_group_name_H-M    P1
_symmetry_Int_Tables_number       1
loop_
    _symmetry_equiv_pos_site_id
    _symmetry_equiv_pos_as_xyz
    1  x,y,z
loop_
    _atom_site_type_symbol
    _atom_site_label
    _atom_site_fract_x
    _atom_site_fract_y
    _atom_site_fract_z
    _atom_type_partial_charge
    O   O1    0.541268  0.490226  0.420290  -0.516323
    O   O2    0.476973  0.393040  0.461018  -0.641479
    C   C1    0.510381  0.420053  0.421538  0.718982
    O   O3    0.649107  0.554212  0.576984  -0.653850
    O   O4    0.550044  0.478023  0.605967  -0.659438
    C   C2    0.630454  0.519836  0.622061  0.875702
    Cu  Cu1   0.563350  0.566743  0.494819  0.917116
    Cu  Cu2   0.447734  0.448428  0.503972  1.016278
    O   O5    0.567806  0.625142  0.570830  -0.532920
    O   O6    0.436186  0.521849  0.545574  -0.632155
    O   O7    0.459870  0.561114  0.414047  -0.653763
    O   O8    0.363090  0.437136  0.400665  -0.625270
    C   C3    0.501122  0.594846  0.577875  0.686849
    C   C4    0.380885  0.496353  0.377302  0.813228
    H   H1    0.704605  0.785409  0.823190  0.087681
    C   C5    0.733053  0.737808  0.759311  -0.052896
    H   H2    0.744557  0.781103  0.733016  0.087381
    C   C6    0.741311  0.680479  0.742597  -0.206369
    H   H3    0.761624  0.680604  0.704762  0.123922
    C   C7    0.726387  0.624769  0.775826  0.176590
    C   C8    0.704964  0.628026  0.827139  -0.209345
    H   H4    0.694092  0.585476  0.854283  0.129875
    C   C9    0.697021  0.685526  0.843985  -0.069707
    H   H5    0.679806  0.687561  0.883875  0.092459
    C   C10   0.711046  0.740433  0.810084  -0.099649
    C   C11   0.799281  0.559124  0.824471  -0.077985
    H   H6    0.832841  0.596180  0.881345  0.079910
    C   C12   0.818030  0.507427  0.814598  0.018704
    C   C13   0.776552  0.461803  0.740852  -0.048403
    C   C14   0.718985  0.470033  0.679142  -0.119960
    H   H7    0.684143  0.432930  0.621868  0.085769
    C   C15   0.700457  0.521417  0.689307  -0.083719
    C   C16   0.741019  0.566718  0.762409  -0.036269
    C   C17   0.813586  0.399590  0.678438  -0.176822
    H   H8    0.830574  0.444783  0.655113  0.106879
    C   C18   0.820748  0.341367  0.662124  -0.100704
    H   H9    0.843031  0.340969  0.625977  0.104944
    C   C19   0.799479  0.283655  0.691832  -0.145683
    H   H10   0.805077  0.238010  0.678992  0.110930
    C   C20   0.770388  0.283857  0.737410  -0.046282
    H   H11   0.752927  0.238268  0.760177  0.077378
    C   C21   0.763131  0.342001  0.753692  -0.214457
    H   H12   0.739110  0.341251  0.788545  0.124344
    C   C22   0.786127  0.400770  0.725299  0.233762
    C   C23   0.429699  0.108163  0.139763  -0.247164
    C   C24   0.504510  0.132086  0.141682  -0.050909
    C   C25   0.580964  0.203243  0.191024  -0.233629
    C   C26   0.581823  0.251153  0.236713  0.197705
    C   C27   0.507638  0.226475  0.236026  0.008126
    C   C28   0.431951  0.154575  0.188305  0.196667
    C   C29   0.656653  0.323920  0.282820  -0.235654
    C   C30   0.656966  0.372088  0.327520  -0.227202
    C   C31   0.583235  0.347011  0.327775  0.255260
    C   C32   0.509007  0.273805  0.282796  -0.077225
    C   C33   0.435955  0.248073  0.284263  0.210468
    C   C34   0.360827  0.175594  0.237591  -0.223354
    C   C35   0.358469  0.129263  0.189031  -0.211418
    C   C36   0.583452  0.395182  0.372534  -0.287880
    C   C37   0.511001  0.368991  0.375156  0.056066
    C   C38   0.437793  0.295002  0.331878  -0.253305
    H   H13   0.370066  0.052126  0.101776  0.142646
    H   H14   0.639224  0.222526  0.191763  0.130775
    H   H15   0.714938  0.343854  0.283408  0.148432
    H   H16   0.715495  0.429308  0.362747  0.150410
    H   H17   0.641015  0.453000  0.406745  0.118853
    H   H18   0.380403  0.274895  0.332805  0.145728
    H   H19   0.303142  0.155130  0.238132  0.147097
    H   H20   0.298996  0.072885  0.152025  0.143850
    H   H21   0.550528  0.513527  0.213269  0.107973
    C   C39   0.492886  0.570256  0.220208  -0.092190
    H   H22   0.533916  0.619910  0.212063  0.106661
    C   C40   0.430430  0.566114  0.228890  -0.167960
    H   H23   0.422475  0.612522  0.227309  0.089780
    C   C41   0.378619  0.503162  0.240132  0.238979
    C   C42   0.387768  0.443362  0.240447  -0.216662
    H   H24   0.345588  0.392891  0.246924  0.097413
    C   C43   0.449098  0.446969  0.230288  -0.063349
    H   H25   0.455116  0.399598  0.229088  0.102941
    C   C44   0.502219  0.510667  0.220898  -0.150514
    C   C45   0.241820  0.495812  0.182807  -0.120833
    H   H26   0.242219  0.500593  0.132557  0.103427
    C   C46   0.174507  0.489431  0.184461  -0.041878
    C   C47   0.173444  0.483189  0.248523  0.018049
    C   C48   0.240524  0.483863  0.310478  -0.165270
    H   H27   0.240302  0.479070  0.360804  0.113191
    C   C49   0.308436  0.491149  0.309033  -0.049788
    C   C50   0.309224  0.497335  0.244905  -0.029997
    C   C51   0.119007  0.524699  0.308033  -0.154863
    H   H28   0.185982  0.573344  0.349417  0.105555
    C   C52   0.051330  0.514918  0.311572  -0.100987
    H   H29   0.065415  0.555699  0.355792  0.106047
    C   C53   0.965760  0.453077  0.258896  -0.137739
    H   H30   0.912744  0.445314  0.261805  0.111568
    C   C54   0.947920  0.400765  0.202908  -0.104861
    H   H31   0.880993  0.351785  0.162219  0.103986
    C   C55   0.015437  0.410773  0.198958  -0.103130
    H   H32   0.001127  0.369078  0.155411  0.080992
    C   C56   0.101100  0.473259  0.251067  0.124570
    C   C57   0.497777  0.804648  0.877540  -0.285735
    C   C58   0.497737  0.867368  0.863410  0.015278
    C   C59   0.497977  0.884940  0.801478  -0.260348
    C   C60   0.501563  0.841592  0.755711  0.272623
    C   C61   0.498629  0.777611  0.768504  -0.082587
    C   C62   0.495176  0.758424  0.828622  0.290192
    C   C63   0.508486  0.862322  0.697324  -0.290402
    C   C64   0.513279  0.819517  0.652347  -0.191526
    C   C65   0.508110  0.754397  0.663934  0.218881
    C   C66   0.499183  0.732810  0.721217  -0.000334
    C   C67   0.490889  0.666421  0.731296  0.118207
    C   C68   0.485344  0.646271  0.790355  -0.110912
    C   C69   0.489034  0.692911  0.839777  -0.299852
    C   C70   0.511706  0.710792  0.618346  -0.305946
    C   C71   0.500822  0.643268  0.627120  0.090026
    C   C72   0.488843  0.620507  0.682671  -0.223132
    H   H33   0.496257  0.789759  0.925141  0.146493
    H   H34   0.499283  0.934548  0.790602  0.132565
    H   H35   0.511475  0.912734  0.687250  0.154720
    H   H36   0.519830  0.836685  0.607362  0.145809
    H   H37   0.519817  0.727950  0.574013  0.128347
    H   H38   0.481781  0.568159  0.690172  0.134120
    H   H39   0.479633  0.594609  0.798951  0.113010
    H   H40   0.485868  0.677292  0.886569  0.150100
    O   O9    0.916405  0.445974  0.047754  -0.547138
    O   O10   0.888687  0.375191  0.941859  -0.574036
    C   C73   0.871626  0.381539  0.992760  0.696955
    O   O11   0.895000  0.525159  0.948321  -0.477851
    O   O12   0.931174  0.484640  0.876494  -0.506393
    C   C74   0.883895  0.504765  0.882770  0.527675
    Cu  Cu3   0.995677  0.542519  0.044826  0.880695
    Cu  Cu4   0.998339  0.456721  0.957128  0.951565
    O   O13   0.075458  0.625987  0.028543  -0.609562
    O   O14   0.107635  0.551327  0.985863  -0.615040
    O   O15   0.096504  0.546356  0.127854  -0.514252
    O   O16   0.064899  0.441788  0.051168  -0.632273
    C   C75   0.122753  0.617776  0.009654  0.757384
    C   C76   0.107281  0.491713  0.118359  0.729456
    O   O17   0.463467  0.922214  0.065772  -0.585024
    O   O18   0.359831  0.898323  0.939260  -0.553853
    C   C77   0.382737  0.880045  0.001978  0.691216
    O   O19   0.571560  0.078927  0.118815  -0.636459
    O   O20   0.432107  0.044418  0.019479  -0.639323
    C   C78   0.502541  0.082623  0.090976  0.828184
    Cu  Cu5   0.561297  0.997602  0.061608  0.946974
    Cu  Cu6   0.438931  0.999752  0.943643  0.946560
    O   O21   0.639722  0.073065  0.038551  -0.560314
    O   O22   0.537431  0.100662  0.966479  -0.581696
    O   O23   0.531823  0.916713  0.985787  -0.658177
    O   O24   0.465079  0.954790  0.886425  -0.652595
    C   C79   0.617379  0.115231  0.001114  0.680605
    C   C80   0.498155  0.915196  0.914245  0.859968
    H   H41   0.684897  0.528817  0.966361  0.116103
    C   C81   0.713310  0.463227  0.035752  -0.083648
    H   H42   0.715647  0.491201  0.080618  0.105908
    C   C82   0.726866  0.406044  0.042304  -0.200098
    H   H43   0.739983  0.389422  0.092437  0.117739
    C   C83   0.724845  0.370822  0.985468  0.217251
    C   C84   0.707048  0.391717  0.921228  -0.190695
    H   H44   0.702961  0.362933  0.875598  0.082888
    C   C85   0.692448  0.448210  0.914298  -0.041883
    H   H45   0.677478  0.463689  0.863498  0.087542
    C   C86   0.696152  0.484361  0.971760  -0.165789
    C   C87   0.676639  0.243685  0.994306  -0.116784
    H   H46   0.623617  0.241101  0.993206  0.104877
    C   C88   0.684120  0.182886  0.999025  -0.088771
    C   C89   0.753677  0.188072  0.001298  -0.004454
    C   C90   0.812026  0.252427  0.996557  -0.128358
    H   H47   0.866095  0.256399  0.998490  0.087472
    C   C91   0.803871  0.312536  0.991466  0.000577
    C   C92   0.736497  0.308626  0.991481  -0.015632
    C   C93   0.842791  0.140720  0.073172  -0.188983
    H   H48   0.888121  0.194360  0.119853  0.113925
    C   C94   0.859290  0.085356  0.079194  0.022639
    C   C95   0.802152  0.017262  0.019470  -0.137916
    H   H49   0.815395  0.974024  0.023940  0.118747
    C   C96   0.728667  0.004654  0.953671  -0.078039
    H   H50   0.684983  0.951747  0.906501  0.096481
    C   C97   0.711539  0.059697  0.947896  -0.195616
    H   H51   0.654461  0.050158  0.895992  0.112442
    C   C98   0.768242  0.127576  0.008007  0.246389
    H   H52   0.322273  0.754367  0.348603  0.111163
    C   C99   0.300196  0.806382  0.262869  -0.097464
    H   H53   0.305376  0.850388  0.295392  0.102787
    C   C100  0.284585  0.804357  0.191747  -0.152664
    H   H54   0.277445  0.846824  0.168732  0.100970
    C   C101  0.276864  0.747717  0.149633  0.188510
    C   C102  0.287492  0.694424  0.180100  -0.138208
    H   H55   0.284254  0.651235  0.148583  0.091024
    C   C103  0.303908  0.696946  0.251542  -0.112507
    H   H56   0.312684  0.655512  0.275504  0.113998
    C   C104  0.309645  0.752574  0.292695  -0.137912
    C   C105  0.324369  0.809899  0.071179  -0.083580
    H   H57   0.380134  0.858364  0.122898  0.096456
    C   C106  0.315364  0.811222  0.002436  -0.111095
    C   C107  0.242952  0.748018  0.936588  0.042567
    C   C108  0.182223  0.685496  0.941099  -0.180872
    H   H58   0.126146  0.636407  0.889972  0.096245
    C   C109  0.191372  0.684660  0.009534  -0.006945
    C   C110  0.262860  0.747287  0.075147  -0.053677
    C   C111  0.154614  0.737032  0.802600  -0.183524
    H   H59   0.109788  0.738576  0.812723  0.096881
    C   C112  0.138192  0.729456  0.730825  -0.075136
    H   H60   0.080691  0.725169  0.684881  0.102738
    C   C113  0.194661  0.726673  0.717482  -0.153698
    H   H61   0.181474  0.720165  0.661065  0.108521
    C   C114  0.267400  0.731278  0.775871  -0.059190
    H   H62   0.310530  0.727636  0.764749  0.078252
    C   C115  0.284493  0.739750  0.847972  -0.215668
    H   H63   0.341033  0.742525  0.893489  0.102217
    C   C116  0.228459  0.743326  0.861602  0.249223
    C   C117  0.936376  0.098899  0.147373  0.349871
    N   N1    0.998541  0.109824  0.202356  -0.457137
