# Generated by REPEAT Assigner based on pymatgen
data_DB0-m2_o9_o17_f0_nbo.sym.49_sqe
_audit_creation_date              2022-05-24
_audit_creation_method            REPEAT_Assigner
_cell_length_a                    21.123886
_cell_length_b                    21.359060
_cell_length_c                    21.302587
_cell_angle_alpha                 91.388566
_cell_angle_beta                  119.164960
_cell_angle_gamma                 119.076686
_cell_volume                      6892.626176
_symmetry_space_group_name_H-M    P1
_symmetry_Int_Tables_number       1
loop_
    _symmetry_equiv_pos_site_id
    _symmetry_equiv_pos_as_xyz
    1  x,y,z
loop_
    _atom_site_type_symbol
    _atom_site_label
    _atom_site_fract_x
    _atom_site_fract_y
    _atom_site_fract_z
    _atom_type_partial_charge
    O   O1    0.553878  0.497736  0.425984  -0.507142
    O   O2    0.480894  0.394924  0.456918  -0.612482
    C   C1    0.517854  0.425386  0.420783  0.643141
    O   O3    0.654678  0.550592  0.583193  -0.622667
    O   O4    0.548370  0.470476  0.603520  -0.638788
    C   C2    0.630487  0.512059  0.623725  0.849216
    Cu  Cu1   0.575380  0.570466  0.503725  0.887448
    Cu  Cu2   0.451588  0.448682  0.501508  0.999225
    O   O5    0.577815  0.624526  0.581040  -0.478013
    O   O6    0.441117  0.521051  0.546301  -0.614985
    O   O7    0.477104  0.571783  0.424127  -0.658565
    O   O8    0.373786  0.445676  0.399882  -0.662090
    C   C3    0.507997  0.593457  0.583460  0.626141
    C   C4    0.396856  0.508475  0.382488  0.934836
    H   H1    0.750724  0.818741  0.760469  0.098466
    C   C5    0.791381  0.755148  0.732087  -0.201758
    H   H2    0.819993  0.793808  0.707439  0.120265
    C   C6    0.792623  0.691324  0.732879  -0.038105
    H   H3    0.822329  0.680185  0.708744  0.095295
    C   C7    0.755482  0.641036  0.763460  -0.180373
    C   C8    0.718404  0.656211  0.795507  0.293588
    C   C9    0.716563  0.720006  0.793455  -0.241573
    H   H4    0.686018  0.731683  0.816193  0.126182
    C   C10   0.752761  0.769171  0.761879  -0.059533
    C   C11   0.816659  0.569466  0.824177  -0.226612
    H   H5    0.864909  0.618082  0.876345  0.130855
    C   C12   0.818495  0.505816  0.821433  -0.043345
    C   C13   0.758424  0.444278  0.753530  0.010634
    C   C14   0.698052  0.447844  0.689497  -0.135912
    H   H6    0.649962  0.399722  0.636720  0.101611
    C   C15   0.696964  0.511661  0.692288  -0.158420
    C   C16   0.755879  0.572646  0.759964  0.221697
    C   C17   0.758302  0.344124  0.693524  -0.145224
    H   H7    0.769199  0.374973  0.656384  0.095793
    C   C18   0.750419  0.275927  0.686594  -0.116982
    H   H8    0.755046  0.253545  0.644098  0.106027
    C   C19   0.736330  0.236131  0.733607  -0.115581
    H   H9    0.729959  0.182589  0.728030  0.101809
    C   C20   0.729655  0.264364  0.787305  -0.130206
    H   H10   0.717857  0.232935  0.823807  0.101954
    C   C21   0.737917  0.332698  0.794449  -0.075797
    H   H11   0.731626  0.354112  0.835982  0.055367
    C   C22   0.753458  0.373341  0.748326  0.144186
    C   C23   0.428410  0.116340  0.128019  -0.237731
    C   C24   0.503810  0.138274  0.131949  -0.059245
    C   C25   0.581389  0.208266  0.183129  -0.227668
    C   C26   0.583134  0.256706  0.229090  0.187128
    C   C27   0.508482  0.233705  0.226766  0.015276
    C   C28   0.431351  0.163205  0.176768  0.189172
    C   C29   0.659526  0.328156  0.277515  -0.230472
    C   C30   0.661115  0.376537  0.323217  -0.234680
    C   C31   0.587033  0.352907  0.322228  0.277532
    C   C32   0.511039  0.281094  0.274588  -0.073299
    C   C33   0.437593  0.256654  0.274809  0.204315
    C   C34   0.360710  0.185806  0.225375  -0.185071
    C   C35   0.357283  0.139550  0.175816  -0.226341
    C   C36   0.588891  0.400927  0.368794  -0.326914
    C   C37   0.516246  0.375631  0.370734  0.124168
    C   C38   0.440973  0.303092  0.324275  -0.288524
    H   H12   0.367821  0.061242  0.088668  0.139301
    H   H13   0.640230  0.226117  0.185572  0.137210
    H   H14   0.718228  0.346820  0.279407  0.142572
    H   H15   0.721037  0.432617  0.360487  0.149939
    H   H16   0.648105  0.457509  0.405468  0.128241
    H   H17   0.383395  0.283713  0.324536  0.148827
    H   H18   0.302639  0.166458  0.224802  0.129353
    H   H19   0.296606  0.084337  0.136975  0.142633
    H   H20   0.466737  0.388789  0.184464  0.084746
    C   C39   0.480431  0.481757  0.243150  -0.089544
    H   H21   0.549735  0.520710  0.266608  0.099064
    C   C40   0.438634  0.506072  0.259313  -0.174019
    H   H22   0.475138  0.564524  0.294269  0.112093
    C   C41   0.350154  0.456352  0.229670  0.113357
    C   C42   0.303506  0.382655  0.182658  -0.154749
    H   H23   0.234043  0.343594  0.158615  0.097747
    C   C43   0.345452  0.358313  0.166797  -0.084744
    H   H24   0.308960  0.300340  0.130625  0.093067
    C   C44   0.433883  0.407881  0.196951  -0.081449
    C   C45   0.235100  0.479823  0.182391  -0.124615
    H   H25   0.218601  0.461087  0.125776  0.114938
    C   C46   0.190126  0.504135  0.193122  -0.046651
    C   C47   0.212158  0.528094  0.266312  0.078339
    C   C48   0.282227  0.531635  0.327516  -0.142843
    H   H26   0.299018  0.548621  0.384577  0.074834
    C   C49   0.328401  0.509485  0.316607  -0.138450
    C   C50   0.304146  0.482422  0.243635  0.029368
    C   C51   0.200119  0.610818  0.336225  -0.089188
    H   H27   0.270513  0.652575  0.367555  0.097900
    C   C52   0.151112  0.624982  0.351574  -0.161954
    H   H28   0.183160  0.677705  0.394495  0.115546
    C   C53   0.061454  0.571723  0.312715  -0.116792
    H   H29   0.023126  0.582618  0.325127  0.110843
    C   C54   0.020930  0.504051  0.258858  -0.065267
    H   H30   0.950975  0.461558  0.229537  0.086648
    C   C55   0.069704  0.490122  0.242927  -0.159814
    H   H31   0.037552  0.436268  0.201588  0.077112
    C   C56   0.159364  0.544073  0.280647  0.109432
    C   C57   0.490560  0.802375  0.871438  -0.274996
    C   C58   0.500274  0.869281  0.861186  0.021161
    C   C59   0.510476  0.890218  0.804206  -0.276226
    C   C60   0.514742  0.846066  0.759997  0.286552
    C   C61   0.501239  0.777738  0.768237  -0.061459
    C   C62   0.487089  0.755078  0.822779  0.233768
    C   C63   0.532733  0.870211  0.707657  -0.286735
    C   C64   0.538235  0.826506  0.664402  -0.186987
    C   C65   0.522315  0.757121  0.671191  0.194741
    C   C66   0.502044  0.732124  0.722055  -0.037457
    C   C67   0.482447  0.661454  0.726688  0.186897
    C   C68   0.464452  0.637377  0.778990  -0.179031
    C   C69   0.469016  0.684911  0.828326  -0.228657
    C   C70   0.526618  0.712717  0.627264  -0.240896
    C   C71   0.505075  0.641281  0.630684  0.096820
    C   C72   0.481133  0.615053  0.679221  -0.283225
    H   H32   0.481505  0.785127  0.915277  0.148201
    H   H33   0.519451  0.943060  0.796578  0.137549
    H   H34   0.544084  0.924003  0.701231  0.153632
    H   H35   0.553706  0.846373  0.624378  0.143231
    H   H36   0.544061  0.732746  0.588339  0.105910
    H   H37   0.465149  0.559400  0.682410  0.151269
    H   H38   0.448637  0.581890  0.782699  0.118388
    H   H39   0.456821  0.666306  0.870348  0.140720
    O   O9    0.932067  0.457410  0.060701  -0.500693
    O   O10   0.900199  0.382594  0.954952  -0.506478
    C   C73   0.885781  0.391551  0.007082  0.567293
    O   O11   0.901561  0.530118  0.956064  -0.524359
    O   O12   0.933475  0.486279  0.881971  -0.553250
    C   C74   0.887244  0.506737  0.889653  0.660467
    Cu  Cu3   0.006300  0.552065  0.051687  0.873599
    Cu  Cu4   0.005970  0.463290  0.964195  0.922965
    O   O13   0.080458  0.633172  0.029266  -0.611328
    O   O14   0.111798  0.557680  0.986824  -0.599773
    O   O15   0.110729  0.560060  0.133902  -0.463375
    O   O16   0.078081  0.453555  0.059720  -0.600543
    C   C75   0.125808  0.624166  0.008446  0.744354
    C   C76   0.121995  0.505405  0.126161  0.655920
    O   O17   0.461142  0.926450  0.058991  -0.578947
    O   O18   0.359779  0.902503  0.931682  -0.548616
    C   C77   0.381035  0.884610  0.994645  0.679477
    O   O19   0.570349  0.083107  0.111806  -0.640982
    O   O20   0.432308  0.049240  0.010544  -0.642856
    C   C78   0.501916  0.087668  0.082398  0.833205
    Cu  Cu5   0.560545  0.001019  0.056421  0.943315
    Cu  Cu6   0.440548  0.003585  0.936607  0.945209
    O   O21   0.640965  0.075839  0.034735  -0.548609
    O   O22   0.540278  0.104076  0.960320  -0.584128
    O   O23   0.531950  0.919445  0.982123  -0.656705
    O   O24   0.467797  0.957635  0.881607  -0.656380
    C   C79   0.620149  0.118456  0.996957  0.681208
    C   C80   0.500024  0.917793  0.910650  0.860346
    H   H40   0.684960  0.530220  0.971570  0.113147
    C   C81   0.765100  0.496224  0.045933  -0.040148
    H   H41   0.803552  0.546075  0.095162  0.085218
    C   C82   0.781414  0.440786  0.052832  -0.251554
    H   H42   0.831776  0.446792  0.107795  0.134027
    C   C83   0.732383  0.377064  0.990070  0.191715
    C   C84   0.664936  0.367857  0.921015  -0.075379
    H   H43   0.624639  0.317030  0.872224  0.075771
    C   C85   0.648795  0.423421  0.914030  -0.140944
    H   H44   0.596279  0.416343  0.859769  0.093824
    C   C86   0.698751  0.487476  0.976555  -0.139652
    C   C87   0.680755  0.247687  0.992018  -0.112325
    H   H45   0.623940  0.242886  0.984423  0.099131
    C   C88   0.689439  0.187637  0.998964  -0.089697
    C   C89   0.764198  0.196055  0.010121  -0.023348
    C   C90   0.827428  0.263529  0.013383  -0.148227
    H   H46   0.884241  0.269325  0.019831  0.080474
    C   C91   0.819235  0.323589  0.008046  0.095364
    C   C92   0.745738  0.315922  0.998107  -0.045994
    C   C93   0.851106  0.146677  0.081594  -0.196583
    H   H47   0.895675  0.199301  0.129406  0.107037
    C   C94   0.866811  0.090850  0.086830  -0.088704
    H   H48   0.923535  0.099777  0.138604  0.105311
    C   C95   0.810533  0.023877  0.025877  -0.103525
    H   H49   0.823103  0.980252  0.029780  0.088116
    C   C96   0.738757  0.012878  0.959610  -0.107315
    H   H50   0.695725  0.960845  0.911540  0.099739
    C   C97   0.722503  0.068420  0.954524  -0.200978
    H   H51   0.666811  0.060103  0.902204  0.107927
    C   C98   0.778211  0.135159  0.015895  0.263942
    H   H52   0.336158  0.779735  0.348779  0.105032
    C   C99   0.300843  0.821313  0.255908  -0.108329
    H   H53   0.303084  0.864837  0.285686  0.102356
    C   C100  0.280924  0.814405  0.183070  -0.155784
    H   H54   0.267849  0.852784  0.156000  0.097500
    C   C101  0.277421  0.758562  0.144695  0.202359
    C   C102  0.295994  0.710767  0.180210  -0.150268
    H   H55   0.296036  0.668408  0.151440  0.078095
    C   C103  0.317320  0.718557  0.253535  -0.115041
    H   H56   0.333460  0.682080  0.281778  0.103022
    C   C104  0.319267  0.773519  0.291228  -0.118957
    C   C105  0.322352  0.817162  0.064175  -0.098245
    H   H57   0.377430  0.866693  0.115087  0.097521
    C   C106  0.313062  0.816626  0.995280  -0.100553
    C   C107  0.240977  0.752267  0.930452  0.040074
    C   C108  0.181919  0.689785  0.936621  -0.188790
    H   H58   0.126334  0.639634  0.886392  0.104153
    C   C109  0.192206  0.690580  0.005680  -0.010598
    C   C110  0.262284  0.755140  0.069679  -0.027717
    C   C111  0.151129  0.740115  0.796374  -0.180312
    H   H59   0.106867  0.741928  0.807019  0.097206
    C   C112  0.133831  0.732074  0.724309  -0.087525
    H   H60   0.076166  0.727655  0.678621  0.106817
    C   C113  0.189739  0.729149  0.710392  -0.137697
    H   H61   0.175943  0.722406  0.653782  0.103676
    C   C114  0.262716  0.733955  0.768470  -0.079109
    H   H62   0.305517  0.730349  0.756965  0.086319
    C   C115  0.280476  0.742635  0.840771  -0.195769
    H   H63   0.337025  0.745445  0.886091  0.096910
    C   C116  0.225183  0.746574  0.855014  0.235040
    C   C117  0.678139  0.605230  0.830940  -0.475554
    C   C118  0.719914  0.650290  0.910749  0.477008
    C   C119  0.809563  0.687812  0.964537  -0.357527
    C   C120  0.847863  0.728788  0.038381  -0.005438
    C   C121  0.796794  0.732469  0.058816  -0.156396
    C   C122  0.707300  0.694967  0.005384  -0.058932
    C   C123  0.668884  0.653832  0.931573  -0.322263
    H   H64   0.685444  0.557344  0.832669  0.151893
    H   H65   0.606617  0.580639  0.796342  0.110182
    H   H66   0.850314  0.685441  0.949316  0.152477
    H   H67   0.918055  0.758065  0.080299  0.083700
    H   H68   0.826872  0.764597  0.116739  0.104374
    H   H69   0.667080  0.697531  0.021408  0.090525
    H   H70   0.598585  0.623894  0.890648  0.144429
