# Generated by REPEAT Assigner based on pymatgen
data_DB0-m29_o88_o45_f0_pts.sym.104
_audit_creation_date              2022-05-24
_audit_creation_method            REPEAT_Assigner
_cell_length_a                    15.281775
_cell_length_b                    9.290201
_cell_length_c                    18.129569
_cell_angle_alpha                 90.117076
_cell_angle_beta                  104.103610
_cell_angle_gamma                 107.825847
_cell_volume                      2368.239692
_symmetry_space_group_name_H-M    P1
_symmetry_Int_Tables_number       1
loop_
    _symmetry_equiv_pos_site_id
    _symmetry_equiv_pos_as_xyz
    1  x,y,z
loop_
    _atom_site_type_symbol
    _atom_site_label
    _atom_site_fract_x
    _atom_site_fract_y
    _atom_site_fract_z
    _atom_type_partial_charge
    C   C1   0.806983  0.034298  0.133718  0.256169
    C   C2   0.892258  0.043029  0.118222  -0.303691
    H   H1   0.954943  0.060231  0.164808  0.144652
    C   C3   0.896720  0.017992  0.044612  0.239282
    C   C4   0.816036  0.994060  0.985535  -0.202414
    H   H2   0.820929  0.986126  0.927459  0.142684
    C   C5   0.729676  0.985652  0.999861  0.006414
    C   C6   0.724484  0.000641  0.075097  -0.158759
    C   C7   0.988357  0.020355  0.031380  -0.178622
    C   C8   0.994471  0.944217  0.970947  -0.199807
    H   H3   0.051860  0.084214  0.073881  0.159753
    H   H4   0.930889  0.880466  0.928443  0.158095
    C   C9   0.091207  0.913482  0.885741  -0.187323
    H   H5   0.028669  0.891263  0.838525  0.136343
    C   C10  0.176683  0.917777  0.871990  -0.103466
    H   H6   0.180394  0.901443  0.813919  0.132592
    C   C11  0.258183  0.951806  0.931031  0.026267
    C   C12  0.252525  0.971891  0.005577  -0.015912
    C   C13  0.166329  0.968205  0.018652  -0.162092
    H   H7   0.161205  0.979135  0.076492  0.131586
    C   C14  0.086226  0.944113  0.958737  0.207566
    O   O1   0.522547  0.184820  0.800896  -0.545959
    C   C15  0.479198  0.192152  0.729628  0.599279
    O   O2   0.419819  0.101850  0.940954  -0.439909
    O   O3   0.422217  0.068872  0.687245  -0.519375
    O   O4   0.356283  0.891993  0.857626  -0.523431
    C   C16  0.349166  0.978259  0.911908  0.569565
    Fe  Fe1  0.482598  0.980051  0.837156  1.218633
    O   O5   0.568939  0.987942  0.941092  -0.374457
    O   O6   0.657833  0.950717  0.864679  -0.487009
    C   C17  0.648092  0.969226  0.933658  0.536090
    O   O7   0.486702  0.850190  0.750264  -0.361229
    O   O8   0.490235  0.693622  0.845634  -0.421960
    C   C18  0.490447  0.718522  0.774438  0.427983
    O   O9   0.494849  0.101141  0.255564  -0.478161
    O   O10  0.494810  0.260325  0.161230  -0.476053
    C   C19  0.492988  0.234091  0.232034  0.548733
    O   O11  0.410953  0.961874  0.064920  -0.433267
    O   O12  0.324277  0.010410  0.140799  -0.507959
    C   C20  0.333417  0.987131  0.072074  0.555449
    O   O13  0.553586  0.882896  0.321021  -0.438645
    O   O14  0.624216  0.061144  0.146778  -0.565819
    C   C21  0.633269  0.972266  0.094517  0.687296
    O   O15  0.460366  0.766612  0.205138  -0.638005
    C   C22  0.500798  0.759236  0.277150  0.638192
    O   O16  0.563583  0.847056  0.066263  -0.471741
    Fe  Fe2  0.498705  0.971403  0.168434  1.361663
    C   C23  0.491801  0.597862  0.722695  0.220007
    C   C24  0.490503  0.619436  0.647050  -0.365612
    H   H8   0.491758  0.728102  0.625334  0.173765
    C   C25  0.487462  0.502317  0.598181  0.386291
    C   C26  0.482680  0.360838  0.624909  -0.197645
    H   H9   0.477627  0.264630  0.588626  0.112760
    C   C27  0.486251  0.340700  0.700741  0.088629
    C   C28  0.492290  0.459227  0.749600  -0.258152
    N   N1   0.488798  0.530271  0.521688  -0.124687
    N   N2   0.491827  0.419821  0.484575  -0.191687
    C   C29  0.491349  0.331783  0.359297  -0.305416
    H   H10  0.490477  0.223171  0.380927  0.153627
    C   C30  0.490823  0.354130  0.283821  0.114392
    C   C31  0.489985  0.492828  0.257050  -0.218778
    C   C32  0.494569  0.610551  0.305828  0.085953
    C   C33  0.497412  0.589551  0.381487  -0.184906
    H   H11  0.501367  0.685080  0.417710  0.056162
    C   C34  0.493336  0.448171  0.408134  0.401720
    H   H12  0.492872  0.440278  0.808456  0.179155
    H   H13  0.489914  0.512252  0.198319  0.184117
    C   C35  0.803318  0.041725  0.213390  -0.059181
    C   C36  0.849991  0.174430  0.260456  0.314826
    C   C37  0.900012  0.315981  0.229490  -0.383181
    C   C38  0.847023  0.177066  0.336032  -0.305845
    C   C39  0.798921  0.047776  0.364659  -0.051810
    C   C40  0.752613  0.915874  0.317743  -0.086380
    C   C41  0.754051  0.913309  0.242068  -0.168557
    H   H14  0.850334  0.340926  0.179291  0.102511
    H   H15  0.962408  0.303159  0.212746  0.088364
    H   H16  0.925266  0.412914  0.273425  0.108042
    H   H17  0.882569  0.279971  0.373423  0.147920
    H   H18  0.797484  0.049936  0.423963  0.111611
    H   H19  0.715657  0.814147  0.340385  0.086915
    H   H20  0.718389  0.809203  0.205602  0.095851
