# Generated by REPEAT Assigner based on pymatgen
data_DB0-m3_o16_o105_f0_fsc.sym.24_sqe
_audit_creation_date              2022-05-24
_audit_creation_method            REPEAT_Assigner
_cell_length_a                    10.870103
_cell_length_b                    12.044566
_cell_length_c                    15.779907
_cell_angle_alpha                 84.133814
_cell_angle_beta                  90.069934
_cell_angle_gamma                 106.714105
_cell_volume                      1967.487408
_symmetry_space_group_name_H-M    P1
_symmetry_Int_Tables_number       1
loop_
    _symmetry_equiv_pos_site_id
    _symmetry_equiv_pos_as_xyz
    1  x,y,z
loop_
    _atom_site_type_symbol
    _atom_site_label
    _atom_site_fract_x
    _atom_site_fract_y
    _atom_site_fract_z
    _atom_type_partial_charge
    C   C1   0.060513  0.992272  0.927113  0.002976
    C   C2   0.122986  0.995189  0.004260  -0.158543
    H   H1   0.214858  0.979762  0.006086  0.114872
    C   C3   0.064201  0.002473  0.080849  0.032730
    C   C4   0.934124  0.989127  0.082290  -0.009683
    C   C5   0.870887  0.984953  0.005441  -0.146594
    H   H2   0.777487  0.997565  0.005003  0.114571
    C   C6   0.930624  0.980746  0.928229  -0.004348
    C   C7   0.058681  0.982257  0.774571  0.065038
    C   C8   0.122676  0.968884  0.701037  -0.227802
    H   H3   0.074056  0.945303  0.643142  0.128239
    C   C9   0.253155  0.983948  0.700509  -0.053850
    C   C10  0.321307  0.019633  0.770503  -0.067699
    H   H4   0.424890  0.042819  0.767768  0.099752
    C   C11  0.259237  0.024453  0.844693  -0.214902
    H   H5   0.320663  0.055276  0.896053  0.122356
    C   C12  0.125809  0.997191  0.849711  0.087167
    C   C13  0.729956  0.943226  0.851874  -0.211816
    H   H6   0.669640  0.917465  0.908700  0.121947
    C   C14  0.666746  0.944717  0.776877  -0.067335
    H   H7   0.563380  0.924635  0.778124  0.096882
    C   C15  0.734080  0.975511  0.700849  -0.108828
    C   C16  0.864087  0.988418  0.699051  -0.204706
    C   C17  0.928955  0.978468  0.774836  0.073297
    C   C18  0.863375  0.969309  0.852184  0.080383
    C   C19  0.735996  0.946429  0.166768  -0.165963
    H   H8   0.676218  0.908637  0.116493  0.117288
    C   C20  0.673983  0.947034  0.242036  -0.083387
    H   H9   0.570345  0.914835  0.246586  0.101955
    C   C21  0.740982  0.996792  0.308829  -0.068996
    C   C22  0.874178  0.031200  0.304479  -0.255198
    C   C23  0.937668  0.008715  0.233320  0.079229
    C   C24  0.869268  0.983924  0.159807  0.065813
    C   C25  0.066765  0.009418  0.233449  0.052076
    C   C26  0.129424  0.992988  0.309116  -0.158356
    H   H10  0.078608  0.967446  0.369887  0.095670
    C   C27  0.259358  0.005976  0.308159  -0.079995
    C   C28  0.327704  0.036494  0.232453  -0.057559
    H   H11  0.430939  0.054008  0.231665  0.088121
    C   C29  0.265115  0.038800  0.157183  -0.200469
    H   H12  0.325624  0.062739  0.100384  0.123292
    C   C30  0.131888  0.015391  0.156562  0.050092
    H   H13  0.912148  0.009699  0.637349  0.120201
    O   O1   0.656147  0.087079  0.590753  -0.768479
    O   O2   0.589264  0.887043  0.598910  -0.764932
    C   C31  0.662389  0.984207  0.623293  0.986039
    O   O3   0.332527  0.880547  0.601358  -0.712664
    O   O4   0.399058  0.082352  0.588870  -0.696671
    C   C32  0.326050  0.981422  0.623534  0.821479
    O   O5   0.335035  0.893832  0.418893  -0.782144
    O   O6   0.402042  0.095740  0.410877  -0.757532
    C   C33  0.329857  0.997517  0.386203  0.932884
    O   O7   0.658663  0.100974  0.406928  -0.755424
    O   O8   0.591827  0.900452  0.419055  -0.713106
    C   C34  0.664986  0.000645  0.384304  0.908459
    Zn  Zn1  0.452689  0.860408  0.510662  1.066342
    Zn  Zn2  0.539731  0.121169  0.498381  1.045041
    C   C35  0.751636  0.448402  0.489709  -0.219518
    H   H14  0.780581  0.282708  0.483525  0.233581
    H   H15  0.810240  0.669954  0.498667  0.160939
    H   H16  0.853448  0.492999  0.485829  0.139608
    N   N1   0.584543  0.273765  0.492921  0.186299
    C   C36  0.282003  0.655371  0.523265  -0.025586
    C   C37  0.233875  0.536257  0.528724  -0.204274
    C   C38  0.314838  0.468000  0.524101  -0.012785
    C   C39  0.446377  0.519183  0.513246  0.034176
    C   C40  0.492440  0.640574  0.512822  0.064558
    C   C41  0.533376  0.452851  0.504065  0.053465
    C   C42  0.663650  0.509204  0.498143  0.272641
    C   C43  0.708124  0.626650  0.501811  -0.286572
    C   C44  0.624604  0.691055  0.509180  -0.053307
    C   C45  0.495995  0.331980  0.500092  -0.250266
    C   C46  0.710679  0.330183  0.487800  -0.190745
    N   N2   0.409543  0.707314  0.516503  0.026991
    H   H17  0.396798  0.281324  0.503090  0.192838
    H   H18  0.215689  0.706812  0.525265  0.153170
    H   H19  0.270856  0.375461  0.530636  0.084310
    H   H20  0.131379  0.495914  0.536215  0.142628
    H   H21  0.669095  0.781390  0.512710  0.142111
    C   C47  0.944675  0.107020  0.366926  0.773803
    O   O9   0.915482  0.085356  0.442704  -0.545489
    O   O10  0.043368  0.200789  0.339607  -0.405796
    C   C48  0.112611  0.271999  0.395917  0.181688
    H   H22  0.189074  0.343026  0.360472  0.032037
    H   H23  0.157517  0.220842  0.442132  0.022945
    H   H24  0.048512  0.310608  0.430075  -0.000660
