# Generated by REPEAT Assigner based on pymatgen
data_DB0-m2_o8_o23_f0_pcu.sym.109_sqe
_audit_creation_date              2022-05-24
_audit_creation_method            REPEAT_Assigner
_cell_length_a                    15.553957
_cell_length_b                    15.856704
_cell_length_c                    17.004593
_cell_angle_alpha                 89.992898
_cell_angle_beta                  96.360310
_cell_angle_gamma                 92.799190
_cell_volume                      4163.072971
_symmetry_space_group_name_H-M    P1
_symmetry_Int_Tables_number       1
loop_
    _symmetry_equiv_pos_site_id
    _symmetry_equiv_pos_as_xyz
    1  x,y,z
loop_
    _atom_site_type_symbol
    _atom_site_label
    _atom_site_fract_x
    _atom_site_fract_y
    _atom_site_fract_z
    _atom_type_partial_charge
    O   O1   0.583918  0.496958  0.616500  -0.620428
    O   O2   0.435512  0.496754  0.609464  -0.605619
    C   C1   0.512144  0.496975  0.650129  0.701503
    O   O3   0.576983  0.622510  0.499638  -0.656643
    O   O4   0.428270  0.616283  0.492344  -0.634321
    C   C2   0.503002  0.658711  0.498579  0.867639
    Cu  Cu1  0.588731  0.500497  0.502044  0.923198
    Cu  Cu2  0.415781  0.493334  0.494276  0.908582
    O   O5   0.569044  0.497039  0.386848  -0.589933
    O   O6   0.420372  0.496666  0.379806  -0.605520
    O   O7   0.575859  0.377348  0.498925  -0.641781
    O   O8   0.427167  0.371119  0.491802  -0.664020
    C   C3   0.492273  0.496950  0.346315  0.748185
    C   C4   0.501469  0.335003  0.497739  0.873317
    C   C5   0.583685  0.953771  0.546731  -0.151244
    C   C6   0.423355  0.945416  0.533832  -0.146128
    C   C7   0.426430  0.040853  0.538966  -0.112441
    H   H1   0.594940  0.076624  0.602182  0.030961
    H   H2   0.583378  0.934326  0.609352  0.040055
    H   H3   0.364067  0.923069  0.495837  0.027539
    H   H4   0.421827  0.918480  0.593862  0.034797
    H   H5   0.434683  0.061025  0.601906  0.019781
    H   H6   0.364982  0.064430  0.509740  0.026074
    C   C8   0.501222  0.244576  0.497788  -0.204199
    C   C9   0.502591  0.917513  0.498309  0.621615
    C   C10  0.586039  0.049165  0.541679  -0.132205
    C   C11  0.501814  0.076541  0.498059  0.663029
    C   C12  0.493247  0.044156  0.413607  -0.165905
    C   C13  0.500214  0.949255  0.414047  -0.094864
    C   C14  0.501501  0.168653  0.497935  -0.367820
    C   C15  0.502949  0.825226  0.498496  -0.355830
    C   C16  0.503271  0.749239  0.498585  -0.203307
    H   H7   0.560239  0.932950  0.389134  0.020553
    H   H8   0.443462  0.919513  0.377304  0.029917
    H   H9   0.545290  0.073899  0.381818  0.039529
    H   H10  0.641861  0.930053  0.523437  0.037894
    H   H11  0.640936  0.071552  0.509434  0.024327
    H   H12  0.429477  0.060131  0.382975  0.031411
    C   C17  0.517901  0.497447  0.736885  -0.123067
    C   C18  0.443819  0.498634  0.774753  -0.113013
    C   C19  0.449058  0.498227  0.856267  -0.151255
    C   C20  0.529204  0.496719  0.901070  0.383704
    C   C21  0.603285  0.496136  0.863119  -0.220596
    C   C22  0.597587  0.496223  0.781519  0.011586
    C   C23  0.555715  0.497419  0.140664  -0.242490
    C   C24  0.560863  0.497301  0.222126  -0.000166
    C   C25  0.475432  0.497756  0.095950  0.496828
    N   N1   0.537521  0.497306  0.984820  -0.130721
    N   N2   0.466686  0.497566  0.012262  -0.303204
    C   C26  0.486560  0.497432  0.259801  -0.229306
    H   H13  0.624041  0.497091  0.255731  0.103665
    H   H14  0.615933  0.497213  0.114505  0.094612
    H   H15  0.656370  0.494383  0.753283  0.099576
    C   C27  0.406787  0.498261  0.215210  0.079040
    C   C28  0.401565  0.498320  0.133824  -0.349820
    H   H16  0.347648  0.498934  0.243100  0.088377
    H   H17  0.388953  0.499175  0.882536  0.080478
    H   H18  0.338953  0.498832  0.099232  0.136764
    H   H19  0.380713  0.499775  0.741204  0.135618
    N   N3   0.286456  0.487788  0.487715  -0.120882
    C   C29  0.247408  0.535793  0.537343  -0.016985
    C   C30  0.158384  0.533325  0.534514  -0.171839
    C   C31  0.108931  0.479667  0.481179  0.494104
    C   C32  0.150452  0.429275  0.432925  -0.399082
    C   C33  0.239566  0.433465  0.437428  0.149857
    C   C34  0.847040  0.461324  0.462717  -0.170750
    C   C35  0.757899  0.458256  0.459149  -0.021458
    C   C36  0.895835  0.515533  0.516094  0.491021
    N   N4   0.017446  0.473784  0.475433  -0.229753
    N   N5   0.987374  0.522039  0.521951  -0.226623
    N   N6   0.718071  0.505876  0.508403  -0.122924
    H   H20  0.720054  0.416396  0.416976  0.153209
    H   H21  0.875754  0.420182  0.423418  0.069934
    H   H22  0.113104  0.386240  0.391566  0.150403
    H   H23  0.271616  0.393802  0.399234  0.112868
    C   C37  0.764369  0.560194  0.559250  0.142494
    C   C38  0.853517  0.565076  0.564410  -0.384025
    H   H24  0.731706  0.599610  0.597091  0.114798
    H   H25  0.130224  0.573806  0.574864  0.073119
    H   H26  0.890171  0.607480  0.606844  0.141150
    H   H27  0.285738  0.577764  0.578956  0.147883
    C   C39  0.688078  0.492021  0.909413  0.218449
    C   C40  0.750069  0.557420  0.907601  -0.026747
    Cl  Cl1  0.727326  0.649556  0.853857  -0.083127
    C   C41  0.830031  0.551855  0.950769  -0.057002
    C   C42  0.848375  0.481424  0.995870  -0.170344
    C   C43  0.786857  0.416128  0.997585  -0.033899
    C   C44  0.706944  0.421366  0.954384  -0.248669
    H   H28  0.878281  0.603137  0.949572  0.096458
    H   H29  0.911002  0.477392  0.029861  0.126076
    H   H30  0.801329  0.360694  0.032676  0.095084
    H   H31  0.659257  0.369542  0.955279  0.142890
