# Generated by REPEAT Assigner based on pymatgen
data_DB0-m3_o25_o450_f0_fsc.sym.7
_audit_creation_date              2022-05-24
_audit_creation_method            REPEAT_Assigner
_cell_length_a                    8.529787
_cell_length_b                    12.742151
_cell_length_c                    14.286175
_cell_angle_alpha                 90.902324
_cell_angle_beta                  90.076899
_cell_angle_gamma                 95.447580
_cell_volume                      1545.522357
_symmetry_space_group_name_H-M    P1
_symmetry_Int_Tables_number       1
loop_
    _symmetry_equiv_pos_site_id
    _symmetry_equiv_pos_as_xyz
    1  x,y,z
loop_
    _atom_site_type_symbol
    _atom_site_label
    _atom_site_fract_x
    _atom_site_fract_y
    _atom_site_fract_z
    _atom_type_partial_charge
    C   C1    0.171562  0.709693  0.019267  0.089884
    C   C2    0.828438  0.290307  0.980733  0.090007
    C   C3    0.181061  0.816306  0.000508  -0.310514
    C   C4    0.818939  0.183694  0.999491  -0.310588
    C   C5    0.045215  0.868514  0.997726  0.620585
    C   C6    0.954785  0.131485  0.002274  0.620700
    C   C7    0.898893  0.810343  0.002672  -0.255279
    C   C8    0.101107  0.189657  0.997328  -0.255384
    C   C9    0.891876  0.704581  0.021497  -0.003211
    C   C10   0.108124  0.295419  0.978503  -0.003237
    C   C11   0.026982  0.656192  0.034834  -0.168851
    C   C12   0.973018  0.343808  0.965166  -0.168901
    N   N1    0.059632  0.979262  0.986970  -0.242311
    N   N2    0.940368  0.020738  0.013030  -0.242446
    H   H1    0.019045  0.572751  0.047988  0.133446
    H   H2    0.980955  0.427249  0.952012  0.133444
    O   O1    0.686180  0.593911  0.090612  -0.731340
    O   O2    0.313821  0.406089  0.909388  -0.731342
    O   O3    0.684478  0.618605  0.930810  -0.720182
    O   O4    0.315523  0.381395  0.069190  -0.720243
    C   C13   0.743342  0.639109  0.014650  0.870288
    C   C14   0.256658  0.360891  0.985350  0.870374
    O   O5    0.652106  0.400468  0.910875  -0.736128
    O   O6    0.347895  0.599532  0.089125  -0.736258
    O   O7    0.641489  0.375901  0.070473  -0.717423
    O   O8    0.358512  0.624098  0.929527  -0.717476
    C   C15   0.693083  0.352783  0.986723  0.813866
    C   C16   0.306917  0.647217  0.013276  0.813978
    Zn  Zn1   0.502486  0.512522  0.896467  1.110397
    Zn  Zn2   0.497514  0.487477  0.103533  1.110394
    C   C17   0.380406  0.545044  0.466176  -0.330099
    C   C18   0.619594  0.454956  0.533823  -0.329708
    C   C19   0.368415  0.455002  0.534618  -0.348288
    C   C20   0.631585  0.544998  0.465382  -0.348583
    N   N3    0.505792  0.524779  0.774146  0.228165
    N   N4    0.494209  0.475221  0.225854  0.228261
    C   C21   0.514567  0.600864  0.522904  -0.213190
    C   C22   0.485433  0.399136  0.477096  -0.213536
    C   C23   0.502588  0.510862  0.590984  1.517738
    C   C24   0.497413  0.489138  0.409016  1.518129
    C   C25   0.504804  0.520328  0.693190  -0.690302
    C   C26   0.495197  0.479671  0.306810  -0.690457
    Cl  Cl1   0.365148  0.886381  0.983176  0.004182
    Cl  Cl2   0.634852  0.113619  0.016824  0.004235
    Cl  Cl3   0.719901  0.862832  0.979086  -0.010445
    Cl  Cl4   0.280100  0.137168  0.020914  -0.010437
    Cl  Cl5   0.190275  0.394662  0.582289  0.036941
    Cl  Cl6   0.809726  0.605338  0.417711  0.036989
    Cl  Cl7   0.218310  0.605403  0.419613  0.033593
    Cl  Cl8   0.781690  0.394597  0.580387  0.033527
    Cl  Cl9   0.465701  0.262957  0.445618  0.018566
    Cl  Cl10  0.534299  0.737042  0.554382  0.018470
