# Generated by REPEAT Assigner based on pymatgen
data_DB0-m3_o15_o21_f0_pcu.sym.18
_audit_creation_date              2022-05-24
_audit_creation_method            REPEAT_Assigner
_cell_length_a                    9.884101
_cell_length_b                    11.041055
_cell_length_c                    14.080424
_cell_angle_alpha                 89.988415
_cell_angle_beta                  85.264581
_cell_angle_gamma                 89.998901
_cell_volume                      1531.364047
_symmetry_space_group_name_H-M    P1
_symmetry_Int_Tables_number       1
loop_
    _symmetry_equiv_pos_site_id
    _symmetry_equiv_pos_as_xyz
    1  x,y,z
loop_
    _atom_site_type_symbol
    _atom_site_label
    _atom_site_fract_x
    _atom_site_fract_y
    _atom_site_fract_z
    _atom_type_partial_charge
    O   O1   0.387454  0.684269  0.494871  -0.605415
    O   O2   0.612545  0.315732  0.505129  -0.605407
    O   O3   0.619033  0.676331  0.493606  -0.600223
    O   O4   0.380966  0.323669  0.506394  -0.600204
    C   C1   0.506948  0.738745  0.489464  0.692843
    C   C2   0.493051  0.261255  0.510536  0.692812
    O   O5   0.364260  0.510065  0.642144  -0.692893
    O   O6   0.635739  0.489935  0.357856  -0.692886
    O   O7   0.596893  0.500995  0.641682  -0.708328
    O   O8   0.403106  0.499006  0.358319  -0.708329
    C   C3   0.475613  0.507030  0.686274  0.938630
    C   C4   0.524387  0.492970  0.313727  0.938638
    Zn  Zn1  0.346043  0.504211  0.499887  1.009674
    Zn  Zn2  0.653956  0.495789  0.500114  1.009629
    C   C5   0.535471  0.489759  0.211497  -0.329197
    C   C6   0.464528  0.510241  0.788504  -0.329191
    C   C7   0.553300  0.484593  0.023216  -0.071926
    C   C8   0.446700  0.515408  0.976785  -0.071900
    C   C9   0.456110  0.512680  0.874347  0.055129
    C   C10  0.543889  0.487320  0.125654  0.055140
    H   H1   0.352709  0.542583  0.016128  0.146917
    H   H2   0.647290  0.457417  0.983873  0.146925
    H   H3   0.949236  0.918720  0.565814  0.059423
    H   H4   0.050763  0.081280  0.434187  0.059425
    C   C11  0.305988  0.883314  0.402435  -0.217341
    C   C12  0.694011  0.116686  0.597566  -0.217335
    C   C13  0.183042  0.936463  0.391100  -0.117249
    C   C14  0.816957  0.063537  0.608900  -0.117257
    C   C15  0.151448  0.043853  0.435763  0.040117
    C   C16  0.848551  0.956147  0.564237  0.040127
    C   C17  0.248728  0.105201  0.480913  -0.228395
    C   C18  0.751272  0.894799  0.519087  -0.228409
    C   C19  0.379047  0.058166  0.484596  0.163052
    C   C20  0.620953  0.941835  0.515404  0.163053
    C   C21  0.399312  0.937873  0.457675  0.137516
    C   C22  0.600687  0.062128  0.542326  0.137519
    C   C23  0.486146  0.125287  0.518244  -0.250667
    C   C24  0.513853  0.874713  0.481757  -0.250675
    H   H5   0.328251  0.799557  0.364846  0.152872
    H   H6   0.671749  0.200443  0.635154  0.152870
    H   H7   0.109526  0.891192  0.350772  0.095168
    H   H8   0.890473  0.108809  0.649229  0.095171
    H   H9   0.214741  0.185013  0.519262  0.112715
    H   H10  0.785259  0.814987  0.480739  0.112726
    C   C25  0.846278  0.646746  0.624047  -0.142871
    C   C26  0.153721  0.353255  0.375953  -0.142909
    C   C27  0.905636  0.718764  0.688010  -0.143649
    C   C28  0.094364  0.281236  0.311990  -0.143611
    C   C29  0.043639  0.724140  0.686309  0.095079
    C   C30  0.956360  0.275860  0.313692  0.095041
    C   C31  0.120150  0.655764  0.620406  -0.245893
    C   C32  0.879849  0.344236  0.379595  -0.245881
    C   C33  0.062440  0.575770  0.558909  0.175274
    C   C34  0.937559  0.424231  0.441092  0.175184
    C   C35  0.920852  0.570570  0.560823  0.161589
    C   C36  0.079148  0.429430  0.439178  0.161707
    N   N1   0.142540  0.505459  0.497939  -0.171170
    N   N2   0.857459  0.494541  0.502062  -0.171055
    H   H11  0.739775  0.655909  0.625532  0.190020
    H   H12  0.260224  0.344092  0.374469  0.190016
    H   H13  0.841898  0.774205  0.736564  0.131513
    H   H14  0.158101  0.225796  0.263437  0.131509
    H   H15  0.226181  0.668356  0.618300  0.225958
    H   H16  0.773818  0.331644  0.381701  0.225962
    C   C37  0.891177  0.194983  0.248142  0.609805
    O   O9   0.960426  0.133131  0.191240  -0.510624
    O   O10  0.750356  0.188579  0.250054  -0.567994
    H   H17  0.723148  0.129007  0.200441  0.410477
    C   C38  0.108822  0.805018  0.751859  0.609788
    O   O11  0.039573  0.866869  0.808760  -0.510615
    O   O12  0.249643  0.811422  0.749947  -0.567993
    H   H18  0.276851  0.870993  0.799560  0.410476
