# Generated by REPEAT Assigner based on pymatgen
data_DB0-m29_o83_o147_f0_pts.sym.100
_audit_creation_date              2022-05-24
_audit_creation_method            REPEAT_Assigner
_cell_length_a                    15.810362
_cell_length_b                    9.499442
_cell_length_c                    15.842138
_cell_angle_alpha                 87.562373
_cell_angle_beta                  86.678882
_cell_angle_gamma                 104.793303
_cell_volume                      2292.540444
_symmetry_space_group_name_H-M    P1
_symmetry_Int_Tables_number       1
loop_
    _symmetry_equiv_pos_site_id
    _symmetry_equiv_pos_as_xyz
    1  x,y,z
loop_
    _atom_site_type_symbol
    _atom_site_label
    _atom_site_fract_x
    _atom_site_fract_y
    _atom_site_fract_z
    _atom_type_partial_charge
    C   C1   0.260911  0.983260  0.043272  0.027392
    C   C2   0.246274  0.973131  0.957893  0.018391
    C   C3   0.163196  0.968443  0.932335  -0.202863
    C   C4   0.191824  0.981191  0.100451  -0.254482
    C   C5   0.110744  0.983310  0.073763  0.123298
    C   C6   0.096018  0.985973  0.988812  0.230267
    C   C7   0.013581  0.998042  0.963817  -0.325640
    C   C8   0.998833  0.027196  0.879443  0.315781
    C   C9   0.915287  0.015593  0.855650  0.211912
    C   C10  0.044386  0.981007  0.133562  -0.133945
    C   C11  0.961900  0.977514  0.110415  -0.206773
    C   C12  0.944385  0.986401  0.025414  0.216340
    C   C13  0.859811  0.985876  0.000831  -0.120940
    C   C14  0.846070  0.996357  0.915635  0.068417
    C   C15  0.763382  0.991853  0.889770  -0.217894
    C   C16  0.788020  0.975207  0.058896  -0.016254
    C   C17  0.704963  0.969872  0.033192  -0.059099
    C   C18  0.692441  0.973719  0.947306  0.077715
    H   H1   0.151517  0.941850  0.868198  0.139619
    H   H2   0.202550  0.984333  0.167190  0.186353
    H   H3   0.055845  0.976958  0.200125  0.128186
    H   H4   0.914258  0.970285  0.162470  0.156025
    H   H5   0.752059  0.998058  0.823382  0.186543
    H   H6   0.793994  0.972288  0.125774  0.091596
    O   O1   0.558702  0.989125  0.078470  -0.414145
    C   C19  0.633728  0.966416  0.098643  0.601687
    O   O2   0.500677  0.700028  0.165933  -0.456441
    O   O3   0.646592  0.947522  0.178986  -0.567564
    O   O4   0.469730  0.826612  0.274653  -0.594372
    C   C20  0.490543  0.710198  0.248007  0.740419
    Fe  Fe1  0.477168  0.973208  0.180068  1.375881
    O   O5   0.355060  0.913706  0.141680  -0.585004
    O   O6   0.413383  0.106844  0.048118  -0.465836
    C   C21  0.347044  0.997885  0.076312  0.617504
    O   O7   0.521472  0.169886  0.226174  -0.598953
    O   O8   0.389275  0.090492  0.299638  -0.541050
    C   C22  0.463680  0.190554  0.283961  0.679912
    O   O9   0.432958  0.766223  0.767772  -0.582605
    O   O10  0.559218  0.855722  0.685621  -0.520481
    C   C23  0.488850  0.749466  0.706807  0.596339
    O   O11  0.595070  0.034753  0.849212  -0.581900
    O   O12  0.542086  0.838432  0.941624  -0.467009
    C   C24  0.605843  0.951919  0.914043  0.551493
    O   O13  0.301830  0.979763  0.812283  -0.510172
    O   O14  0.476719  0.108399  0.715634  -0.582768
    C   C25  0.457289  0.227167  0.741182  0.641196
    O   O15  0.391493  0.948072  0.913422  -0.479766
    C   C26  0.315423  0.965379  0.892772  0.549106
    O   O16  0.443905  0.239377  0.822749  -0.487747
    Fe  Fe2  0.473028  0.965910  0.811576  1.434523
    C   C27  0.460346  0.484431  0.716109  -0.043995
    C   C28  0.474693  0.610425  0.665533  -0.079919
    C   C29  0.480775  0.604899  0.578087  0.081608
    C   C30  0.509941  0.744195  0.525386  -0.169744
    C   C31  0.487273  0.734181  0.434552  0.153793
    C   C32  0.457667  0.352429  0.681508  -0.177086
    C   C33  0.458269  0.345097  0.593303  0.125203
    C   C34  0.468688  0.471836  0.541543  -0.089470
    C   C35  0.475643  0.467115  0.448555  -0.005919
    C   C36  0.487833  0.593439  0.396379  0.008549
    C   C37  0.494178  0.586355  0.307864  -0.275268
    C   C38  0.454744  0.203438  0.554702  -0.010458
    C   C39  0.426781  0.196685  0.465561  -0.008537
    C   C40  0.464181  0.334118  0.412440  0.027007
    C   C41  0.478700  0.329223  0.325495  -0.177811
    C   C42  0.500755  0.456234  0.274733  0.310295
    H   H7   0.478341  0.826517  0.550900  0.069518
    H   H8   0.421726  0.754915  0.429752  0.049133
    H   H9   0.404153  0.115450  0.590503  0.071508
    H   H10  0.354212  0.172167  0.467771  0.053937
    H   H11  0.582110  0.785129  0.526582  0.097940
    H   H12  0.538806  0.823358  0.400778  0.028335
    H   H13  0.519971  0.180200  0.555748  0.059160
    H   H14  0.448151  0.103949  0.439793  0.024649
    H   H15  0.459239  0.493516  0.783863  0.141597
    O   O17  0.518321  0.447882  0.189740  -0.275214
    C   C43  0.609912  0.483791  0.177674  0.158125
    H   H16  0.637088  0.420454  0.224527  -0.004677
    H   H17  0.637430  0.601660  0.185583  -0.006315
    C   C44  0.636069  0.448963  0.088927  0.366956
    H   H18  0.608625  0.331236  0.080384  -0.061326
    H   H19  0.609787  0.513833  0.042119  -0.033832
    C   C45  0.735132  0.486112  0.074905  -0.436528
    H   H20  0.763102  0.603962  0.082775  0.082669
    H   H21  0.753350  0.460386  0.009784  0.089497
    H   H22  0.761910  0.420965  0.121143  0.077133
    O   O18  0.065709  0.076255  0.818149  -0.256270
    C   C46  0.094051  0.226778  0.825445  0.102146
    H   H23  0.154937  0.252183  0.859538  0.031807
    H   H24  0.043037  0.266312  0.861020  -0.012268
    C   C47  0.112208  0.302571  0.737647  0.245007
    H   H25  0.162921  0.262572  0.701850  -0.029557
    H   H26  0.051095  0.277801  0.703871  -0.061590
    C   C48  0.144538  0.466052  0.743986  -0.284897
    H   H27  0.093994  0.506997  0.779382  0.063641
    H   H28  0.157472  0.519998  0.679364  0.069558
    H   H29  0.206034  0.491768  0.777146  0.062292
    O   O19  0.903117  0.034038  0.771437  -0.343527
    C   C49  0.886080  0.894166  0.741068  0.130011
    H   H30  0.816707  0.859462  0.725196  0.014756
    H   H31  0.897676  0.815566  0.790022  -0.027292
    C   C50  0.945500  0.895729  0.662201  0.307307
    H   H32  0.934400  0.975393  0.613622  -0.031803
    H   H33  0.014952  0.927734  0.677968  -0.088315
    C   C51  0.925658  0.745441  0.627432  -0.297799
    H   H34  0.936663  0.665075  0.675646  0.078427
    H   H35  0.969668  0.747771  0.569990  0.070932
    H   H36  0.856533  0.713049  0.610524  0.044726
