# Generated by REPEAT Assigner based on pymatgen
data_DB0-m3_o16_o20_f0_pcu.sym.61_sqe
_audit_creation_date              2022-05-24
_audit_creation_method            REPEAT_Assigner
_cell_length_a                    12.580894
_cell_length_b                    13.760096
_cell_length_c                    14.529088
_cell_angle_alpha                 89.991202
_cell_angle_beta                  103.104793
_cell_angle_gamma                 86.652200
_cell_volume                      2445.277362
_symmetry_space_group_name_H-M    P1
_symmetry_Int_Tables_number       1
loop_
    _symmetry_equiv_pos_site_id
    _symmetry_equiv_pos_as_xyz
    1  x,y,z
loop_
    _atom_site_type_symbol
    _atom_site_label
    _atom_site_fract_x
    _atom_site_fract_y
    _atom_site_fract_z
    _atom_type_partial_charge
    O   O1   0.381281  0.623860  0.485294  -0.676368
    O   O2   0.564364  0.653131  0.520892  -0.625854
    C   C1   0.460726  0.684056  0.500803  0.727108
    O   O3   0.424137  0.477153  0.626821  -0.712078
    O   O4   0.607959  0.506265  0.660058  -0.691975
    C   C2   0.517222  0.490389  0.686394  0.999006
    Zn  Zn1  0.388493  0.476374  0.483701  1.052761
    Zn  Zn2  0.630343  0.514760  0.526539  1.030428
    O   O5   0.454385  0.337792  0.491443  -0.660318
    O   O6   0.637432  0.367337  0.524507  -0.695817
    O   O7   0.411194  0.484223  0.350275  -0.684477
    O   O8   0.593571  0.516086  0.383336  -0.708173
    C   C3   0.558053  0.307585  0.508746  0.725847
    C   C4   0.501171  0.501473  0.323735  0.940637
    C   C5   0.517881  0.491548  0.785307  -0.361496
    C   C6   0.515420  0.493582  0.867733  0.141446
    C   C7   0.510507  0.496548  0.963860  -0.042376
    C   C8   0.505997  0.498941  0.045820  -0.055362
    C   C9   0.501699  0.501004  0.142108  0.129399
    C   C10  0.499942  0.501838  0.224704  -0.330337
    C   C11  0.715896  0.077053  0.481919  -0.286676
    H   H1   0.752403  0.224976  0.496344  0.100628
    H   H2   0.742219  0.895914  0.440514  0.132680
    H   H3   0.795720  0.055281  0.470307  0.135967
    C   C12  0.587429  0.202979  0.505133  -0.098410
    C   C13  0.329727  0.814256  0.522541  -0.068634
    C   C14  0.298245  0.909427  0.534395  -0.120382
    C   C15  0.366129  0.982171  0.527556  -0.171310
    C   C16  0.466699  0.961417  0.504743  0.053237
    C   C17  0.497489  0.864184  0.489932  0.207799
    C   C18  0.538043  0.035110  0.497904  -0.011016
    C   C19  0.639676  0.008954  0.480855  0.256294
    C   C20  0.665556  0.914767  0.459728  -0.242081
    C   C21  0.593771  0.844002  0.460340  -0.237732
    C   C22  0.511497  0.134390  0.506732  -0.120601
    C   C23  0.691141  0.173245  0.496585  -0.033907
    C   C24  0.429985  0.789575  0.502521  -0.181814
    H   H4   0.432130  0.161737  0.513757  0.105932
    H   H5   0.275688  0.759110  0.532846  0.106399
    H   H6   0.336575  0.054041  0.541985  0.130820
    H   H7   0.220507  0.927148  0.552112  0.101669
    H   H8   0.616007  0.773791  0.435665  0.164646
    C   C25  0.086123  0.366444  0.366120  -0.095446
    H   H9   0.250234  0.352749  0.351248  0.138375
    H   H10  0.061030  0.314549  0.310820  0.088217
    N   N1   0.228875  0.451682  0.456662  0.008794
    C   C26  0.819513  0.604212  0.621115  0.005588
    C   C27  0.925779  0.629661  0.647054  -0.146075
    C   C28  0.002937  0.588735  0.603171  -0.077915
    C   C29  0.973484  0.521138  0.532082  -0.041430
    C   C30  0.864409  0.497220  0.507968  0.189598
    C   C31  0.049206  0.476725  0.484502  0.140883
    C   C32  0.013384  0.410545  0.413819  -0.033447
    C   C33  0.905460  0.388038  0.389558  0.288308
    C   C34  0.832432  0.430522  0.437561  -0.367490
    C   C35  0.160131  0.496077  0.504616  -0.185730
    C   C36  0.193669  0.387769  0.388576  -0.040452
    N   N2   0.789444  0.538900  0.552731  -0.087389
    H   H11  0.195258  0.546031  0.558170  0.187019
    H   H12  0.759660  0.637417  0.656073  0.134591
    H   H13  0.084340  0.612438  0.627118  0.123203
    H   H14  0.948842  0.682299  0.702129  0.125282
    H   H15  0.749823  0.410705  0.420882  0.247101
    O   O9   0.874194  0.324604  0.318785  -0.195810
    C   C37  0.768095  0.305577  0.277593  -0.029949
    C   C38  0.768065  0.233999  0.200693  0.155805
    C   C39  0.817232  0.142005  0.222440  -0.172342
    C   C40  0.817738  0.075097  0.151881  -0.072058
    C   C41  0.769134  0.100020  0.059398  -0.122061
    C   C42  0.720012  0.191872  0.037482  -0.056647
    C   C43  0.719396  0.258866  0.107975  -0.225923
    H   H16  0.722142  0.374027  0.248093  0.078763
    H   H17  0.728562  0.273410  0.330183  0.061071
    H   H18  0.855277  0.122079  0.294904  0.112141
    H   H19  0.856244  0.003066  0.169104  0.094449
    H   H20  0.769558  0.047574  0.004079  0.104503
    H   H21  0.681972  0.211431  0.964938  0.100839
    H   H22  0.680870  0.330690  0.089871  0.140130
