data_DB0-m3_o156_o1510_f0_fsc.sym.12_repeat
_audit_creation_date              2024-02-20
_audit_creation_method            'Materials Studio'
_symmetry_space_group_name_H-M    'P1'
_symmetry_Int_Tables_number       1
_symmetry_cell_setting            triclinic
loop_
_symmetry_equiv_pos_as_xyz
  x,y,z
_cell_length_a                    17.4701
_cell_length_b                    8.5517
_cell_length_c                    19.2860
_cell_angle_alpha                 90.0000
_cell_angle_beta                  91.0321
_cell_angle_gamma                 90.0000
loop_
_atom_site_label
_atom_site_type_symbol
_atom_site_fract_x
_atom_site_fract_y
_atom_site_fract_z
_atom_site_U_iso_or_equiv
_atom_site_adp_type
_atom_site_occupancy
H1     H     0.03082   0.99956   0.54856   0.00000  Uiso   1.00
H2     H     0.96917   0.99956   0.45144   0.00000  Uiso   1.00
C1     C     0.00896   0.13941   0.63659   0.00000  Uiso   1.00
C2     C     0.99151   0.86036   0.36329   0.00000  Uiso   1.00
C3     C     0.99104   0.13941   0.36341   0.00000  Uiso   1.00
C4     C     0.00849   0.86036   0.63671   0.00000  Uiso   1.00
C5     C     0.99798   0.14045   0.70715   0.00000  Uiso   1.00
C6     C     0.00355   0.85976   0.29278   0.00000  Uiso   1.00
C7     C     0.00201   0.14045   0.29284   0.00000  Uiso   1.00
C8     C     0.99645   0.85976   0.70722   0.00000  Uiso   1.00
H3     H     0.99162   0.25046   0.73404   0.00000  Uiso   1.00
H4     H     0.00756   0.74959   0.26568   0.00000  Uiso   1.00
H5     H     0.00838   0.25046   0.26596   0.00000  Uiso   1.00
H6     H     0.99243   0.74959   0.73432   0.00000  Uiso   1.00
C9     C     0.99522   0.00029   0.74309   0.00000  Uiso   1.00
C10    C     0.00477   0.00029   0.25691   0.00000  Uiso   1.00
C11    C     0.01903   0.99976   0.60300   0.00000  Uiso   1.00
C12    C     0.98097   0.99976   0.39700   0.00000  Uiso   1.00
C13    C     0.05306   0.90538   0.07357   0.00000  Uiso   1.00
C14    C     0.04814   0.09274   0.92646   0.00000  Uiso   1.00
C15    C     0.94694   0.90538   0.92643   0.00000  Uiso   1.00
C16    C     0.95186   0.09274   0.07354   0.00000  Uiso   1.00
H7     H     0.09221   0.83196   0.04550   0.00000  Uiso   1.00
H8     H     0.08892   0.16507   0.95448   0.00000  Uiso   1.00
H9     H     0.90779   0.83196   0.95450   0.00000  Uiso   1.00
H10    H     0.91108   0.16507   0.04551   0.00000  Uiso   1.00
C17    C     0.05492   0.90588   0.14516   0.00000  Uiso   1.00
C18    C     0.04561   0.09546   0.85504   0.00000  Uiso   1.00
C19    C     0.94508   0.90588   0.85484   0.00000  Uiso   1.00
C20    C     0.95439   0.09546   0.14496   0.00000  Uiso   1.00
C21    C     0.00565   0.00149   0.18107   0.00000  Uiso   1.00
C22    C     0.99435   0.00149   0.81893   0.00000  Uiso   1.00
C23    C     0.00110   0.99782   0.03780   0.00000  Uiso   1.00
C24    C     0.99890   0.99782   0.96219   0.00000  Uiso   1.00
O1     O     0.06959   0.66929   0.56725   0.00000  Uiso   1.00
O2     O     0.93036   0.33062   0.43274   0.00000  Uiso   1.00
O3     O     0.93041   0.66929   0.43275   0.00000  Uiso   1.00
O4     O     0.06964   0.33062   0.56726   0.00000  Uiso   1.00
O5     O     0.93815   0.66312   0.57670   0.00000  Uiso   1.00
O6     O     0.06184   0.33652   0.42336   0.00000  Uiso   1.00
O7     O     0.06185   0.66312   0.42329   0.00000  Uiso   1.00
O8     O     0.93816   0.33652   0.57664   0.00000  Uiso   1.00
C25    C     0.00576   0.71821   0.59476   0.00000  Uiso   1.00
C26    C     0.99415   0.28148   0.40535   0.00000  Uiso   1.00
C27    C     0.99424   0.71821   0.40524   0.00000  Uiso   1.00
C28    C     0.00585   0.28148   0.59465   0.00000  Uiso   1.00
Zn1    Zn    0.91488   0.49992   0.50387   0.00000  Uiso   1.00
Zn2    Zn    0.08512   0.49992   0.49613   0.00000  Uiso   1.00
C29    C     0.77653   0.49996   0.44530   0.00000  Uiso   1.00
C30    C     0.22347   0.49996   0.55470   0.00000  Uiso   1.00
N1     N     0.81462   0.49994   0.50664   0.00000  Uiso   1.00
N2     N     0.18538   0.49994   0.49336   0.00000  Uiso   1.00
C31    C     0.77644   0.49996   0.56670   0.00000  Uiso   1.00
C32    C     0.22356   0.49996   0.43329   0.00000  Uiso   1.00
C33    C     0.65899   0.50000   0.37988   0.00000  Uiso   1.00
C34    C     0.34101   0.50000   0.62012   0.00000  Uiso   1.00
C35    C     0.69766   0.49998   0.44285   0.00000  Uiso   1.00
C36    C     0.30234   0.49998   0.55715   0.00000  Uiso   1.00
C37    C     0.65775   0.49998   0.50354   0.00000  Uiso   1.00
C38    C     0.34225   0.49998   0.49646   0.00000  Uiso   1.00
C39    C     0.69727   0.49997   0.56592   0.00000  Uiso   1.00
C40    C     0.30273   0.49997   0.43408   0.00000  Uiso   1.00
C41    C     0.65770   0.49997   0.62716   0.00000  Uiso   1.00
C42    C     0.34230   0.49997   0.37284   0.00000  Uiso   1.00
C43    C     0.54057   0.50004   0.31491   0.00000  Uiso   1.00
C44    C     0.45943   0.50004   0.68509   0.00000  Uiso   1.00
C45    C     0.57988   0.50003   0.37776   0.00000  Uiso   1.00
C46    C     0.42012   0.50003   0.62224   0.00000  Uiso   1.00
C47    C     0.53985   0.50001   0.43884   0.00000  Uiso   1.00
C48    C     0.46015   0.50001   0.56116   0.00000  Uiso   1.00
C49    C     0.46168   0.49995   0.31316   0.00000  Uiso   1.00
C50    C     0.53832   0.49995   0.68684   0.00000  Uiso   1.00
C51    C     0.42152   0.49995   0.37425   0.00000  Uiso   1.00
C52    C     0.57848   0.49995   0.62575   0.00000  Uiso   1.00
C53    C     0.57887   0.49999   0.50178   0.00000  Uiso   1.00
C54    C     0.42113   0.49999   0.49822   0.00000  Uiso   1.00
C55    C     0.53915   0.49998   0.56293   0.00000  Uiso   1.00
C56    C     0.46085   0.49998   0.43707   0.00000  Uiso   1.00
H11    H     0.80814   0.49996   0.39765   0.00000  Uiso   1.00
H12    H     0.19186   0.49996   0.60235   0.00000  Uiso   1.00
H13    H     0.69115   0.49995   0.33254   0.00000  Uiso   1.00
H14    H     0.30885   0.49995   0.66746   0.00000  Uiso   1.00
H15    H     0.68919   0.50001   0.67589   0.00000  Uiso   1.00
H16    H     0.31081   0.50001   0.32411   0.00000  Uiso   1.00
H17    H     0.80795   0.49994   0.61546   0.00000  Uiso   1.00
H18    H     0.19205   0.49994   0.38454   0.00000  Uiso   1.00
O9     O     0.10739   0.81581   0.18012   0.00000  Uiso   1.00
H19    H     0.15301   0.88378   0.18530   0.00000  Uiso   1.00
O10    O     0.09665   0.18580   0.82015   0.00000  Uiso   1.00
H20    H     0.14162   0.11712   0.81394   0.00000  Uiso   1.00
O11    O     0.89261   0.81581   0.81988   0.00000  Uiso   1.00
H21    H     0.84699   0.88378   0.81470   0.00000  Uiso   1.00
O12    O     0.90335   0.18580   0.17985   0.00000  Uiso   1.00
H22    H     0.85838   0.11712   0.18606   0.00000  Uiso   1.00
O13    O     0.57937   0.50012   0.25403   0.00000  Uiso   1.00
H23    H     0.58495   0.61216   0.24221   0.00000  Uiso   1.00
O14    O     0.42063   0.50012   0.74597   0.00000  Uiso   1.00
H24    H     0.41505   0.61216   0.75779   0.00000  Uiso   1.00
O15    O     0.42374   0.49987   0.25058   0.00000  Uiso   1.00
H25    H     0.41833   0.38784   0.23853   0.00000  Uiso   1.00
O16    O     0.57626   0.49987   0.74942   0.00000  Uiso   1.00
H26    H     0.58167   0.38784   0.76147   0.00000  Uiso   1.00
