# Generated by REPEAT Assigner based on pymatgen
data_DB0-m29_o90_o570_f0_pts.sym.19
_audit_creation_date              2022-05-24
_audit_creation_method            REPEAT_Assigner
_cell_length_a                    16.198330
_cell_length_b                    16.758425
_cell_length_c                    13.348026
_cell_angle_alpha                 106.349253
_cell_angle_beta                  94.049314
_cell_angle_gamma                 103.318483
_cell_volume                      3347.611828
_symmetry_space_group_name_H-M    P1
_symmetry_Int_Tables_number       1
loop_
    _symmetry_equiv_pos_site_id
    _symmetry_equiv_pos_as_xyz
    1  x,y,z
loop_
    _atom_site_type_symbol
    _atom_site_label
    _atom_site_fract_x
    _atom_site_fract_y
    _atom_site_fract_z
    _atom_type_partial_charge
    C   C1   0.306474  0.006402  0.090926  0.014746
    C   C2   0.339679  0.995503  0.998005  -0.185346
    C   C3   0.291149  0.988146  0.905298  0.150858
    C   C4   0.188009  0.022429  0.186313  -0.233026
    C   C5   0.221891  0.009060  0.092714  0.053365
    C   C6   0.170656  0.998028  0.999651  0.062734
    C   C7   0.204722  0.987020  0.905319  -0.019659
    C   C8   0.151159  0.973049  0.813049  -0.196042
    C   C9   0.071379  0.038030  0.281542  -0.237700
    C   C10  0.103511  0.024121  0.187370  0.207869
    C   C11  0.051704  0.011984  0.095310  0.002806
    C   C12  0.987119  0.040278  0.285645  -0.102057
    C   C13  0.933653  0.027130  0.192271  0.160546
    C   C14  0.085294  0.998921  0.001376  -0.028748
    C   C15  0.033415  0.987019  0.909255  0.010056
    C   C16  0.066386  0.973584  0.815253  0.209148
    C   C17  0.014579  0.960643  0.722585  -0.209096
    C   C18  0.966579  0.013107  0.097483  -0.008411
    C   C19  0.914665  0.000835  0.004644  -0.021645
    C   C20  0.948382  0.987812  0.910762  -0.018516
    C   C21  0.897019  0.975366  0.817863  0.229164
    C   C22  0.930090  0.961765  0.723949  -0.197559
    C   C23  0.847916  0.027142  0.191913  -0.162650
    C   C24  0.794803  0.012126  0.098939  -0.072867
    C   C25  0.829215  0.001204  0.005164  0.099127
    C   C26  0.778217  0.989794  0.911571  0.041844
    C   C27  0.812447  0.976608  0.818183  -0.254790
    C   C28  0.708097  0.010204  0.098173  0.165721
    C   C29  0.659828  0.002675  0.005259  -0.189859
    C   C30  0.693461  0.992063  0.912666  0.028097
    H   H1   0.407241  0.998800  0.000998  0.164718
    H   H2   0.226610  0.031216  0.259847  0.150821
    H   H3   0.173547  0.959687  0.737509  0.139995
    H   H4   0.113267  0.048107  0.353180  0.160991
    H   H5   0.039911  0.950024  0.648552  0.153023
    H   H6   0.890038  0.951905  0.650945  0.147123
    H   H7   0.822350  0.041212  0.264822  0.174220
    H   H8   0.774174  0.967613  0.744336  0.162795
    H   H9   0.592168  0.998966  0.001926  0.166153
    O   O1   0.593677  0.042073  0.191197  -0.583846
    C   C31  0.661245  0.011145  0.189018  0.500666
    O   O2   0.499075  0.833645  0.198109  -0.527575
    O   O3   0.674126  0.966213  0.252021  -0.501216
    O   O4   0.520896  0.928489  0.362482  -0.532049
    C   C32  0.510951  0.849612  0.300865  0.591971
    Fe  Fe1  0.513973  0.015370  0.290055  1.471806
    O   O5   0.396602  0.964580  0.205395  -0.609281
    O   O6   0.413048  0.106598  0.227935  -0.543904
    C   C33  0.367505  0.026563  0.185983  0.691352
    O   O7   0.540228  0.129820  0.402393  -0.625851
    O   O8   0.418561  0.062167  0.450722  -0.549555
    C   C34  0.484630  0.129320  0.469275  0.707865
    O   O9   0.459323  0.868295  0.601460  -0.622659
    O   O10  0.580711  0.935965  0.552625  -0.543073
    C   C35  0.514682  0.868807  0.534286  0.700550
    O   O11  0.602790  0.033729  0.798668  -0.605820
    O   O12  0.588080  0.891680  0.774308  -0.541750
    C   C36  0.632731  0.971928  0.817277  0.677671
    O   O13  0.323714  0.030167  0.749753  -0.492509
    O   O14  0.478828  0.069663  0.640935  -0.540062
    C   C37  0.487594  0.148318  0.702537  0.590025
    O   O15  0.405520  0.956284  0.812383  -0.588974
    C   C38  0.337434  0.986412  0.813888  0.513155
    O   O16  0.498380  0.164064  0.805284  -0.532716
    Fe  Fe2  0.485474  0.982903  0.713646  1.475326
    C   C39  0.486830  0.210033  0.549649  -0.088458
    C   C40  0.491709  0.280385  0.514049  0.069541
    H   H10  0.492305  0.271265  0.430767  0.092893
    C   C41  0.493470  0.359953  0.581745  -0.450322
    C   C42  0.491660  0.369237  0.687634  0.132448
    H   H11  0.493139  0.430795  0.742964  0.035301
    C   C43  0.488624  0.299693  0.724780  -0.187899
    H   H12  0.488272  0.309557  0.808269  0.145237
    C   C44  0.486202  0.219189  0.657042  0.069328
    N   N1   0.497978  0.510931  0.605058  -0.271278
    N   N2   0.500700  0.576135  0.566979  -0.265375
    C   C45  0.502211  0.565128  0.463277  0.803082
    N   N3   0.500968  0.487111  0.398444  -0.268159
    N   N4   0.498252  0.421909  0.436524  -0.268848
    C   C46  0.496739  0.432915  0.540225  0.809055
    C   C47  0.506830  0.628689  0.315773  0.129810
    H   H13  0.505061  0.567063  0.260394  0.036160
    C   C48  0.509747  0.698204  0.278600  -0.183913
    H   H14  0.509754  0.688259  0.195049  0.143406
    C   C49  0.512500  0.778785  0.346388  0.062116
    C   C50  0.512342  0.788060  0.453873  -0.083950
    C   C51  0.507563  0.717732  0.489502  0.065282
    H   H15  0.507291  0.726925  0.572843  0.093896
    C   C52  0.505452  0.638081  0.421746  -0.445827
    C   C53  0.957820  0.055767  0.392030  0.155023
    C   C54  0.957045  0.149432  0.437787  -0.143199
    H   H16  0.022656  0.191281  0.446060  0.045908
    H   H17  0.912779  0.167325  0.386056  0.026745
    H   H18  0.936120  0.159430  0.516701  0.040296
    H   H19  0.894504  0.011698  0.389052  -0.002089
    H   H20  0.003355  0.042077  0.446845  0.006294
