# Generated by REPEAT Assigner based on pymatgen
data_DB0-m3_o149_o23_f0_fsc.sym.14_sqe
_audit_creation_date              2022-05-24
_audit_creation_method            REPEAT_Assigner
_cell_length_a                    10.735876
_cell_length_b                    14.160869
_cell_length_c                    8.558294
_cell_angle_alpha                 90.000000
_cell_angle_beta                  89.998300
_cell_angle_gamma                 90.000000
_cell_volume                      1301.111624
_symmetry_space_group_name_H-M    P1
_symmetry_Int_Tables_number       1
loop_
    _symmetry_equiv_pos_site_id
    _symmetry_equiv_pos_as_xyz
    1  x,y,z
loop_
    _atom_site_type_symbol
    _atom_site_label
    _atom_site_fract_x
    _atom_site_fract_y
    _atom_site_fract_z
    _atom_type_partial_charge
    C   C1   0.679554  0.963034  0.994548  0.013686
    C   C2   0.739127  0.976214  0.854716  -0.170754
    C   C3   0.864719  0.993605  0.851392  -0.085009
    C   C4   0.742363  0.975584  0.132565  -0.254030
    C   C5   0.870470  0.987945  0.130878  0.637492
    C   C6   0.933466  0.993258  0.989316  -0.315145
    C   C7   0.062760  0.002517  0.989450  0.430094
    C   C8   0.131787  0.001820  0.851739  -0.384377
    C   C9   0.257228  0.019668  0.855240  -0.037848
    N   N1   0.933443  0.993475  0.266567  -0.627825
    C   C10  0.058220  0.003187  0.269230  0.227747
    C   C11  0.125060  0.008402  0.131328  -0.153682
    C   C12  0.253497  0.020961  0.133255  -0.141379
    C   C13  0.316340  0.033432  0.995170  -0.099859
    H   H1   0.580481  0.951188  0.996225  0.094288
    H   H2   0.415366  0.045496  0.997029  0.135117
    H   H3   0.903982  0.008525  0.738603  0.100170
    H   H4   0.092790  0.986457  0.738965  0.178998
    H   H5   0.105090  0.008022  0.380646  0.060519
    O   O1   0.355110  0.927751  0.658983  -0.709782
    O   O2   0.386867  0.089042  0.662009  -0.760657
    C   C14  0.332236  0.012453  0.714009  0.899054
    O   O3   0.641448  0.068398  0.658837  -0.710649
    O   O4   0.609647  0.906801  0.661503  -0.710448
    C   C15  0.664435  0.983482  0.713335  0.852167
    O   O5   0.641680  0.068119  0.327779  -0.625604
    O   O6   0.610463  0.907332  0.325428  -0.607318
    C   C16  0.667215  0.983307  0.274729  0.695896
    O   O7   0.354856  0.928023  0.327510  -0.710615
    O   O8   0.386114  0.089240  0.325515  -0.756058
    C   C17  0.329730  0.013043  0.274498  0.897394
    Zn  Zn1  0.515952  0.102105  0.493302  1.091296
    Zn  Zn2  0.479888  0.894090  0.493052  1.068310
    C   C18  0.392321  0.436200  0.403474  -0.115960
    C   C19  0.390289  0.542082  0.379108  -0.072770
    C   C20  0.621463  0.456350  0.415691  0.204813
    C   C21  0.613381  0.561848  0.444620  0.535268
    H   H6   0.417878  0.558885  0.257409  0.018689
    H   H7   0.389389  0.399734  0.288847  0.053427
    H   H8   0.708333  0.429463  0.469817  -0.067110
    H   H9   0.676227  0.581687  0.542081  -0.142660
    N   N2   0.460462  0.771041  0.492902  -0.028491
    N   N3   0.530758  0.225525  0.493516  0.000674
    C   C22  0.509664  0.409842  0.492241  0.453172
    C   C23  0.481225  0.586712  0.492453  0.431654
    C   C24  0.457136  0.547877  0.654563  -0.090571
    C   C25  0.498137  0.445561  0.658584  -0.162807
    C   C26  0.466951  0.689481  0.492692  -0.188357
    C   C27  0.523629  0.307055  0.493056  -0.158137
    H   H10  0.428405  0.403062  0.723380  0.078365
    H   H11  0.356230  0.552578  0.681154  0.030688
    H   H12  0.589698  0.439955  0.717792  0.013620
    H   H13  0.510261  0.588828  0.742666  0.048562
    H   H14  0.309762  0.414876  0.472894  0.024502
    H   H15  0.294952  0.569250  0.400819  0.046332
    O   O9   0.619281  0.439348  0.254450  -0.459817
    C   C28  0.718754  0.378760  0.220945  0.493345
    H   H16  0.712206  0.313283  0.291621  -0.068920
    H   H17  0.808853  0.415040  0.241753  -0.053012
    C   C29  0.712952  0.351294  0.050151  -0.378115
    H   H18  0.720404  0.415600  0.976812  0.104309
    H   H19  0.791068  0.302837  0.022575  0.081981
    H   H20  0.623205  0.315367  0.026004  0.102753
    O   O10  0.644397  0.610796  0.307995  -0.514406
    C   C30  0.770274  0.634867  0.320970  0.469085
    H   H21  0.825850  0.572793  0.358227  -0.082446
    H   H22  0.781741  0.693920  0.405050  -0.053334
    C   C31  0.817530  0.666831  0.162899  -0.253428
    H   H23  0.763186  0.729011  0.123416  0.072626
    H   H24  0.917323  0.686250  0.172247  0.050050
    H   H25  0.806687  0.608643  0.077245  0.055238
