# Generated by REPEAT Assigner based on pymatgen
data_DB0-m2_o20_o59_dme_sqe
_audit_creation_date              2022-05-24
_audit_creation_method            REPEAT_Assigner
_cell_length_a                    30.618913
_cell_length_b                    32.736049
_cell_length_c                    27.233869
_cell_angle_alpha                 106.813170
_cell_angle_beta                  121.284049
_cell_angle_gamma                 64.951998
_cell_volume                      21049.610724
_symmetry_space_group_name_H-M    P1
_symmetry_Int_Tables_number       1
loop_
    _symmetry_equiv_pos_site_id
    _symmetry_equiv_pos_as_xyz
    1  x,y,z
loop_
    _atom_site_type_symbol
    _atom_site_label
    _atom_site_fract_x
    _atom_site_fract_y
    _atom_site_fract_z
    _atom_type_partial_charge
    O   O1    0.561142  0.942034  0.491318  -0.616382
    O   O2    0.548820  0.950657  0.569678  -0.624360
    C   C1    0.563000  0.923660  0.530060  0.861790
    O   O3    0.607914  0.010464  0.540711  -0.606831
    O   O4    0.598528  0.018256  0.621033  -0.599799
    C   C2    0.627891  0.014467  0.596902  0.784981
    Cu  Cu1   0.535801  0.009024  0.485564  1.043642
    Cu  Cu2   0.523120  0.018364  0.576327  1.031818
    O   O5    0.505256  0.077366  0.490288  -0.625153
    O   O6    0.495438  0.084910  0.570025  -0.618236
    O   O7    0.463275  0.006585  0.440709  -0.579308
    O   O8    0.450277  0.016815  0.519219  -0.574209
    C   C3    0.490210  0.103876  0.529741  0.842434
    C   C4    0.432588  0.010796  0.463015  0.607919
    O   O9    0.954096  0.936469  0.494275  -0.610430
    O   O10   0.028074  0.950086  0.572710  -0.612339
    C   C5    0.005297  0.920862  0.533362  0.829445
    O   O11   0.937741  0.004928  0.442395  -0.591650
    O   O12   0.011881  0.019208  0.520314  -0.590361
    C   C6    0.983179  0.012635  0.464195  0.617253
    Cu  Cu3   0.907402  0.002370  0.487533  1.050515
    Cu  Cu4   0.992508  0.017494  0.577753  1.041521
    O   O13   0.873906  0.070577  0.490952  -0.612717
    O   O14   0.948402  0.083134  0.569655  -0.611837
    O   O15   0.886977  0.000834  0.543014  -0.606502
    O   O16   0.960384  0.014554  0.622908  -0.603731
    C   C7    0.898200  0.099436  0.529422  0.839220
    C   C8    0.914295  0.006943  0.599114  0.754436
    C   C9    0.091889  0.829802  0.125015  -0.086859
    C   C10   0.087508  0.794077  0.082913  -0.152950
    C   C11   0.115502  0.781719  0.051258  0.089840
    C   C12   0.148256  0.805739  0.062866  -0.143684
    C   C13   0.153351  0.841051  0.105712  -0.078136
    C   C14   0.125060  0.853383  0.136951  -0.054470
    H   H1    0.062856  0.775341  0.076338  0.116336
    H   H2    0.169603  0.797837  0.038031  0.116915
    H   H3    0.069951  0.838110  0.149334  0.130574
    H   H4    0.179187  0.859180  0.113799  0.106973
    C   C15   0.318088  0.979250  0.334078  -0.087429
    C   C16   0.366995  0.986626  0.368900  -0.135632
    C   C17   0.379244  0.006483  0.424675  0.078867
    C   C18   0.341707  0.020675  0.444704  -0.188392
    C   C19   0.292477  0.014400  0.409629  -0.037843
    C   C20   0.280822  0.992818  0.354581  -0.017923
    H   H5    0.396261  0.975044  0.352700  0.132923
    H   H6    0.350551  0.036508  0.488034  0.140753
    H   H7    0.309795  0.962310  0.291296  0.120272
    H   H8    0.264467  0.025246  0.427321  0.123970
    C   C21   0.004922  0.983772  0.334446  -0.069648
    C   C22   0.981954  0.990747  0.369482  -0.129270
    C   C23   0.003523  0.010361  0.425321  0.063293
    C   C24   0.046116  0.025284  0.444963  -0.165898
    C   C25   0.068295  0.019287  0.409614  -0.030294
    C   C26   0.048780  0.997353  0.354802  -0.043301
    H   H9    0.948642  0.978649  0.353440  0.134489
    H   H10   0.063159  0.040933  0.488372  0.138232
    H   H11   0.989054  0.966634  0.291798  0.111958
    H   H12   0.102711  0.030223  0.426964  0.114800
    N   N1    0.172612  0.905763  0.205340  -0.763317
    C   C27   0.179434  0.937911  0.250024  0.984410
    N   N2    0.223087  0.951309  0.274773  -0.745045
    C   C28   0.131014  0.890249  0.183392  0.759068
    N   N3    0.096500  0.906894  0.206477  -0.808892
    C   C29   0.102962  0.939231  0.250734  1.021654
    N   N4    0.144373  0.954659  0.272333  -0.686418
    C   C30   0.151839  0.985795  0.317723  1.064250
    N   N5    0.194799  0.999168  0.341979  -0.791188
    C   C31   0.230740  0.982004  0.321196  0.692854
    N   N6    0.070015  0.954225  0.275628  -0.739927
    C   C32   0.078259  0.985192  0.321628  0.688187
    N   N7    0.119106  0.000805  0.342244  -0.787009
    O   O17   0.277613  0.443589  0.489035  -0.610748
    O   O18   0.352430  0.455988  0.567340  -0.611996
    C   C33   0.327991  0.427211  0.528862  0.840204
    O   O19   0.264751  0.512482  0.435848  -0.604147
    O   O20   0.338561  0.525994  0.515278  -0.607192
    C   C34   0.310804  0.520067  0.459217  0.758293
    Cu  Cu5   0.233420  0.509204  0.481633  1.041546
    Cu  Cu6   0.318916  0.524212  0.571317  1.049595
    O   O21   0.197831  0.576582  0.487171  -0.611953
    O   O22   0.272151  0.590121  0.565048  -0.609572
    O   O23   0.215174  0.506744  0.539673  -0.590853
    O   O24   0.289512  0.521095  0.617130  -0.591294
    C   C35   0.220779  0.605765  0.526366  0.826783
    C   C36   0.244365  0.513016  0.595753  0.614334
    O   O25   0.728739  0.441448  0.484133  -0.616246
    O   O26   0.719686  0.449246  0.564433  -0.623111
    C   C37   0.734537  0.422616  0.524903  0.836728
    O   O27   0.773044  0.510301  0.533406  -0.572398
    O   O28   0.761009  0.520453  0.612545  -0.578348
    C   C38   0.791099  0.516607  0.589662  0.611511
    Cu  Cu7   0.700339  0.507986  0.477121  1.027756
    Cu  Cu8   0.688702  0.517547  0.568627  1.041370
    O   O29   0.674160  0.575706  0.483266  -0.622728
    O   O30   0.662906  0.584493  0.562393  -0.616103
    O   O31   0.625041  0.507797  0.433291  -0.597666
    O   O32   0.616549  0.515828  0.514254  -0.604624
    C   C39   0.660404  0.602782  0.523133  0.858569
    C   C40   0.596137  0.511628  0.458004  0.780444
    C   C41   0.929728  0.516205  0.641691  -0.058262
    C   C42   0.880863  0.509204  0.606819  -0.175445
    C   C43   0.843990  0.521936  0.627442  0.062373
    C   C44   0.856357  0.541413  0.683375  -0.116676
    C   C45   0.904846  0.549472  0.717969  -0.111582
    C   C46   0.941604  0.537010  0.697084  0.008778
    H   H13   0.871851  0.493833  0.563286  0.138587
    H   H14   0.827613  0.551937  0.700051  0.130093
    H   H15   0.957405  0.506404  0.623807  0.130393
    H   H16   0.913424  0.565712  0.761097  0.124362
    C   C47   0.057064  0.699336  0.931183  -0.056325
    C   C48   0.061831  0.735091  0.973283  -0.175114
    C   C49   0.110454  0.743570  0.006042  0.108258
    C   C50   0.154182  0.715580  0.995679  -0.154180
    C   C51   0.149141  0.680268  0.952893  -0.065888
    C   C52   0.100569  0.671878  0.920422  -0.076942
    H   H17   0.026383  0.756933  0.978953  0.119428
    H   H18   0.193158  0.720371  0.021414  0.117376
    H   H19   0.018317  0.694084  0.905845  0.120461
    H   H20   0.183990  0.659067  0.945787  0.106878
    C   C53   0.161781  0.503245  0.651336  -0.006587
    C   C54   0.183485  0.498048  0.615830  -0.174152
    C   C55   0.224967  0.514256  0.635058  0.073324
    C   C56   0.246271  0.534024  0.690853  -0.141609
    C   C57   0.223730  0.540223  0.726075  -0.049027
    C   C58   0.180593  0.525702  0.705917  -0.077089
    H   H21   0.166811  0.482107  0.572535  0.139765
    H   H22   0.278788  0.547044  0.706571  0.136146
    H   H23   0.128105  0.491366  0.634121  0.104826
    H   H24   0.239018  0.557850  0.768480  0.110019
    N   N8    0.999421  0.577966  0.777584  -0.752531
    C   C59   0.044271  0.589901  0.804150  1.028446
    N   N9    0.050955  0.622012  0.848791  -0.801490
    C   C60   0.992012  0.547239  0.731240  0.688488
    N   N10   0.029231  0.528740  0.712109  -0.799850
    C   C61   0.073507  0.540595  0.738332  1.064998
    N   N11   0.081051  0.571449  0.784030  -0.698699
    C   C62   0.124374  0.584884  0.808159  0.992445
    N   N12   0.131225  0.616702  0.853103  -0.769136
    C   C63   0.094628  0.635284  0.873634  0.760071
    N   N13   0.107754  0.524306  0.715569  -0.775523
    C   C64   0.150220  0.538263  0.738249  0.700446
    N   N14   0.158793  0.568656  0.784900  -0.739922
    C   C65   0.682644  0.014610  0.630256  -0.193059
    C   C66   0.728289  0.014093  0.649572  0.087900
    C   C67   0.779491  0.012914  0.661439  -0.007885
    C   C68   0.819655  0.011588  0.661946  -0.009807
    C   C69   0.860816  0.009850  0.651135  0.079920
    C   C70   0.889502  0.008403  0.632375  -0.162630
    C   C71   0.355736  0.377396  0.530242  -0.247532
    C   C72   0.377469  0.335828  0.530347  0.113794
    C   C73   0.402311  0.286578  0.529871  -0.022122
    C   C74   0.422907  0.244909  0.529317  -0.011656
    C   C75   0.446906  0.195612  0.528770  0.096692
    C   C76   0.466857  0.153944  0.528726  -0.230194
    C   C77   0.644377  0.652622  0.524587  -0.252222
    C   C78   0.631896  0.693902  0.525406  0.115794
    C   C79   0.617612  0.742625  0.526152  -0.019568
    C   C80   0.605642  0.783803  0.526742  -0.024197
    C   C81   0.591376  0.832528  0.527524  0.120883
    C   C82   0.578932  0.873812  0.528418  -0.257327
    C   C83   0.188522  0.654838  0.527844  -0.228559
    C   C84   0.160722  0.695353  0.528755  0.098915
    C   C85   0.127272  0.743139  0.529646  -0.015755
    C   C86   0.098880  0.783491  0.530351  -0.013283
    C   C87   0.065421  0.831277  0.531211  0.097616
    C   C88   0.037601  0.871791  0.532055  -0.229277
    C   C89   0.758252  0.372573  0.526383  -0.225829
    C   C90   0.778462  0.330932  0.526812  0.094024
    C   C91   0.802739  0.281662  0.526875  -0.011395
    C   C92   0.823544  0.240018  0.526850  -0.020292
    C   C93   0.848595  0.190791  0.526986  0.110205
    C   C94   0.870443  0.149244  0.527568  -0.243754
    C   C95   0.335194  0.518580  0.425518  -0.167134
    C   C96   0.363632  0.517013  0.406359  0.083549
    C   C97   0.404586  0.515064  0.395050  -0.012717
    C   C98   0.444627  0.513539  0.395103  -0.004746
    C   C99   0.495742  0.512150  0.406410  0.083797
    C   C100  0.541359  0.511512  0.425232  -0.188461
