# Generated by REPEAT Assigner based on pymatgen
data_DB0-m3_o12_o30_tfc
_audit_creation_date              2022-05-24
_audit_creation_method            REPEAT_Assigner
_cell_length_a                    11.249097
_cell_length_b                    13.539652
_cell_length_c                    7.379894
_cell_angle_alpha                 105.907892
_cell_angle_beta                  89.877583
_cell_angle_gamma                 84.862096
_cell_volume                      1076.215982
_symmetry_space_group_name_H-M    P1
_symmetry_Int_Tables_number       1
loop_
    _symmetry_equiv_pos_site_id
    _symmetry_equiv_pos_as_xyz
    1  x,y,z
loop_
    _atom_site_type_symbol
    _atom_site_label
    _atom_site_fract_x
    _atom_site_fract_y
    _atom_site_fract_z
    _atom_type_partial_charge
    O   O1   0.485475  0.152879  0.425313  -0.676529
    O   O2   0.708107  0.990842  0.591734  -0.724360
    O   O3   0.668400  0.991310  0.289430  -0.728554
    O   O4   0.522266  0.151813  0.728298  -0.680432
    C   C1   0.501020  0.202468  0.601810  0.636771
    C   C2   0.745176  0.989124  0.422025  0.827530
    O   O5   0.359180  0.006088  0.708815  -0.725170
    O   O6   0.502214  0.846010  0.271025  -0.666880
    O   O7   0.538454  0.844031  0.573658  -0.685421
    O   O8   0.319496  0.006221  0.406214  -0.723887
    Zn  Zn1  0.488066  0.999517  0.301379  1.293887
    Zn  Zn2  0.539542  0.997709  0.696600  1.300229
    C   C3   0.282427  0.008105  0.576059  0.845559
    C   C4   0.521775  0.794933  0.397147  0.642336
    C   C5   0.474549  0.474253  0.901670  0.121117
    C   C6   0.473841  0.474083  0.574513  0.134565
    C   C7   0.491122  0.314862  0.658371  0.142013
    C   C8   0.463447  0.526723  0.764424  -0.232823
    H   H1   0.444597  0.609015  0.805331  0.132048
    C   C9   0.485944  0.367380  0.522852  -0.269979
    H   H2   0.496204  0.322895  0.377501  0.156759
    C   C10  0.489227  0.367610  0.846457  -0.260849
    H   H3   0.501434  0.323535  0.947468  0.154627
    C   C11  0.510730  0.684302  0.343502  0.116769
    C   C12  0.477708  0.530933  0.103071  0.127960
    C   C13  0.478331  0.530738  0.430057  0.111467
    C   C14  0.500602  0.633372  0.156301  -0.253320
    H   H4   0.513276  0.675322  0.054212  0.147435
    C   C15  0.462404  0.481379  0.241676  -0.218920
    H   H5   0.435045  0.404633  0.202823  0.122260
    C   C16  0.503412  0.632842  0.479591  -0.242550
    H   H6   0.517565  0.674274  0.623653  0.149677
    H   H7   0.107897  0.994793  0.336870  0.143641
    H   H8   0.919724  0.002338  0.661172  0.148233
    C   C17  0.872541  0.988594  0.381670  -0.294099
    C   C18  0.950343  0.996909  0.519097  -0.040367
    H   H9   0.124376  0.012702  0.757833  0.155403
    C   C19  0.155062  0.008631  0.616406  -0.307287
    C   C20  0.077270  0.000257  0.478956  -0.034074
    H   H10  0.903216  0.984583  0.240265  0.155215
