# Generated by REPEAT Assigner based on pymatgen
data_DB0-m3_o17_o1510_f0_fsc.sym.8
_audit_creation_date              2022-05-24
_audit_creation_method            REPEAT_Assigner
_cell_length_a                    13.235242
_cell_length_b                    8.567585
_cell_length_c                    19.188328
_cell_angle_alpha                 90.000000
_cell_angle_beta                  91.047194
_cell_angle_gamma                 90.000000
_cell_volume                      2175.479033
_symmetry_space_group_name_H-M    P1
_symmetry_Int_Tables_number       1
loop_
    _symmetry_equiv_pos_site_id
    _symmetry_equiv_pos_as_xyz
    1  x,y,z
loop_
    _atom_site_type_symbol
    _atom_site_label
    _atom_site_fract_x
    _atom_site_fract_y
    _atom_site_fract_z
    _atom_type_partial_charge
    H   H1   0.059722  0.994301  0.544732  0.135092
    H   H2   0.942221  0.005360  0.455473  0.134236
    C   C1   0.038980  0.136625  0.634059  -0.307565
    C   C2   0.961941  0.863184  0.365965  -0.293802
    C   C3   0.960905  0.142263  0.364208  -0.272311
    C   C4   0.039482  0.857561  0.635880  -0.249823
    C   C5   0.024190  0.139089  0.705035  0.605652
    C   C6   0.976430  0.860877  0.294925  0.596120
    C   C7   0.974149  0.140933  0.293170  0.584483
    C   C8   0.024236  0.858956  0.706737  0.571787
    C   C9   0.020631  0.000136  0.741983  -0.610768
    C   C10  0.978252  0.999982  0.257977  -0.603949
    C   C11  0.050933  0.996067  0.600497  -0.110542
    C   C12  0.950257  0.003673  0.399645  -0.108485
    C   C13  0.079890  0.961123  0.078632  -0.163810
    C   C14  0.919467  0.955415  0.921264  -0.155328
    C   C15  0.089281  0.048300  0.929865  -0.172871
    C   C16  0.906760  0.038251  0.070209  -0.177698
    H   H3   0.149895  0.927863  0.054693  0.125515
    H   H4   0.850989  0.914930  0.945121  0.123036
    H   H5   0.153688  0.087874  0.960394  0.125805
    H   H6   0.841004  0.072604  0.039776  0.127767
    C   C17  0.074230  0.959891  0.150364  -0.268926
    C   C18  0.925136  0.955751  0.849542  -0.281610
    C   C19  0.094483  0.049648  0.858185  -0.240877
    C   C20  0.901626  0.038534  0.141871  -0.234054
    H   H7   0.140197  0.930014  0.181610  0.148993
    H   H8   0.860442  0.919903  0.818311  0.150715
    H   H9   0.163464  0.085970  0.833585  0.140884
    H   H10  0.831666  0.069493  0.166595  0.139189
    C   C21  0.985090  0.998863  0.182074  0.373991
    C   C22  0.012718  0.002735  0.817868  0.394015
    C   C23  0.996034  0.999891  0.038139  0.087395
    C   C24  0.001709  0.001064  0.961854  0.075143
    O   O1   0.105852  0.665161  0.559729  -0.640300
    O   O2   0.894911  0.334722  0.440262  -0.644949
    O   O3   0.895160  0.672052  0.443233  -0.653284
    O   O4   0.105635  0.327800  0.556794  -0.658507
    O   O5   0.936432  0.659842  0.585660  -0.598622
    O   O6   0.064348  0.339832  0.414392  -0.600560
    O   O7   0.064707  0.665290  0.416954  -0.617262
    O   O8   0.936072  0.334404  0.583007  -0.612248
    C   C25  0.028234  0.714459  0.595124  0.726350
    C   C26  0.972485  0.285366  0.404893  0.740431
    C   C27  0.973202  0.721912  0.408208  0.778417
    C   C28  0.027592  0.277806  0.591757  0.783548
    Zn  Zn1  0.889782  0.500079  0.514901  1.010390
    Zn  Zn2  0.110999  0.499717  0.485107  1.013633
    C   C29  0.295812  0.364984  0.464564  0.578972
    C   C30  0.704997  0.634828  0.535425  0.580899
    C   C31  0.706871  0.362668  0.524499  0.562711
    C   C32  0.293901  0.637140  0.475482  0.559828
    N   N1   0.241848  0.500367  0.468801  -0.470934
    N   N2   0.758935  0.499422  0.531203  -0.474368
    C   C33  0.395858  0.636686  0.492655  -0.173959
    C   C34  0.604931  0.363161  0.507319  -0.173288
    C   C35  0.601338  0.635520  0.523410  -0.245597
    C   C36  0.399464  0.364318  0.476572  -0.244279
    C   C37  0.448987  0.499959  0.493056  0.158279
    C   C38  0.551810  0.499888  0.506920  0.158381
    C   C39  0.445062  0.773813  0.509836  -0.128793
    C   C40  0.555731  0.226040  0.490153  -0.130112
    C   C41  0.546766  0.772862  0.526485  0.031115
    C   C42  0.454030  0.226968  0.473522  0.032301
    H   H11  0.404150  0.882250  0.513308  0.116588
    H   H12  0.596640  0.117614  0.486692  0.117394
    H   H13  0.582128  0.881457  0.541312  0.043976
    H   H14  0.418680  0.118351  0.458725  0.044021
    N   N3   0.009659  0.284459  0.739421  -0.827777
    H   H15  0.941049  0.278762  0.765314  0.307786
    H   H16  0.067783  0.298910  0.776312  0.308396
    N   N4   0.986396  0.715194  0.259952  -0.831338
    H   H17  0.930255  0.709259  0.221098  0.313446
    H   H18  0.056799  0.712844  0.236395  0.313030
    N   N5   0.985824  0.284513  0.256796  -0.824316
    H   H19  0.053872  0.279523  0.230206  0.311750
    H   H20  0.926711  0.294413  0.220339  0.310303
    N   N6   0.015815  0.714817  0.743191  -0.826898
    H   H21  0.070631  0.713408  0.783013  0.314318
    H   H22  0.944503  0.709517  0.765304  0.316991
    N   N7   0.250066  0.222517  0.441852  -0.837124
    H   H23  0.224785  0.234305  0.390305  0.329921
    H   H24  0.193808  0.185407  0.475033  0.367545
    N   N8   0.750777  0.777261  0.558164  -0.826010
    H   H25  0.776137  0.765329  0.609682  0.321437
    H   H26  0.807013  0.814471  0.524986  0.361765
    N   N9   0.750199  0.217001  0.545675  -0.814451
    H   H27  0.771723  0.223435  0.598182  0.326940
    H   H28  0.808933  0.180604  0.514587  0.357619
    N   N10  0.250550  0.782775  0.454280  -0.802881
    H   H29  0.229106  0.776356  0.401758  0.319155
    H   H30  0.191734  0.819085  0.485308  0.352821
