# Generated by REPEAT Assigner based on pymatgen
data_DB0-m3_o13_o19_f0_pcu.sym.76_sqe
_audit_creation_date              2022-05-24
_audit_creation_method            REPEAT_Assigner
_cell_length_a                    11.890025
_cell_length_b                    11.919447
_cell_length_c                    13.088727
_cell_angle_alpha                 89.989448
_cell_angle_beta                  91.191543
_cell_angle_gamma                 85.867603
_cell_volume                      1849.742087
_symmetry_space_group_name_H-M    P1
_symmetry_Int_Tables_number       1
loop_
    _symmetry_equiv_pos_site_id
    _symmetry_equiv_pos_as_xyz
    1  x,y,z
loop_
    _atom_site_type_symbol
    _atom_site_label
    _atom_site_fract_x
    _atom_site_fract_y
    _atom_site_fract_z
    _atom_type_partial_charge
    O   O1   0.580947  0.493304  0.342179  -0.652281
    O   O2   0.418801  0.503859  0.658290  -0.654170
    O   O3   0.387116  0.508593  0.354611  -0.646542
    O   O4   0.612632  0.488570  0.645858  -0.648345
    C   C1   0.479164  0.501694  0.300623  0.715557
    C   C2   0.520584  0.495470  0.699846  0.720068
    O   O5   0.597166  0.324141  0.492959  -0.699022
    O   O6   0.402582  0.673022  0.507509  -0.700375
    O   O7   0.403115  0.338666  0.505367  -0.708825
    O   O8   0.596633  0.658497  0.495101  -0.710976
    C   C3   0.499980  0.279302  0.498913  0.960893
    C   C4   0.499768  0.717861  0.501556  0.965315
    Zn  Zn1  0.627718  0.489160  0.491955  1.036083
    Zn  Zn2  0.372030  0.508003  0.508514  1.036572
    C   C5   0.499758  0.158921  0.499243  -0.313478
    C   C6   0.499989  0.838242  0.501227  -0.317018
    C   C7   0.499801  0.057821  0.499828  0.072407
    C   C8   0.499947  0.939342  0.500642  0.075702
    C   C9   0.531880  0.491978  0.811727  -0.058853
    C   C10  0.467868  0.505189  0.188741  -0.054465
    C   C11  0.354762  0.541960  0.037287  -0.040785
    C   C12  0.644987  0.455211  0.963183  -0.042630
    C   C13  0.365772  0.538357  0.142344  -0.114334
    C   C14  0.633977  0.458812  0.858125  -0.113227
    C   C15  0.559776  0.475759  0.129349  -0.189152
    C   C16  0.439972  0.521409  0.871120  -0.184444
    C   C17  0.551545  0.482373  0.023453  0.112683
    C   C18  0.448204  0.514798  0.977016  0.107323
    H   H1   0.362336  0.551019  0.833016  0.100333
    H   H2   0.637412  0.446148  0.167452  0.101520
    H   H3   0.706978  0.436210  0.812678  0.095294
    H   H4   0.292770  0.560958  0.187791  0.095057
    N   N1   0.795696  0.477446  0.480791  0.058378
    N   N2   0.204052  0.519716  0.519678  0.055334
    C   C19  0.038356  0.600749  0.595205  -0.223450
    C   C20  0.961392  0.396409  0.405266  -0.219727
    C   C21  0.154142  0.591888  0.586918  -0.092071
    C   C22  0.845606  0.405272  0.413552  -0.096620
    C   C23  0.141974  0.455013  0.459613  -0.195606
    C   C24  0.857774  0.542147  0.540857  -0.197537
    C   C25  0.025971  0.461990  0.466203  0.222806
    C   C26  0.973777  0.535169  0.534267  0.228982
    H   H5   0.816376  0.599623  0.594376  0.184399
    H   H6   0.183372  0.397535  0.406095  0.183870
    H   H7   0.794809  0.353900  0.365788  0.164192
    H   H8   0.204938  0.643260  0.634682  0.163296
    H   H9   0.999008  0.658932  0.649303  0.156366
    H   H10  0.000739  0.338226  0.351168  0.156356
    C   C27  0.243053  0.575877  0.993166  0.079142
    C   C28  0.183989  0.500595  0.936822  -0.036212
    C   C29  0.079182  0.533452  0.895431  -0.277692
    C   C30  0.031997  0.640787  0.911949  0.445644
    F   F1   0.928793  0.672872  0.871618  -0.251996
    C   C31  0.089368  0.715092  0.970360  -0.340539
    C   C32  0.194503  0.682576  0.011260  -0.092144
    H   H11  0.220240  0.416033  0.924322  0.100313
    H   H12  0.033709  0.474799  0.850481  0.137302
    H   H13  0.052046  0.799023  0.983887  0.171943
    H   H14  0.239426  0.741483  0.056412  0.116952
    C   C33  0.756695  0.421292  0.007303  0.079439
    C   C34  0.805242  0.314593  0.989208  -0.093084
    C   C35  0.910375  0.282071  0.030112  -0.340080
    C   C36  0.967745  0.356372  0.088528  0.445232
    F   F2   0.070945  0.324281  0.128865  -0.251867
    C   C37  0.920564  0.463708  0.105046  -0.278319
    C   C38  0.815759  0.496571  0.063651  -0.035999
    H   H15  0.760318  0.255688  0.944055  0.117267
    H   H16  0.947694  0.198139  0.016585  0.171952
    H   H17  0.966036  0.522358  0.150000  0.137670
    H   H18  0.779511  0.581133  0.076153  0.100218
