# Generated by REPEAT Assigner based on pymatgen
data_DB0-m9_o18_o20_sra_0.4_CN
_audit_creation_date              2022-05-24
_audit_creation_method            REPEAT_Assigner
_cell_length_a                    6.744243
_cell_length_b                    19.152601
_cell_length_c                    22.367754
_cell_angle_alpha                 90.365282
_cell_angle_beta                  90.823173
_cell_angle_gamma                 89.051633
_cell_volume                      2888.490003
_symmetry_space_group_name_H-M    P1
_symmetry_Int_Tables_number       1
loop_
    _symmetry_equiv_pos_site_id
    _symmetry_equiv_pos_as_xyz
    1  x,y,z
loop_
    _atom_site_type_symbol
    _atom_site_label
    _atom_site_fract_x
    _atom_site_fract_y
    _atom_site_fract_z
    _atom_type_partial_charge
    O  O1   0.759021  0.823216  0.821575  -0.585546
    O  O2   0.260300  0.176617  0.187798  -0.512059
    O  O3   0.461371  0.661233  0.789497  -0.335037
    O  O4   0.554070  0.341049  0.205397  -0.516530
    O  O5   0.258898  0.681668  0.683793  -0.559274
    O  O6   0.758725  0.331154  0.315186  -0.563237
    C  C1   0.641106  0.634582  0.793777  0.340845
    C  C2   0.372008  0.365470  0.199657  0.529081
    O  O7   0.426208  0.809280  0.825075  -0.550512
    O  O8   0.592462  0.191708  0.182308  -0.492728
    O  O9   0.281814  0.833849  0.728761  -0.453354
    O  O10  0.735684  0.176176  0.280485  -0.429582
    C  C3   0.587919  0.837544  0.847092  0.774015
    C  C4   0.431230  0.160990  0.162628  0.619032
    O  O11  0.793932  0.670847  0.778138  -0.297974
    O  O12  0.223446  0.330291  0.219830  -0.401576
    O  O13  0.601714  0.766283  0.717550  -0.508511
    O  O14  0.417303  0.243268  0.287463  -0.534805
    V  V1   0.330712  0.744057  0.758725  1.395108
    V  V2   0.687330  0.262631  0.244246  1.419103
    O  O15  0.948077  0.844284  0.716108  -0.467772
    O  O16  0.068662  0.165305  0.295199  -0.504681
    C  C5   0.125591  0.870729  0.712934  0.532574
    C  C6   0.889661  0.140334  0.299676  0.579550
    O  O17  0.924495  0.695549  0.680341  -0.516485
    O  O18  0.092806  0.316112  0.320635  -0.573204
    C  C7   0.086739  0.667370  0.658238  0.672032
    C  C8   0.930548  0.346732  0.340412  0.711377
    V  V3   0.829612  0.760629  0.746855  1.256669
    V  V4   0.188845  0.245332  0.258485  1.443204
    O  O19  0.106727  0.738362  0.788048  -0.408729
    O  O20  0.912595  0.264735  0.215302  -0.565173
    C  C9   0.071756  0.618887  0.608037  -0.135129
    C  C10  0.944725  0.397310  0.389095  -0.177270
    C  C11  0.050955  0.577973  0.566625  0.051592
    C  C12  0.965133  0.439239  0.429771  0.064191
    C  C13  0.021194  0.529564  0.518389  0.001761
    C  C14  0.994684  0.488193  0.477612  -0.006887
    C  C15  0.153613  0.933093  0.678766  0.080106
    C  C16  0.855087  0.082070  0.338208  -0.067781
    C  C17  0.366040  0.020374  0.643067  -0.027205
    C  C18  0.631097  0.000805  0.377627  -0.247340
    C  C19  0.324005  0.970974  0.685059  -0.183682
    C  C20  0.682097  0.045514  0.332938  0.081789
    C  C21  0.025177  0.944310  0.631982  -0.238284
    C  C22  0.976642  0.074698  0.387216  -0.150351
    C  C23  0.073636  0.989600  0.587168  0.115709
    C  C24  0.919002  0.034363  0.434505  0.025780
    C  C25  0.244997  0.027669  0.593264  0.111869
    C  C26  0.746420  0.996799  0.428826  0.211221
    C  C27  0.961558  0.993155  0.534761  0.148754
    C  C28  0.026240  0.033471  0.487960  0.098622
    C  C29  0.195496  0.073104  0.495631  -0.175344
    C  C30  0.788193  0.955600  0.528054  -0.160063
    C  C31  0.302200  0.070663  0.548245  -0.085353
    C  C32  0.682523  0.957343  0.475308  -0.182744
    H  H1   0.105294  0.106868  0.388806  0.144484
    H  H2   0.901594  0.909897  0.628767  0.135212
    H  H3   0.427116  0.960344  0.721444  0.144456
    H  H4   0.494502  0.972202  0.374284  0.165096
    H  H5   0.251386  0.106383  0.461584  0.112310
    H  H6   0.726673  0.925376  0.563277  0.137094
    C  C33  0.672047  0.571402  0.827336  0.075277
    C  C34  0.327669  0.419985  0.157351  0.000884
    C  C35  0.886009  0.482950  0.866287  -0.217770
    C  C36  0.083599  0.488835  0.106786  -0.172448
    C  C37  0.846615  0.533597  0.824360  0.028118
    C  C38  0.141940  0.450605  0.155815  -0.120536
    C  C39  0.534455  0.558024  0.869722  -0.201016
    C  C40  0.455526  0.427516  0.111059  -0.183297
    C  C41  0.574152  0.508346  0.912735  0.055436
    C  C42  0.393192  0.461432  0.059845  0.081926
    C  C43  0.753880  0.472707  0.911738  0.249311
    C  C44  0.206932  0.492670  0.058449  0.176707
    C  C45  0.446500  0.499432  0.959912  0.030748
    C  C46  0.511243  0.462573  0.009588  0.149190
    C  C47  0.691052  0.426327  0.007703  -0.102751
    C  C48  0.255208  0.526981  0.958082  -0.072219
    C  C49  0.807947  0.429680  0.958100  -0.277290
    C  C50  0.137405  0.524245  0.007384  -0.210859
    H  H7   0.596291  0.400823  0.114841  0.135529
    H  H8   0.039654  0.442174  0.191730  0.134164
    H  H9   0.026267  0.454806  0.866100  0.121664
    H  H10  0.936572  0.512106  0.104585  0.122891
    H  H11  0.744669  0.393869  0.043603  0.125868
    H  H12  0.187812  0.546805  0.917719  0.181680
    C  C51  0.573053  0.886379  0.897010  -0.209766
    C  C52  0.445675  0.110047  0.114260  -0.136582
    C  C53  0.552286  0.927658  0.938135  0.084008
    C  C54  0.466235  0.067744  0.073890  0.057896
    C  C55  0.522496  0.976534  0.985993  -0.016706
    C  C56  0.495913  0.018318  0.026439  0.002714
    C  C57  0.480065  0.110253  0.554834  0.359851
    N  N1   0.623475  0.142172  0.560146  -0.396935
    C  C58  0.501548  0.919382  0.469410  0.430881
    N  N2   0.355637  0.888774  0.464654  -0.477413
    C  C59  0.552085  0.056113  0.282344  0.233109
    N  N3   0.447261  0.064659  0.241552  -0.314825
    C  C60  0.545499  0.059338  0.648069  0.308552
    N  N4   0.690192  0.090753  0.652101  -0.363118
    C  C61  0.994734  0.392741  0.957001  0.502184
    N  N5   0.145335  0.362958  0.956117  -0.505134
    C  C62  0.939068  0.552486  0.004888  0.429642
    N  N6   0.779156  0.575257  0.002876  -0.471118
    C  C63  0.374352  0.607620  0.875298  0.466510
    N  N7   0.245045  0.647677  0.879801  -0.504431
    C  C64  0.991814  0.550053  0.780574  0.286220
    N  N8   0.108885  0.563321  0.745271  -0.365174
