data_DB0-m3_o11_o29_f0_pcu.sym.91_repeat
_audit_creation_date              2024-02-20
_audit_creation_method            'Materials Studio'
_symmetry_space_group_name_H-M    'P1'
_symmetry_Int_Tables_number       1
_symmetry_cell_setting            triclinic
loop_
_symmetry_equiv_pos_as_xyz
  x,y,z
_cell_length_a                    27.6330
_cell_length_b                    11.1243
_cell_length_c                    9.9071
_cell_angle_alpha                 89.9974
_cell_angle_beta                  89.9930
_cell_angle_gamma                 89.9936
loop_
_atom_site_label
_atom_site_type_symbol
_atom_site_fract_x
_atom_site_fract_y
_atom_site_fract_z
_atom_site_U_iso_or_equiv
_atom_site_adp_type
_atom_site_occupancy
O1     O     0.49854   0.31743   0.60883   0.00000  Uiso   1.00
O2     O     0.49716   0.31815   0.37620   0.00000  Uiso   1.00
C1     C     0.49711   0.26173   0.49268   0.00000  Uiso   1.00
O3     O     0.42871   0.50202   0.61904   0.00000  Uiso   1.00
O4     O     0.42689   0.50269   0.38664   0.00000  Uiso   1.00
C2     C     0.40512   0.50390   0.50414   0.00000  Uiso   1.00
Zn1    Zn    0.50118   0.49559   0.64959   0.00000  Uiso   1.00
Zn2    Zn    0.49843   0.49792   0.34252   0.00000  Uiso   1.00
O5     O     0.50327   0.67518   0.61612   0.00000  Uiso   1.00
O6     O     0.50124   0.67637   0.38280   0.00000  Uiso   1.00
O7     O     0.57277   0.49033   0.60595   0.00000  Uiso   1.00
O8     O     0.57094   0.49257   0.37263   0.00000  Uiso   1.00
C3     C     0.50273   0.73176   0.49976   0.00000  Uiso   1.00
C4     C     0.59442   0.48800   0.48789   0.00000  Uiso   1.00
C5     C     0.17663   0.40829   0.46046   0.00000  Uiso   1.00
O9     O     0.20213   0.31267   0.41781   0.00000  Uiso   1.00
N1     N     0.20009   0.50529   0.50874   0.00000  Uiso   1.00
C6     C     0.17512   0.60097   0.55448   0.00000  Uiso   1.00
C7     C     0.27655   0.49929   0.38785   0.00000  Uiso   1.00
C8     C     0.32640   0.49929   0.38661   0.00000  Uiso   1.00
C9     C     0.32712   0.51504   0.62705   0.00000  Uiso   1.00
C10    C     0.27717   0.51600   0.62787   0.00000  Uiso   1.00
C11    C     0.25172   0.50736   0.50830   0.00000  Uiso   1.00
C12    C     0.10033   0.50297   0.50197   0.00000  Uiso   1.00
C13    C     0.12660   0.40580   0.45700   0.00000  Uiso   1.00
C14    C     0.10280   0.30698   0.40704   0.00000  Uiso   1.00
C15    C     0.12501   0.60114   0.55106   0.00000  Uiso   1.00
C16    C     0.35203   0.50648   0.50626   0.00000  Uiso   1.00
H1     H     0.34626   0.52085   0.72194   0.00000  Uiso   1.00
H2     H     0.25805   0.52144   0.72289   0.00000  Uiso   1.00
H3     H     0.12241   0.23036   0.36829   0.00000  Uiso   1.00
C17    C     0.64746   0.48269   0.48434   0.00000  Uiso   1.00
C18    C     0.97520   0.39664   0.45656   0.00000  Uiso   1.00
C19    C     0.97373   0.60449   0.52532   0.00000  Uiso   1.00
C20    C     0.94951   0.50004   0.48883   0.00000  Uiso   1.00
C21    C     0.94936   0.29170   0.42984   0.00000  Uiso   1.00
C22    C     0.89972   0.29118   0.42912   0.00000  Uiso   1.00
C23    C     0.87440   0.39487   0.45517   0.00000  Uiso   1.00
C24    C     0.89916   0.49885   0.48492   0.00000  Uiso   1.00
C25    C     0.87297   0.60150   0.51109   0.00000  Uiso   1.00
C26    C     0.82288   0.59884   0.50765   0.00000  Uiso   1.00
N2     N     0.79940   0.49567   0.47991   0.00000  Uiso   1.00
C27    C     0.82435   0.39438   0.45343   0.00000  Uiso   1.00
C28    C     0.72404   0.41965   0.57290   0.00000  Uiso   1.00
C29    C     0.67418   0.41233   0.57387   0.00000  Uiso   1.00
C30    C     0.67152   0.55430   0.39207   0.00000  Uiso   1.00
C31    C     0.72137   0.55954   0.39090   0.00000  Uiso   1.00
C32    C     0.74778   0.49253   0.48183   0.00000  Uiso   1.00
O10    O     0.80032   0.29291   0.42297   0.00000  Uiso   1.00
C33    C     0.02584   0.39998   0.45309   0.00000  Uiso   1.00
C34    C     0.04998   0.50202   0.49762   0.00000  Uiso   1.00
C35    C     0.02424   0.60316   0.53764   0.00000  Uiso   1.00
C36    C     0.05318   0.30385   0.40485   0.00000  Uiso   1.00
H4     H     0.74482   0.36563   0.64267   0.00000  Uiso   1.00
H5     H     0.88131   0.20755   0.40825   0.00000  Uiso   1.00
H6     H     0.96608   0.20579   0.41313   0.00000  Uiso   1.00
H7     H     0.03770   0.22486   0.35982   0.00000  Uiso   1.00
O11    O     0.19915   0.69784   0.60002   0.00000  Uiso   1.00
C37    C     0.09952   0.69901   0.59685   0.00000  Uiso   1.00
H8     H     0.34482   0.49256   0.29071   0.00000  Uiso   1.00
H9     H     0.25698   0.49358   0.29358   0.00000  Uiso   1.00
H10    H     0.11778   0.77644   0.63852   0.00000  Uiso   1.00
C38    C     0.94658   0.70826   0.54750   0.00000  Uiso   1.00
C39    C     0.89696   0.70646   0.54046   0.00000  Uiso   1.00
O12    O     0.79737   0.69858   0.53586   0.00000  Uiso   1.00
C40    C     0.04988   0.70030   0.59041   0.00000  Uiso   1.00
H11    H     0.96233   0.79485   0.56694   0.00000  Uiso   1.00
H12    H     0.65130   0.60935   0.32207   0.00000  Uiso   1.00
H13    H     0.87748   0.78911   0.55867   0.00000  Uiso   1.00
H14    H     0.73961   0.61601   0.31810   0.00000  Uiso   1.00
H15    H     0.03290   0.77878   0.63229   0.00000  Uiso   1.00
C41    C     0.49965   0.92896   0.38948   0.00000  Uiso   1.00
C42    C     0.50379   0.86349   0.50260   0.00000  Uiso   1.00
H16    H     0.49667   0.88354   0.29312   0.00000  Uiso   1.00
H17    H     0.50809   0.90449   0.60060   0.00000  Uiso   1.00
C43    C     0.49969   0.06210   0.38664   0.00000  Uiso   1.00
C44    C     0.49609   0.13016   0.49744   0.00000  Uiso   1.00
H18    H     0.50215   0.10515   0.28877   0.00000  Uiso   1.00
H19    H     0.49244   0.09101   0.59657   0.00000  Uiso   1.00
C45    C     0.52212   0.57738   0.92330   0.00000  Uiso   1.00
N3     N     0.50398   0.49257   0.85131   0.00000  Uiso   1.00
H20    H     0.53694   0.65625   0.87421   0.00000  Uiso   1.00
H21    H     0.49606   0.41353   0.90007   0.00000  Uiso   1.00
C46    C     0.52586   0.56707   0.07190   0.00000  Uiso   1.00
N4     N     0.49631   0.50220   0.14077   0.00000  Uiso   1.00
H22    H     0.55311   0.61950   0.12408   0.00000  Uiso   1.00
H23    H     0.46711   0.46691   0.09037   0.00000  Uiso   1.00
C47    C     0.65218   0.32363   0.66547   0.00000  Uiso   1.00
H24    H     0.67277   0.29170   0.75144   0.00000  Uiso   1.00
O13    O     0.61380   0.27523   0.63850   0.00000  Uiso   1.00
