# Generated by REPEAT Assigner based on pymatgen
data_DB0-m3_o22_o25_f0_pcu.sym.93
_audit_creation_date              2022-05-24
_audit_creation_method            REPEAT_Assigner
_cell_length_a                    15.993811
_cell_length_b                    10.780060
_cell_length_c                    9.591067
_cell_angle_alpha                 90.063497
_cell_angle_beta                  89.979777
_cell_angle_gamma                 89.997317
_cell_volume                      1653.635478
_symmetry_space_group_name_H-M    P1
_symmetry_Int_Tables_number       1
loop_
    _symmetry_equiv_pos_site_id
    _symmetry_equiv_pos_as_xyz
    1  x,y,z
loop_
    _atom_site_type_symbol
    _atom_site_label
    _atom_site_fract_x
    _atom_site_fract_y
    _atom_site_fract_z
    _atom_type_partial_charge
    O   O1   0.499138  0.314231  0.622600  -0.550331
    O   O2   0.497968  0.314795  0.382033  -0.546898
    C   C1   0.498772  0.256493  0.501875  0.441407
    O   O3   0.375131  0.499631  0.622227  -0.639378
    O   O4   0.374621  0.501425  0.381307  -0.545816
    C   C2   0.336066  0.501179  0.502007  0.650853
    Zn  Zn1  0.499798  0.499378  0.659677  0.960874
    Zn  Zn2  0.499073  0.499205  0.341910  0.998088
    O   O5   0.500290  0.683936  0.619651  -0.555230
    O   O6   0.500068  0.684330  0.378907  -0.698375
    O   O7   0.624253  0.497872  0.620278  -0.718256
    O   O8   0.623727  0.498276  0.379495  -0.733445
    C   C3   0.500776  0.742402  0.499564  0.637043
    C   C4   0.662819  0.498036  0.499647  0.922070
    C   C5   0.972357  0.399308  0.565601  -0.140638
    C   C6   0.027283  0.399634  0.436070  -0.231767
    H   H1   0.052674  0.316625  0.382355  0.102552
    H   H2   0.947607  0.315986  0.619323  0.062974
    H   H3   0.948157  0.498957  0.262376  0.065492
    C   C7   0.246344  0.501240  0.502392  -0.039919
    C   C8   0.752540  0.498019  0.499249  -0.192624
    C   C9   0.026229  0.500008  0.631105  -0.197221
    C   C10  0.079532  0.500325  0.501564  0.773509
    C   C11  0.971600  0.599665  0.565569  -0.112853
    C   C12  0.919353  0.498974  0.500074  0.662439
    C   C13  0.026526  0.599992  0.436037  -0.199893
    C   C14  0.972654  0.499291  0.370533  -0.140460
    C   C15  0.171002  0.500959  0.502215  -0.474447
    C   C16  0.827882  0.498326  0.499423  -0.368958
    H   H4   0.051279  0.683312  0.382316  0.070470
    H   H5   0.946210  0.682675  0.619285  0.050873
    H   H6   0.050728  0.500342  0.739260  0.066748
    C   C17  0.580300  0.070970  0.564493  0.003431
    H   H7   0.591164  0.115820  0.666988  -0.025392
    H   H8   0.633584  0.092466  0.494552  -0.039140
    C   C18  0.574093  0.932199  0.585418  0.161333
    H   H9   0.633373  0.887711  0.552795  -0.010580
    H   H10  0.433339  0.089744  0.694594  -0.036827
    H   H11  0.403276  0.883501  0.661656  0.032819
    C   C19  0.425444  0.068484  0.582241  -0.003042
    C   C20  0.494987  0.070084  0.351514  0.095852
    C   C21  0.499706  0.117846  0.500340  0.298657
    H   H12  0.433553  0.094420  0.305319  -0.063042
    H   H13  0.545792  0.110435  0.287166  -0.095897
    C   C22  0.500443  0.881613  0.500331  0.004893
    C   C23  0.418845  0.929266  0.561650  -0.086455
    C   C24  0.505198  0.930408  0.350966  0.047243
    H   H14  0.453539  0.891056  0.287682  0.057449
    H   H15  0.367142  0.113086  0.544816  0.005991
    H   H16  0.367172  0.909430  0.487850  0.023574
    C   C25  0.472780  0.376086  0.077276  -0.437618
    H   H17  0.514134  0.303521  0.121046  0.212875
    C   C26  0.483186  0.373178  0.920269  0.272847
    H   H18  0.536352  0.311478  0.893645  -0.007582
    H   H19  0.425426  0.335392  0.872386  -0.056037
    H   H20  0.379881  0.591127  0.127294  0.018794
    H   H21  0.371371  0.537948  0.897742  -0.010636
    C   C27  0.442273  0.593629  0.077497  -0.065307
    C   C28  0.580564  0.523376  0.081859  0.004877
    N   N1   0.496794  0.497451  0.133076  0.220198
    H   H22  0.604990  0.609604  0.129981  0.075526
    H   H23  0.623088  0.445805  0.108943  0.028271
    N   N2   0.499209  0.497379  0.868384  0.082079
    C   C29  0.433548  0.578276  0.921334  0.089715
    C   C30  0.579169  0.538322  0.924683  -0.138043
    H   H24  0.630648  0.481819  0.880620  0.085533
    H   H25  0.589922  0.636729  0.897527  0.051240
    H   H26  0.469747  0.686112  0.099077  0.071860
    H   H27  0.437738  0.670707  0.871476  0.026972
    I   I1   0.562695  0.901183  0.804988  -0.204567
    I   I2   0.620624  0.884879  0.250065  -0.077200
    I   I3   0.347030  0.325744  0.128115  0.006450
