# Generated by REPEAT Assigner based on pymatgen
data_DB0-m3_o13_o22_f0_pcu.sym.89_sqe
_audit_creation_date              2022-05-24
_audit_creation_method            REPEAT_Assigner
_cell_length_a                    10.835766
_cell_length_b                    11.886222
_cell_length_c                    13.072163
_cell_angle_alpha                 91.192500
_cell_angle_beta                  89.999514
_cell_angle_gamma                 85.819824
_cell_volume                      1678.801937
_symmetry_space_group_name_H-M    P1
_symmetry_Int_Tables_number       1
loop_
    _symmetry_equiv_pos_site_id
    _symmetry_equiv_pos_as_xyz
    1  x,y,z
loop_
    _atom_site_type_symbol
    _atom_site_label
    _atom_site_fract_x
    _atom_site_fract_y
    _atom_site_fract_z
    _atom_type_partial_charge
    O   O1   0.510642  0.402829  0.691727  -0.656927
    O   O2   0.494995  0.596319  0.679041  -0.662909
    C   C1   0.503044  0.504431  0.733263  0.728750
    O   O3   0.693534  0.384877  0.537304  -0.725537
    O   O4   0.678031  0.578375  0.525581  -0.625030
    C   C2   0.744097  0.481881  0.529860  0.635066
    Zn  Zn1  0.511484  0.355549  0.541939  1.110620
    Zn  Zn2  0.492061  0.610723  0.524862  1.019702
    O   O5   0.507627  0.369935  0.387765  -0.662108
    O   O6   0.493856  0.563459  0.375057  -0.667847
    O   O7   0.325084  0.387936  0.542117  -0.720085
    O   O8   0.310494  0.581132  0.528562  -0.622146
    C   C3   0.500548  0.461840  0.333537  0.743163
    C   C4   0.259367  0.485154  0.536698  0.634776
    C   C5   0.931935  0.440663  0.632167  0.011584
    H   H1   0.899241  0.356063  0.646144  0.004133
    H   H2   0.896698  0.497416  0.695518  -0.050542
    C   C6   0.073061  0.430563  0.630797  -0.013947
    H   H3   0.112199  0.465151  0.701840  -0.008505
    H   H4   0.104149  0.339570  0.627459  -0.002826
    H   H5   0.926566  0.316161  0.469181  0.008418
    H   H6   0.128360  0.329689  0.447001  0.011799
    C   C7   0.941748  0.404079  0.448361  -0.063583
    C   C8   0.921393  0.606043  0.519464  -0.232567
    C   C9   0.882883  0.484080  0.529887  0.254091
    H   H7   0.885161  0.651517  0.588950  0.023986
    C   C10  0.120271  0.486478  0.536130  0.183727
    C   C11  0.080971  0.415488  0.444789  0.025982
    C   C12  0.060956  0.607455  0.523089  -0.182376
    H   H8   0.091184  0.632784  0.446764  0.029186
    H   H9   0.898147  0.417255  0.372738  -0.012239
    H   H10  0.107778  0.453662  0.372279  -0.046432
    C   C13  0.501419  0.450792  0.221503  -0.077955
    C   C14  0.502179  0.515471  0.845296  -0.044069
    C   C15  0.493198  0.630937  0.997732  -0.250843
    C   C16  0.495068  0.620979  0.892461  -0.089009
    C   C17  0.507452  0.420211  0.904723  -0.237693
    C   C18  0.505388  0.430484  0.010117  0.246901
    C   C19  0.498241  0.535774  0.056680  0.188948
    C   C20  0.496208  0.546048  0.162073  -0.198070
    C   C21  0.508459  0.345283  0.174338  -0.038536
    C   C22  0.510381  0.335323  0.069066  -0.344779
    H   H11  0.490796  0.629298  0.197297  0.127499
    H   H12  0.512698  0.269485  0.218807  0.074122
    H   H13  0.487597  0.713898  0.033655  0.119374
    H   H14  0.515967  0.252362  0.033144  0.197883
    H   H15  0.490798  0.696778  0.847992  0.106838
    H   H16  0.512867  0.336963  0.869495  0.119496
    N   N1   0.523297  0.187582  0.553859  -0.051940
    N   N2   0.480110  0.778717  0.512994  -0.053195
    C   C23  0.418250  0.942011  0.419938  -0.291939
    C   C24  0.424062  0.826588  0.430995  0.096956
    C   C25  0.532101  0.842705  0.585065  -0.070714
    C   C26  0.529520  0.958247  0.575230  0.177198
    C   C27  0.471903  0.008335  0.492569  0.321927
    C   C28  0.468734  0.123915  0.483019  -0.184400
    C   C29  0.581352  0.139558  0.634885  0.009839
    C   C30  0.585051  0.024354  0.646949  -0.285177
    H   H17  0.421741  0.163631  0.418834  0.180696
    H   H18  0.624533  0.191420  0.691386  0.143997
    H   H19  0.372705  0.979593  0.354059  0.134519
    H   H20  0.631362  0.986677  0.712445  0.164454
    H   H21  0.382999  0.774550  0.373438  0.101142
    H   H22  0.578253  0.803124  0.649698  0.133934
    C   C31  0.871143  0.674287  0.429540  0.407990
    C   C32  0.805308  0.776666  0.450545  -0.300594
    C   C33  0.761137  0.844804  0.372584  -0.031615
    C   C34  0.782438  0.812376  0.272239  -0.030474
    Br  Br1  0.721873  0.907025  0.164644  -0.106484
    C   C35  0.850525  0.712787  0.249970  0.022583
    C   C36  0.895888  0.644847  0.327673  -0.386048
    H   H23  0.788883  0.805715  0.528524  0.131619
    H   H24  0.710707  0.924564  0.390297  0.067646
    H   H25  0.870484  0.688576  0.171196  0.076601
    H   H26  0.954212  0.571409  0.306106  0.210030
    C   C37  0.097451  0.699205  0.597548  0.404482
    C   C38  0.148279  0.792811  0.557728  -0.350504
    C   C39  0.180019  0.880593  0.620729  0.030862
    C   C40  0.160739  0.877003  0.724489  -0.063846
    Br  Br2  0.204221  0.998630  0.811371  -0.097721
    C   C41  0.107202  0.786475  0.764963  0.041266
    C   C42  0.074517  0.698830  0.702214  -0.387953
    H   H27  0.163047  0.799141  0.476386  0.138470
    H   H28  0.219308  0.952929  0.588442  0.055290
    H   H29  0.088874  0.784798  0.846184  0.060757
    H   H30  0.027214  0.633228  0.737029  0.210864
