# Generated by REPEAT Assigner based on pymatgen
data_DB0-m2_o8_o11_f0_pcu.sym.22
_audit_creation_date              2022-05-24
_audit_creation_method            REPEAT_Assigner
_cell_length_a                    11.037244
_cell_length_b                    15.613713
_cell_length_c                    17.046486
_cell_angle_alpha                 96.368416
_cell_angle_beta                  89.996565
_cell_angle_gamma                 92.837856
_cell_volume                      2915.909328
_symmetry_space_group_name_H-M    P1
_symmetry_Int_Tables_number       1
loop_
    _symmetry_equiv_pos_site_id
    _symmetry_equiv_pos_as_xyz
    1  x,y,z
loop_
    _atom_site_type_symbol
    _atom_site_label
    _atom_site_fract_x
    _atom_site_fract_y
    _atom_site_fract_z
    _atom_type_partial_charge
    O   O1   0.499358  0.418115  0.381964  -0.540070
    O   O2   0.515764  0.566008  0.388765  -0.638436
    C   C1   0.509691  0.489476  0.348181  0.811226
    O   O3   0.319370  0.425598  0.487767  -0.588181
    O   O4   0.329591  0.574077  0.501793  -0.623162
    C   C2   0.267884  0.499708  0.493103  0.682416
    Cu  Cu1  0.494127  0.414225  0.496013  0.807885
    Cu  Cu2  0.506621  0.586439  0.503717  0.987661
    O   O5   0.482088  0.434730  0.610759  -0.496069
    O   O6   0.503931  0.582406  0.617860  -0.622030
    O   O7   0.670926  0.426744  0.499833  -0.537998
    O   O8   0.681747  0.574964  0.510092  -0.563181
    C   C3   0.490586  0.510957  0.651502  0.807359
    C   C4   0.732952  0.500686  0.506674  0.503305
    C   C5   0.938276  0.567299  0.503594  -0.319084
    C   C6   0.865083  0.498012  0.512703  0.275968
    H   H1   0.898456  0.627612  0.494904  0.170388
    C   C7   0.072297  0.567774  0.507735  0.099911
    C   C8   0.135265  0.497574  0.487945  -0.322371
    H   H2   0.120596  0.629195  0.524491  0.104192
    H   H3   0.090552  0.436441  0.466234  0.181406
    C   C9   0.511623  0.483851  0.261412  -0.344687
    C   C10  0.510489  0.558408  0.224401  -0.103554
    C   C11  0.508330  0.554416  0.143079  -0.129977
    C   C12  0.507656  0.475041  0.097625  0.215196
    C   C13  0.510414  0.400984  0.134454  0.067502
    C   C14  0.512254  0.404765  0.215544  0.361964
    C   C15  0.468284  0.448129  0.857686  0.117876
    C   C16  0.466550  0.443139  0.776422  0.311958
    C   C17  0.492457  0.527312  0.902562  0.303570
    N   N1   0.503053  0.466688  0.014174  -0.061591
    N   N2   0.498281  0.536714  0.986253  -0.209063
    C   C18  0.488126  0.516348  0.738273  -0.359007
    C   C19  0.509094  0.595053  0.783047  0.031682
    C   C20  0.510874  0.600202  0.864329  -0.335341
    H   H4   0.525832  0.653420  0.755296  0.137614
    H   H5   0.506631  0.614562  0.117316  0.081345
    H   H6   0.528682  0.662079  0.898552  0.155905
    H   H7   0.509846  0.621005  0.258469  0.160595
    N   N3   0.515585  0.715238  0.509199  -0.202450
    C   C21  0.449448  0.752913  0.457417  -0.169542
    C   C22  0.453665  0.841487  0.457529  0.324292
    C   C23  0.528900  0.892442  0.511348  0.007149
    C   C24  0.598286  0.852075  0.561957  0.107227
    C   C25  0.591506  0.763553  0.560064  0.328195
    C   C26  0.555442  0.157069  0.533838  0.179569
    C   C27  0.557143  0.245859  0.537829  0.297810
    C   C28  0.479361  0.107449  0.479502  0.199898
    N   N4   0.538203  0.983870  0.517516  0.013830
    N   N5   0.470074  0.015894  0.471867  -0.119285
    N   N6   0.485153  0.285370  0.490632  -0.193881
    C   C29  0.413180  0.238403  0.436521  0.084061
    C   C30  0.408784  0.149515  0.430775  -0.301850
    H   H8   0.357515  0.270228  0.397618  0.147867
    H   H9   0.349474  0.112536  0.387740  0.162443
    H   H10  0.390866  0.713603  0.415554  0.192337
    F   F1   0.631407  0.293240  0.591104  -0.113974
    F   F2   0.629281  0.122403  0.584225  -0.205220
    F   F3   0.673395  0.899932  0.614427  -0.143625
    F   F4   0.660829  0.725841  0.610704  -0.128888
    F   F5   0.383574  0.874802  0.404177  -0.217985
    F   F6   0.909694  0.423227  0.530916  -0.157964
    F   F7   0.442024  0.364812  0.735319  -0.163012
    F   F8   0.442713  0.373985  0.890418  -0.175694
    F   F9   0.510204  0.323269  0.090299  -0.158317
    F   F10  0.514684  0.329804  0.248575  -0.176113
