data_DB0-m29_o96_o1490_f0_pts.sym.94_repeat
_audit_creation_date              2024-02-24
_audit_creation_method            'Materials Studio'
_symmetry_space_group_name_H-M    'P1'
_symmetry_Int_Tables_number       1
_symmetry_cell_setting            triclinic
loop_
_symmetry_equiv_pos_as_xyz
  x,y,z
_cell_length_a                    17.3400
_cell_length_b                    12.1613
_cell_length_c                    19.3079
_cell_angle_alpha                 88.7708
_cell_angle_beta                  90.6087
_cell_angle_gamma                 108.4258
loop_
_atom_site_label
_atom_site_type_symbol
_atom_site_fract_x
_atom_site_fract_y
_atom_site_fract_z
_atom_site_U_iso_or_equiv
_atom_site_adp_type
_atom_site_occupancy
C1     C     0.22906   0.04977   0.10811   0.00000  Uiso   1.00
C2     C     0.18452   0.07262   0.16033   0.00000  Uiso   1.00
C3     C     0.10904   0.06527   0.13380   0.00000  Uiso   1.00
N1     N     0.10574   0.03740   0.06632   0.00000  Uiso   1.00
C4     C     0.17900   0.02733   0.05017   0.00000  Uiso   1.00
C5     C     0.04766   0.07878   0.17078   0.00000  Uiso   1.00
C6     C     0.96332   0.05884   0.14638   0.00000  Uiso   1.00
C7     C     0.89802   0.04810   0.18929   0.00000  Uiso   1.00
C8     C     0.83081   0.03035   0.14863   0.00000  Uiso   1.00
C9     C     0.85594   0.02910   0.08075   0.00000  Uiso   1.00
N2     N     0.93745   0.04972   0.07998   0.00000  Uiso   1.00
C10    C     0.80187   0.01149   0.01944   0.00000  Uiso   1.00
C11    C     0.82131   0.98593   0.95588   0.00000  Uiso   1.00
C12    C     0.77327   0.97196   0.89612   0.00000  Uiso   1.00
C13    C     0.82117   0.95839   0.84342   0.00000  Uiso   1.00
C14    C     0.89437   0.95817   0.87143   0.00000  Uiso   1.00
N3     N     0.89462   0.97571   0.94011   0.00000  Uiso   1.00
C15    C     0.95566   0.94390   0.83479   0.00000  Uiso   1.00
C16    C     0.03797   0.95268   0.86019   0.00000  Uiso   1.00
C17    C     0.10191   0.95532   0.81769   0.00000  Uiso   1.00
C18    C     0.16870   0.96916   0.85844   0.00000  Uiso   1.00
C19    C     0.14456   0.97612   0.92618   0.00000  Uiso   1.00
N4     N     0.06391   0.96281   0.92651   0.00000  Uiso   1.00
C20    C     0.19893   0.99815   0.98770   0.00000  Uiso   1.00
H1     H     0.05893   0.10000   0.22468   0.00000  Uiso   1.00
H2     H     0.74312   0.02048   0.02814   0.00000  Uiso   1.00
H3     H     0.94560   0.92835   0.78026   0.00000  Uiso   1.00
H4     H     0.25977   0.99414   0.98064   0.00000  Uiso   1.00
H5     H     0.97483   0.06602   0.03694   0.00000  Uiso   1.00
H6     H     0.02681   0.95456   0.96919   0.00000  Uiso   1.00
C21    C     0.10475   0.94691   0.74705   0.00000  Uiso   1.00
C22    C     0.17761   0.95065   0.71771   0.00000  Uiso   1.00
C23    C     0.24645   0.96271   0.75844   0.00000  Uiso   1.00
C24    C     0.24263   0.97325   0.83008   0.00000  Uiso   1.00
C25    C     0.30766   0.04798   0.11927   0.00000  Uiso   1.00
C26    C     0.33790   0.06448   0.18653   0.00000  Uiso   1.00
C27    C     0.29020   0.08309   0.23960   0.00000  Uiso   1.00
C28    C     0.21374   0.09006   0.22680   0.00000  Uiso   1.00
C29    C     0.89417   0.05400   0.26001   0.00000  Uiso   1.00
C30    C     0.81988   0.04403   0.28924   0.00000  Uiso   1.00
C31    C     0.75053   0.02832   0.24836   0.00000  Uiso   1.00
C32    C     0.75555   0.01997   0.17675   0.00000  Uiso   1.00
C33    C     0.69342   0.96898   0.88247   0.00000  Uiso   1.00
C34    C     0.66889   0.96514   0.81351   0.00000  Uiso   1.00
C35    C     0.72157   0.96189   0.76075   0.00000  Uiso   1.00
C36    C     0.79726   0.95434   0.77528   0.00000  Uiso   1.00
H7     H     0.05218   0.93668   0.71435   0.00000  Uiso   1.00
H8     H     0.29560   0.98351   0.86238   0.00000  Uiso   1.00
H9     H     0.34331   0.02894   0.07843   0.00000  Uiso   1.00
H10    H     0.31264   0.09221   0.29217   0.00000  Uiso   1.00
H11    H     0.17824   0.10477   0.26911   0.00000  Uiso   1.00
H12    H     0.94715   0.06729   0.29266   0.00000  Uiso   1.00
H13    H     0.70247   0.00739   0.14430   0.00000  Uiso   1.00
H14    H     0.70237   0.96026   0.70736   0.00000  Uiso   1.00
H15    H     0.83603   0.94871   0.73308   0.00000  Uiso   1.00
H16    H     0.17959   0.94282   0.66219   0.00000  Uiso   1.00
H17    H     0.81721   0.05020   0.34483   0.00000  Uiso   1.00
O1     O     0.60642   0.01322   0.24809   0.00000  Uiso   1.00
C37    C     0.67391   0.02266   0.28288   0.00000  Uiso   1.00
O2     O     0.55218   0.79201   0.33207   0.00000  Uiso   1.00
O3     O     0.67296   0.02789   0.35065   0.00000  Uiso   1.00
O4     O     0.48407   0.89368   0.38903   0.00000  Uiso   1.00
C38    C     0.50609   0.80037   0.38383   0.00000  Uiso   1.00
Fe1    Fe    0.52047   0.01327   0.31477   0.00000  Uiso   1.00
O5     O     0.41672   0.98683   0.26100   0.00000  Uiso   1.00
O6     O     0.48430   0.12664   0.18299   0.00000  Uiso   1.00
C39    C     0.41649   0.05241   0.20622   0.00000  Uiso   1.00
O7     O     0.57160   0.16455   0.36212   0.00000  Uiso   1.00
O8     O     0.45504   0.20211   0.33371   0.00000  Uiso   1.00
C40    C     0.52204   0.22581   0.37030   0.00000  Uiso   1.00
C41    C     0.52756   0.22070   0.49551   0.00000  Uiso   1.00
C42    C     0.51471   0.26042   0.55911   0.00000  Uiso   1.00
C43    C     0.50627   0.36922   0.56414   0.00000  Uiso   1.00
C44    C     0.52480   0.28364   0.43639   0.00000  Uiso   1.00
C45    C     0.51283   0.39029   0.44069   0.00000  Uiso   1.00
C46    C     0.50708   0.43735   0.50468   0.00000  Uiso   1.00
C47    C     0.49941   0.54899   0.50673   0.00000  Uiso   1.00
C48    C     0.49688   0.60450   0.56900   0.00000  Uiso   1.00
C49    C     0.48673   0.71219   0.56873   0.00000  Uiso   1.00
N5     N     0.50583   0.44705   0.38188   0.00000  Uiso   1.00
C50    C     0.49664   0.55237   0.38242   0.00000  Uiso   1.00
C51    C     0.49697   0.60820   0.44432   0.00000  Uiso   1.00
C52    C     0.49365   0.72163   0.44496   0.00000  Uiso   1.00
C53    C     0.48488   0.76926   0.50735   0.00000  Uiso   1.00
H18    H     0.48760   0.59024   0.33334   0.00000  Uiso   1.00
H19    H     0.53321   0.13528   0.49069   0.00000  Uiso   1.00
H20    H     0.48419   0.85754   0.51002   0.00000  Uiso   1.00
H21    H     0.49513   0.39511   0.61491   0.00000  Uiso   1.00
H22    H     0.50494   0.56919   0.61904   0.00000  Uiso   1.00
O9     O     0.58025   0.02798   0.74048   0.00000  Uiso   1.00
O10    O     0.52430   0.87373   0.81244   0.00000  Uiso   1.00
C54    C     0.58699   0.96173   0.79309   0.00000  Uiso   1.00
O11    O     0.43501   0.80537   0.65666   0.00000  Uiso   1.00
O12    O     0.57045   0.85427   0.64160   0.00000  Uiso   1.00
C55    C     0.49776   0.78108   0.63125   0.00000  Uiso   1.00
O13    O     0.49642   0.21557   0.68200   0.00000  Uiso   1.00
O14    O     0.38722   0.96471   0.75844   0.00000  Uiso   1.00
C56    C     0.32173   0.96417   0.72359   0.00000  Uiso   1.00
O15    O     0.49403   0.07154   0.60774   0.00000  Uiso   1.00
C57    C     0.50330   0.18097   0.61912   0.00000  Uiso   1.00
O16    O     0.32355   0.96349   0.65569   0.00000  Uiso   1.00
Fe2    Fe    0.47323   0.96861   0.69090   0.00000  Uiso   1.00
C58    C     0.63428   0.96721   0.93642   0.00000  Uiso   1.00
C59    C     0.59568   0.86718   0.97504   0.00000  Uiso   1.00
C60    C     0.61070   0.75412   0.96459   0.00000  Uiso   1.00
C61    C     0.53994   0.87040   0.02482   0.00000  Uiso   1.00
C62    C     0.52170   0.97088   0.03590   0.00000  Uiso   1.00
C63    C     0.55926   0.06943   0.99733   0.00000  Uiso   1.00
C64    C     0.61526   0.06748   0.94770   0.00000  Uiso   1.00
H23    H     0.65242   0.75644   0.92129   0.00000  Uiso   1.00
H24    H     0.55192   0.68681   0.95353   0.00000  Uiso   1.00
H25    H     0.63665   0.72905   0.01287   0.00000  Uiso   1.00
H26    H     0.50976   0.79318   0.05504   0.00000  Uiso   1.00
H27    H     0.47754   0.97197   0.07466   0.00000  Uiso   1.00
H28    H     0.54478   0.14821   0.00593   0.00000  Uiso   1.00
H29    H     0.64469   0.14511   0.91756   0.00000  Uiso   1.00
