# Generated by REPEAT Assigner based on pymatgen
data_DB0-m9_o4_o13_f0_sra.sym.62_sqe
_audit_creation_date              2022-05-24
_audit_creation_method            REPEAT_Assigner
_cell_length_a                    17.265200
_cell_length_b                    6.818000
_cell_length_c                    16.155701
_cell_angle_alpha                 90.000000
_cell_angle_beta                  100.498295
_cell_angle_gamma                 90.000000
_cell_volume                      1869.919617
_symmetry_space_group_name_H-M    P1
_symmetry_Int_Tables_number       1
loop_
    _symmetry_equiv_pos_site_id
    _symmetry_equiv_pos_as_xyz
    1  x,y,z
loop_
    _atom_site_type_symbol
    _atom_site_label
    _atom_site_fract_x
    _atom_site_fract_y
    _atom_site_fract_z
    _atom_type_partial_charge
    O   O1   0.408359  0.434254  0.423025  -0.511328
    O   O2   0.591641  0.934254  0.576976  -0.511296
    O   O3   0.576665  0.780176  0.416341  -0.510102
    O   O4   0.423335  0.280176  0.583659  -0.510095
    C   C1   0.603860  0.597488  0.412004  0.496523
    C   C2   0.396140  0.097488  0.587996  0.496530
    O   O5   0.416808  0.780887  0.397005  -0.496000
    O   O6   0.583192  0.280888  0.602995  -0.495989
    O   O7   0.420950  0.933586  0.555839  -0.493735
    O   O8   0.579050  0.433587  0.444161  -0.493727
    C   C3   0.383893  0.603742  0.385017  0.525640
    C   C4   0.616107  0.103743  0.614983  0.525610
    O   O9   0.501783  0.616470  0.550425  -0.522726
    O   O10  0.498217  0.116471  0.449575  -0.522696
    V   V1   0.501425  0.884223  0.485333  1.431302
    V   V2   0.498574  0.384223  0.514667  1.431556
    C   C5   0.730707  0.931391  0.700998  0.233953
    C   C6   0.269293  0.431391  0.299002  0.233842
    C   C7   0.683282  0.093239  0.685166  -0.066143
    C   C8   0.316718  0.593239  0.314834  -0.066060
    C   C9   0.702324  0.251424  0.739448  -0.130991
    C   C10  0.297676  0.751424  0.260552  -0.131029
    H   H1   0.666389  0.382101  0.730518  0.131463
    H   H2   0.333611  0.882101  0.269482  0.131466
    C   C11  0.766874  0.243267  0.805863  -0.172667
    C   C12  0.233126  0.743267  0.194137  -0.172663
    H   H3   0.780275  0.367377  0.847614  0.123354
    H   H4   0.219725  0.867377  0.152386  0.123346
    C   C13  0.813427  0.076257  0.819050  0.003334
    C   C14  0.186573  0.576257  0.180950  0.003433
    C   C15  0.792002  0.923566  0.764185  -0.166151
    C   C16  0.207998  0.423565  0.235815  -0.166261
    C   C17  0.816174  0.724387  0.742521  0.152675
    C   C18  0.183825  0.224387  0.257479  0.152932
    C   C19  0.744285  0.733501  0.668368  -0.250066
    C   C20  0.255715  0.233501  0.331632  -0.249972
    H   H5   0.811059  0.612369  0.790902  0.063774
    H   H6   0.188941  0.112369  0.209098  0.063718
    H   H7   0.696610  0.629480  0.675374  0.084367
    H   H8   0.303390  0.129480  0.324626  0.084340
    H   H9   0.761776  0.739237  0.605681  0.075622
    H   H10  0.238224  0.239236  0.394319  0.075608
    C   C21  0.338152  0.065922  0.643173  0.127460
    C   C22  0.661848  0.565923  0.356827  0.127504
    C   C23  0.159421  0.104678  0.854753  0.059562
    C   C24  0.840579  0.604678  0.145247  0.059515
    C   C25  0.241484  0.327399  0.794443  -0.220877
    C   C26  0.758517  0.827398  0.205557  -0.220881
    C   C27  0.189482  0.290736  0.848318  -0.121045
    C   C28  0.810518  0.790737  0.151682  -0.121021
    C   C29  0.181887  0.954947  0.806318  -0.279950
    C   C30  0.818113  0.454947  0.193682  -0.279941
    C   C31  0.233705  0.992266  0.751825  0.161879
    C   C32  0.766295  0.492267  0.248175  0.161880
    C   C33  0.263548  0.178528  0.745756  0.218588
    C   C34  0.736452  0.678528  0.254244  0.218622
    C   C35  0.315474  0.215785  0.691373  -0.314399
    C   C36  0.684526  0.715785  0.308627  -0.314443
    C   C37  0.308006  0.879913  0.649495  -0.224600
    C   C38  0.691994  0.379913  0.350505  -0.224633
    C   C39  0.255799  0.843390  0.703149  -0.150224
    C   C40  0.744201  0.343390  0.296851  -0.150238
    H   H11  0.339088  0.361649  0.687521  0.171278
    H   H12  0.660912  0.861649  0.312479  0.171296
    H   H13  0.325698  0.761671  0.612418  0.137115
    H   H14  0.674302  0.261671  0.387582  0.137109
    H   H15  0.264736  0.473494  0.790225  0.105608
    H   H16  0.735264  0.973494  0.209775  0.105594
    H   H17  0.232524  0.697304  0.707329  0.148517
    H   H18  0.767476  0.197304  0.292672  0.148541
    H   H19  0.171984  0.408872  0.885573  0.105964
    H   H20  0.828016  0.908871  0.114427  0.105964
    H   H21  0.158366  0.808996  0.810247  0.177059
    H   H22  0.841634  0.308996  0.189753  0.177062
    O   O11  0.922171  0.736384  0.056432  -0.435145
    O   O12  0.077829  0.236384  0.943568  -0.435139
    O   O13  0.085044  0.385165  0.102145  -0.547479
    O   O14  0.914956  0.885165  0.897854  -0.547472
    C   C41  0.117965  0.562642  0.112564  0.531379
    C   C42  0.882035  0.062642  0.887436  0.531436
    O   O15  0.925233  0.389969  0.085173  -0.448203
    O   O16  0.074767  0.889970  0.914826  -0.448181
    O   O17  0.907538  0.231473  0.925339  -0.520231
    O   O18  0.092461  0.731472  0.074661  -0.520215
    C   C43  0.897919  0.572709  0.089332  0.436161
    C   C44  0.102081  0.072710  0.910668  0.436139
    O   O19  0.998090  0.550333  0.947620  -0.546701
    O   O20  0.001910  0.050333  0.052380  -0.546730
    V   V3   0.999031  0.281541  0.015453  1.428551
    V   V4   0.000969  0.781541  0.984548  1.428329
    C   C45  0.892464  0.727028  0.712242  0.128240
    C   C46  0.915053  0.566901  0.670205  0.016088
    Cl  Cl1  0.853878  0.360579  0.652565  -0.118818
    C   C47  0.985722  0.569431  0.641887  -0.131243
    C   C48  0.033896  0.731929  0.655765  -0.025328
    C   C49  0.011356  0.891982  0.697879  -0.228551
    C   C50  0.940604  0.889620  0.726038  -0.119875
    H   H23  0.003357  0.444031  0.608805  0.090099
    H   H24  0.089314  0.733877  0.633609  0.062015
    H   H25  0.049143  0.019325  0.708790  0.155097
    H   H26  0.922935  0.015130  0.759019  0.169831
    C   C51  0.107536  0.227028  0.287758  0.127996
    C   C52  0.084947  0.066900  0.329794  0.016252
    Cl  Cl2  0.146122  0.860577  0.347434  -0.118944
    C   C53  0.014277  0.069429  0.358112  -0.131121
    C   C54  0.966104  0.231928  0.344235  -0.025507
    C   C55  0.988644  0.391983  0.302121  -0.228447
    C   C56  0.059396  0.389620  0.273962  -0.119839
    H   H27  0.996643  0.944029  0.391194  0.090019
    H   H28  0.910686  0.233876  0.366391  0.062051
    H   H29  0.950857  0.519325  0.291210  0.155094
    H   H30  0.077065  0.515130  0.240982  0.169837
