data_DB0-m3_o11_o29_f0_pcu.sym.2_repeat
_audit_creation_date              2024-02-23
_audit_creation_method            'Materials Studio'
_symmetry_space_group_name_H-M    'P1'
_symmetry_Int_Tables_number       1
_symmetry_cell_setting            triclinic
loop_
_symmetry_equiv_pos_as_xyz
  x,y,z
_cell_length_a                    27.6353
_cell_length_b                    11.1222
_cell_length_c                    9.9005
_cell_angle_alpha                 89.9974
_cell_angle_beta                  89.9930
_cell_angle_gamma                 89.9936
loop_
_atom_site_label
_atom_site_type_symbol
_atom_site_fract_x
_atom_site_fract_y
_atom_site_fract_z
_atom_site_U_iso_or_equiv
_atom_site_adp_type
_atom_site_occupancy
O1     O     0.49815   0.31993   0.62230   0.00000  Uiso   1.00
O2     O     0.49959   0.31578   0.39007   0.00000  Uiso   1.00
C1     C     0.50016   0.26142   0.50762   0.00000  Uiso   1.00
O3     O     0.42120   0.48679   0.61017   0.00000  Uiso   1.00
O4     O     0.42310   0.48393   0.37771   0.00000  Uiso   1.00
C2     C     0.39950   0.48180   0.49266   0.00000  Uiso   1.00
Zn1    Zn    0.49260   0.49927   0.65405   0.00000  Uiso   1.00
Zn2    Zn    0.49549   0.49362   0.34699   0.00000  Uiso   1.00
O5     O     0.48829   0.67700   0.61165   0.00000  Uiso   1.00
O6     O     0.49104   0.67350   0.37807   0.00000  Uiso   1.00
O7     O     0.56497   0.51109   0.62368   0.00000  Uiso   1.00
O8     O     0.56695   0.50556   0.39045   0.00000  Uiso   1.00
C3     C     0.48806   0.73099   0.49394   0.00000  Uiso   1.00
C4     C     0.58857   0.51152   0.50836   0.00000  Uiso   1.00
C5     C     0.16895   0.39143   0.43644   0.00000  Uiso   1.00
O9     O     0.19239   0.29522   0.38678   0.00000  Uiso   1.00
N1     N     0.19449   0.48402   0.48745   0.00000  Uiso   1.00
C6     C     0.17157   0.58009   0.54011   0.00000  Uiso   1.00
C7     C     0.27160   0.47308   0.36836   0.00000  Uiso   1.00
C8     C     0.32155   0.47253   0.36937   0.00000  Uiso   1.00
C9     C     0.32075   0.48269   0.61033   0.00000  Uiso   1.00
C10    C     0.27091   0.48388   0.60896   0.00000  Uiso   1.00
C11    C     0.24611   0.47975   0.48812   0.00000  Uiso   1.00
C12    C     0.09471   0.49061   0.49247   0.00000  Uiso   1.00
C13    C     0.11886   0.39375   0.43818   0.00000  Uiso   1.00
C14    C     0.09287   0.29845   0.38812   0.00000  Uiso   1.00
C15    C     0.12154   0.58438   0.54348   0.00000  Uiso   1.00
C16    C     0.34643   0.47792   0.49049   0.00000  Uiso   1.00
H1     H     0.33914   0.48683   0.70652   0.00000  Uiso   1.00
H2     H     0.25132   0.48782   0.70339   0.00000  Uiso   1.00
H3     H     0.11073   0.22001   0.34742   0.00000  Uiso   1.00
C17    C     0.64163   0.51589   0.51056   0.00000  Uiso   1.00
C18    C     0.96732   0.40544   0.43819   0.00000  Uiso   1.00
C19    C     0.97023   0.59051   0.56494   0.00000  Uiso   1.00
C20    C     0.94383   0.49946   0.50337   0.00000  Uiso   1.00
C21    C     0.93928   0.32002   0.37115   0.00000  Uiso   1.00
C22    C     0.88969   0.32509   0.37396   0.00000  Uiso   1.00
C23    C     0.86655   0.41561   0.44270   0.00000  Uiso   1.00
C24    C     0.89347   0.50256   0.50686   0.00000  Uiso   1.00
C25    C     0.86940   0.59272   0.57435   0.00000  Uiso   1.00
C26    C     0.81930   0.59528   0.57617   0.00000  Uiso   1.00
N2     N     0.79365   0.50949   0.51212   0.00000  Uiso   1.00
C27    C     0.81653   0.41996   0.44626   0.00000  Uiso   1.00
C28    C     0.71655   0.51110   0.63225   0.00000  Uiso   1.00
C29    C     0.66660   0.51210   0.63159   0.00000  Uiso   1.00
C30    C     0.66722   0.52050   0.39058   0.00000  Uiso   1.00
C31    C     0.71706   0.51978   0.39154   0.00000  Uiso   1.00
C32    C     0.74199   0.51406   0.51216   0.00000  Uiso   1.00
O10    O     0.79049   0.33308   0.38612   0.00000  Uiso   1.00
C33    C     0.01798   0.39945   0.44041   0.00000  Uiso   1.00
C34    C     0.04434   0.49360   0.49595   0.00000  Uiso   1.00
C35    C     0.02082   0.59067   0.55510   0.00000  Uiso   1.00
C36    C     0.04322   0.30081   0.38937   0.00000  Uiso   1.00
H4     H     0.64753   0.50788   0.72676   0.00000  Uiso   1.00
H5     H     0.73562   0.50540   0.72738   0.00000  Uiso   1.00
H6     H     0.86959   0.25682   0.32033   0.00000  Uiso   1.00
H7     H     0.95411   0.24847   0.31121   0.00000  Uiso   1.00
H8     H     0.02606   0.22076   0.35216   0.00000  Uiso   1.00
O11    O     0.19759   0.67302   0.58755   0.00000  Uiso   1.00
C37    C     0.09831   0.68284   0.59637   0.00000  Uiso   1.00
H9     H     0.34070   0.46893   0.27429   0.00000  Uiso   1.00
H10    H     0.25255   0.47076   0.27303   0.00000  Uiso   1.00
H11    H     0.11834   0.75907   0.63443   0.00000  Uiso   1.00
C38    C     0.94511   0.67887   0.63619   0.00000  Uiso   1.00
C39    C     0.89548   0.67992   0.64020   0.00000  Uiso   1.00
O12    O     0.79603   0.68550   0.63890   0.00000  Uiso   1.00
C40    C     0.04873   0.68640   0.60189   0.00000  Uiso   1.00
H12    H     0.96240   0.74821   0.69423   0.00000  Uiso   1.00
H13    H     0.64876   0.52412   0.29447   0.00000  Uiso   1.00
H14    H     0.87770   0.75045   0.69647   0.00000  Uiso   1.00
H15    H     0.73653   0.52378   0.29692   0.00000  Uiso   1.00
H16    H     0.03377   0.76847   0.64092   0.00000  Uiso   1.00
C41    C     0.50060   0.93101   0.39542   0.00000  Uiso   1.00
C42    C     0.48380   0.86214   0.49550   0.00000  Uiso   1.00
H17    H     0.51428   0.88905   0.30431   0.00000  Uiso   1.00
H18    H     0.46728   0.90209   0.58371   0.00000  Uiso   1.00
C43    C     0.49805   0.06383   0.40034   0.00000  Uiso   1.00
C44    C     0.50577   0.12985   0.51230   0.00000  Uiso   1.00
H19    H     0.48939   0.10900   0.30647   0.00000  Uiso   1.00
C45    C     0.52065   0.56644   0.92586   0.00000  Uiso   1.00
N3     N     0.49033   0.50487   0.85589   0.00000  Uiso   1.00
H20    H     0.54851   0.61769   0.87469   0.00000  Uiso   1.00
H21    H     0.46097   0.47024   0.90621   0.00000  Uiso   1.00
C46    C     0.51689   0.57466   0.07464   0.00000  Uiso   1.00
N4     N     0.49836   0.48930   0.14517   0.00000  Uiso   1.00
H22    H     0.53194   0.65254   0.12522   0.00000  Uiso   1.00
H23    H     0.49014   0.41102   0.09516   0.00000  Uiso   1.00
C47    C     0.52520   0.07645   0.63711   0.00000  Uiso   1.00
C48    C     0.56858   0.01462   0.63401   0.00000  Uiso   1.00
C49    C     0.58720   0.96522   0.75070   0.00000  Uiso   1.00
C50    C     0.56259   0.97725   0.87100   0.00000  Uiso   1.00
C51    C     0.51933   0.03882   0.87467   0.00000  Uiso   1.00
C52    C     0.50068   0.08851   0.75815   0.00000  Uiso   1.00
H24    H     0.58841   0.00585   0.54041   0.00000  Uiso   1.00
H25    H     0.62120   0.91722   0.74786   0.00000  Uiso   1.00
H26    H     0.57719   0.93841   0.96241   0.00000  Uiso   1.00
H27    H     0.49993   0.04791   0.96893   0.00000  Uiso   1.00
H28    H     0.46637   0.13507   0.76178   0.00000  Uiso   1.00
