# Generated by REPEAT Assigner based on pymatgen
data_DB0-m3_o11_o13_f0_pcu.sym.112
_audit_creation_date              2022-05-24
_audit_creation_method            REPEAT_Assigner
_cell_length_a                    13.091648
_cell_length_b                    11.193057
_cell_length_c                    10.064674
_cell_angle_alpha                 89.997428
_cell_angle_beta                  95.284935
_cell_angle_gamma                 90.005921
_cell_volume                      1468.562997
_symmetry_space_group_name_H-M    P1
_symmetry_Int_Tables_number       1
loop_
    _symmetry_equiv_pos_site_id
    _symmetry_equiv_pos_as_xyz
    1  x,y,z
loop_
    _atom_site_type_symbol
    _atom_site_label
    _atom_site_fract_x
    _atom_site_fract_y
    _atom_site_fract_z
    _atom_type_partial_charge
    O   O1   0.501867  0.314636  0.643623  -0.669746
    O   O2   0.499009  0.313396  0.414644  -0.618553
    C   C1   0.502080  0.257874  0.529728  0.839598
    O   O3   0.343613  0.485128  0.622462  -0.674015
    O   O4   0.342349  0.485859  0.392487  -0.638869
    C   C2   0.294955  0.484452  0.502038  0.669476
    Zn  Zn1  0.496811  0.493420  0.674036  1.115767
    Zn  Zn2  0.494665  0.490282  0.371123  0.958639
    O   O5   0.490032  0.670037  0.631047  -0.498184
    O   O6   0.490113  0.669332  0.401584  -0.574321
    O   O7   0.649019  0.497952  0.652353  -0.715567
    O   O8   0.647915  0.495886  0.423156  -0.742858
    C   C3   0.487330  0.725796  0.516333  0.519484
    C   C4   0.696559  0.497891  0.543293  0.830479
    C   C5   0.809124  0.493721  0.557601  -0.031629
    C   C6   0.182270  0.487520  0.488514  -0.026482
    C   C7   0.024441  0.519068  0.353357  -0.218660
    C   C8   0.129845  0.510678  0.365643  -0.124490
    C   C9   0.127806  0.471329  0.598593  -0.145681
    C   C10  0.021672  0.480082  0.586420  -0.034480
    C   C11  0.970185  0.503994  0.463263  0.239497
    C   C12  0.864423  0.511759  0.448997  -0.278854
    C   C13  0.860541  0.467205  0.680231  -0.338741
    C   C14  0.966565  0.463426  0.696191  0.398472
    H   H1   0.825369  0.531138  0.352099  0.135580
    H   H2   0.817936  0.446791  0.764332  0.171072
    H   H3   0.984578  0.537761  0.256736  0.102740
    H   H4   0.170351  0.524304  0.278072  0.120641
    H   H5   0.168691  0.451334  0.694052  0.141635
    C   C15  0.479894  0.928923  0.416274  0.077995
    C   C16  0.475346  0.856869  0.522503  0.062366
    C   C17  0.474331  0.061119  0.426400  0.125403
    C   C18  0.509455  0.126584  0.532537  -0.493340
    H   H6   0.441898  0.107208  0.338863  0.087061
    H   H7   0.544940  0.085591  0.622527  0.194406
    C   C19  0.512092  0.588315  0.954933  0.637555
    N   N1   0.500706  0.499105  0.873258  -0.515040
    H   H8   0.512697  0.416017  0.911755  0.299809
    C   C20  0.525090  0.574617  0.104471  -0.255444
    N   N2   0.493547  0.485573  0.171769  0.240570
    H   H9   0.561351  0.648383  0.160217  0.185871
    O   O9   0.517748  0.701589  0.904112  -0.325389
    C   C21  0.622460  0.726100  0.902464  0.052887
    H   H10  0.642598  0.729759  0.798036  0.061805
    H   H11  0.669181  0.655295  0.955630  -0.004624
    C   C22  0.646333  0.845802  0.968664  0.221376
    H   H12  0.603322  0.916897  0.910768  -0.021014
    H   H13  0.622927  0.844534  0.071720  -0.066335
    C   C23  0.760271  0.871280  0.973277  -0.247250
    H   H14  0.803313  0.802568  0.034852  0.081526
    H   H15  0.776372  0.960458  0.018401  0.036848
    H   H16  0.784906  0.870294  0.870766  0.059959
    O   O10  0.427465  0.412044  0.103175  -0.331834
    C   C24  0.469923  0.296343  0.112671  0.239099
    H   H17  0.447716  0.249075  0.017548  0.030827
    H   H18  0.434114  0.246888  0.190338  0.045775
    C   C25  0.587712  0.293465  0.137730  -0.137941
    H   H19  0.625358  0.350704  0.067015  0.007307
    H   H20  0.615193  0.320948  0.240290  0.080044
    C   C26  0.625665  0.167214  0.118966  -0.087269
    H   H21  0.593027  0.106447  0.190892  0.009119
    H   H22  0.710503  0.165874  0.137090  0.066930
    H   H23  0.603185  0.136750  0.015564  0.040159
    O   O11  0.016449  0.432215  0.817224  -0.426974
    C   C27  0.006636  0.527082  0.906590  0.152843
    H   H24  0.045857  0.500735  0.004548  0.057099
    H   H25  0.925281  0.544080  0.922220  0.003695
    C   C28  0.056746  0.640972  0.861694  0.146885
    H   H26  0.135280  0.621567  0.835008  -0.017079
    H   H27  0.010589  0.682025  0.775601  -0.042479
    C   C29  0.063916  0.730191  0.975303  -0.185637
    H   H28  0.987334  0.742629  0.011854  0.005134
    H   H29  0.090980  0.816935  0.939015  0.066192
    H   H30  0.118731  0.697612  0.057955  0.045781
    O   O12  0.483029  0.880481  0.291418  -0.256499
    C   C30  0.380542  0.873380  0.238424  0.074022
    H   H31  0.329467  0.909722  0.310453  0.033627
    H   H32  0.359373  0.778790  0.218043  0.036515
    C   C31  0.365874  0.943790  0.109426  0.205876
    H   H33  0.423742  0.015964  0.110413  -0.062937
    H   H34  0.375324  0.883263  0.024195  -0.028772
    C   C32  0.259598  0.998611  0.094502  -0.240165
    H   H35  0.201383  0.928427  0.105891  0.028464
    H   H36  0.245630  0.040247  0.994580  0.071944
    H   H37  0.253670  0.068311  0.171765  0.034138
    O   O13  0.453979  0.904149  0.642597  -0.231699
    C   C33  0.348363  0.888603  0.647761  0.031057
    H   H38  0.335229  0.822482  0.726476  0.031711
    H   H39  0.312480  0.855389  0.550724  0.021812
    C   C34  0.299294  0.006686  0.679662  0.276715
    H   H40  0.335369  0.040953  0.776167  -0.043863
    H   H41  0.310152  0.072351  0.599920  -0.042304
    C   C35  0.185311  0.989569  0.688412  -0.294033
    H   H42  0.148512  0.958593  0.590814  0.053823
    H   H43  0.150610  0.075789  0.714678  0.064257
    H   H44  0.172806  0.922529  0.766190  0.059684
