# Generated by REPEAT Assigner based on pymatgen
data_DB0-m29_o88_o1470_f0_pts.sym.11
_audit_creation_date              2022-05-24
_audit_creation_method            REPEAT_Assigner
_cell_length_a                    15.493824
_cell_length_b                    12.052910
_cell_length_c                    13.567277
_cell_angle_alpha                 88.738252
_cell_angle_beta                  101.893506
_cell_angle_gamma                 106.058041
_cell_volume                      2380.854472
_symmetry_space_group_name_H-M    P1
_symmetry_Int_Tables_number       1
loop_
    _symmetry_equiv_pos_site_id
    _symmetry_equiv_pos_as_xyz
    1  x,y,z
loop_
    _atom_site_type_symbol
    _atom_site_label
    _atom_site_fract_x
    _atom_site_fract_y
    _atom_site_fract_z
    _atom_type_partial_charge
    C   C1   0.791475  0.989662  0.163049  -0.171690
    H   H1   0.780058  0.975920  0.238876  0.172032
    C   C2   0.877322  0.000401  0.145316  -0.157663
    H   H2   0.931761  0.993939  0.207443  0.138598
    C   C3   0.894896  0.020390  0.050181  0.154957
    C   C4   0.823100  0.030155  0.971450  0.215388
    C   C5   0.732656  0.002772  0.986381  -0.169773
    C   C6   0.718413  0.986848  0.084910  0.026360
    C   C7   0.987550  0.017197  0.038430  -0.217882
    C   C8   0.030017  0.065352  0.965136  -0.078265
    H   H3   0.021649  0.967973  0.093012  0.146737
    H   H4   0.000328  0.116518  0.909829  0.105467
    C   C9   0.128272  0.036760  0.854102  0.244327
    C   C10  0.209730  0.025134  0.837223  -0.277834
    H   H5   0.219178  0.022311  0.760664  0.233519
    C   C11  0.280778  0.022709  0.916379  -0.029629
    C   C12  0.269243  0.027672  0.015185  0.010298
    C   C13  0.186755  0.040206  0.031782  -0.192914
    H   H6   0.177765  0.047783  0.107919  0.129316
    C   C14  0.116569  0.045958  0.951388  0.128275
    O   O1   0.538348  0.127217  0.718350  -0.636097
    C   C15  0.473878  0.169234  0.666353  0.648097
    O   O2   0.442155  0.104738  0.923192  -0.534450
    O   O3   0.387486  0.115734  0.664831  -0.531708
    O   O4   0.365578  0.946704  0.820365  -0.636504
    C   C16  0.367237  0.020964  0.890359  0.754519
    Fe  Fe1  0.484673  0.979425  0.777997  1.438901
    O   O5   0.569816  0.971349  0.909540  -0.510369
    O   O6   0.669498  0.000737  0.806111  -0.423698
    C   C17  0.654890  0.992736  0.898217  0.650199
    O   O7   0.467500  0.867318  0.663644  -0.582224
    O   O8   0.545714  0.763864  0.771535  -0.495522
    C   C18  0.501879  0.778832  0.680842  0.586071
    O   O9   0.502504  0.070651  0.340132  -0.565296
    O   O10  0.552480  0.226432  0.249069  -0.468742
    C   C19  0.528298  0.183342  0.332093  0.643450
    O   O11  0.409268  0.977354  0.090291  -0.518343
    O   O12  0.334390  0.042400  0.193623  -0.495465
    C   C20  0.341064  0.017255  0.102424  0.531370
    O   O13  0.611286  0.886811  0.351869  -0.567069
    O   O14  0.617434  0.038054  0.176833  -0.578330
    C   C21  0.628808  0.966208  0.112290  0.695277
    O   O15  0.463505  0.817346  0.271094  -0.670923
    C   C22  0.534254  0.803451  0.337255  0.735003
    O   O16  0.566892  0.866375  0.088375  -0.492604
    Fe  Fe2  0.499188  0.974796  0.219520  1.456362
    C   C23  0.508536  0.773182  0.505118  -0.233625
    C   C24  0.504643  0.712717  0.591897  0.009468
    C   C25  0.504410  0.596875  0.589660  0.109060
    C   C26  0.502390  0.527392  0.682124  -0.351232
    C   C27  0.446378  0.404628  0.654079  0.583589
    C   C28  0.518125  0.725044  0.419228  0.024813
    C   C29  0.521562  0.611616  0.416743  0.037762
    C   C30  0.509273  0.545298  0.500290  -0.125876
    C   C31  0.506870  0.422598  0.497380  0.257093
    C   C32  0.485786  0.356892  0.578822  -0.348287
    C   C33  0.496076  0.246456  0.585119  0.114399
    C   C34  0.540030  0.565293  0.324164  0.110276
    C   C35  0.526154  0.434953  0.317220  0.278278
    C   C36  0.520515  0.370583  0.413020  -0.061550
    C   C37  0.525420  0.255799  0.417821  -0.074734
    C   C38  0.519279  0.199637  0.506898  -0.176806
    H   H7   0.573458  0.528283  0.719111  0.110077
    H   H8   0.448872  0.355204  0.723771  -0.034974
    H   H9   0.589175  0.427563  0.294869  0.072501
    H   H10  0.510252  0.863395  0.504512  0.184778
    H   H11  0.524658  0.112277  0.514175  0.162379
    H   H12  0.470085  0.560887  0.735842  0.148573
    H   H13  0.489048  0.583040  0.259980  0.111308
    O   O17  0.627274  0.624614  0.306402  -0.388185
    C   C39  0.694698  0.632050  0.394899  0.197812
    H   H14  0.680847  0.553974  0.440057  -0.060716
    H   H15  0.703008  0.710768  0.440843  0.005570
    H   H16  0.761268  0.639872  0.373179  0.041887
    O   O18  0.355940  0.403592  0.610104  -0.394041
    C   C40  0.302293  0.363079  0.681693  0.067763
    H   H17  0.330772  0.415212  0.753354  0.008652
    H   H18  0.295988  0.270171  0.694213  0.014723
    H   H19  0.232328  0.372014  0.652396  0.058737
    O   O19  0.451839  0.384537  0.237732  -0.302701
    C   C41  0.368634  0.364534  0.270337  0.090540
    H   H20  0.368789  0.434153  0.322235  -0.035738
    H   H21  0.351406  0.279022  0.304864  0.072106
    H   H22  0.313162  0.362595  0.203518  0.050320
    O   O20  0.840198  0.064107  0.878786  -0.217070
    C   C42  0.850642  0.183623  0.878785  0.060956
    H   H23  0.886526  0.223634  0.954274  0.006866
    H   H24  0.782980  0.201653  0.857907  0.033894
    H   H25  0.892197  0.223140  0.822978  0.067227
    O   O21  0.060104  0.042938  0.773792  -0.314924
    C   C43  0.015894  0.928689  0.739962  0.128162
    H   H26  0.025474  0.868995  0.802040  0.005007
    H   H27  0.044236  0.906939  0.676583  0.016245
    H   H28  0.941362  0.918641  0.713762  0.038109
