# Generated by REPEAT Assigner based on pymatgen
data_DB0-m2_o39_o41_f0_fof.sym.27
_audit_creation_date              2022-05-24
_audit_creation_method            REPEAT_Assigner
_cell_length_a                    28.268933
_cell_length_b                    18.479307
_cell_length_c                    16.736650
_cell_angle_alpha                 90.000000
_cell_angle_beta                  62.262946
_cell_angle_gamma                 90.000000
_cell_volume                      7738.422778
_symmetry_space_group_name_H-M    P1
_symmetry_Int_Tables_number       1
loop_
    _symmetry_equiv_pos_site_id
    _symmetry_equiv_pos_as_xyz
    1  x,y,z
loop_
    _atom_site_type_symbol
    _atom_site_label
    _atom_site_fract_x
    _atom_site_fract_y
    _atom_site_fract_z
    _atom_type_partial_charge
    O   O1    0.257663  0.872691  0.483979  -0.545017
    O   O2    0.742258  0.127267  0.516317  -0.545650
    O   O3    0.741290  0.872312  0.520050  -0.561594
    O   O4    0.258629  0.127646  0.480248  -0.561666
    O   O5    0.757662  0.372689  0.483980  -0.545039
    O   O6    0.242258  0.627268  0.516315  -0.545620
    O   O7    0.241289  0.372313  0.520052  -0.561592
    O   O8    0.758630  0.627645  0.480247  -0.561667
    O   O9    0.184154  0.801711  0.624946  -0.544639
    O   O10   0.815766  0.198247  0.375350  -0.544864
    O   O11   0.814298  0.804287  0.375797  -0.556318
    O   O12   0.185622  0.195671  0.624502  -0.556259
    O   O13   0.684154  0.301709  0.624948  -0.544668
    O   O14   0.315767  0.698249  0.375349  -0.544872
    O   O15   0.314297  0.304288  0.375798  -0.556345
    O   O16   0.685622  0.695669  0.624501  -0.556216
    Cu  Cu1   0.212318  0.789709  0.495074  0.918979
    Cu  Cu2   0.787603  0.210249  0.505222  0.919121
    Cu  Cu3   0.787688  0.789677  0.504969  0.943454
    Cu  Cu4   0.212231  0.210281  0.495331  0.943620
    Cu  Cu5   0.712317  0.289707  0.495075  0.918922
    Cu  Cu6   0.287603  0.710250  0.505221  0.919054
    Cu  Cu7   0.287687  0.289678  0.504970  0.943412
    Cu  Cu8   0.712232  0.710280  0.495330  0.943556
    C   C1    0.295647  0.730776  0.328385  0.631997
    C   C2    0.704274  0.269182  0.671911  0.631286
    C   C3    0.706715  0.726435  0.671109  0.656407
    C   C4    0.293204  0.273523  0.329191  0.657126
    C   C5    0.795646  0.230775  0.328387  0.631975
    C   C6    0.204274  0.769183  0.671910  0.631353
    C   C7    0.206715  0.226436  0.671110  0.656536
    C   C8    0.793204  0.773522  0.329190  0.657078
    O   O17   0.253172  0.771961  0.365564  -0.584689
    O   O18   0.746748  0.227996  0.634732  -0.584476
    O   O19   0.748327  0.769267  0.634084  -0.595957
    O   O20   0.251592  0.230692  0.366215  -0.596183
    O   O21   0.753172  0.271960  0.365565  -0.584701
    O   O22   0.246748  0.727997  0.634731  -0.584457
    O   O23   0.248327  0.269268  0.634085  -0.596006
    O   O24   0.751592  0.730690  0.366214  -0.596171
    O   O25   0.175863  0.696670  0.514653  -0.553627
    O   O26   0.824058  0.303288  0.485645  -0.553012
    O   O27   0.825094  0.697131  0.481480  -0.584428
    O   O28   0.174826  0.302827  0.518820  -0.584696
    O   O29   0.675862  0.196668  0.514653  -0.553678
    O   O30   0.324058  0.803289  0.485644  -0.553047
    O   O31   0.325093  0.197132  0.481480  -0.584430
    O   O32   0.674826  0.802826  0.518820  -0.584701
    C   C9    0.194346  0.633317  0.522323  0.683924
    C   C10   0.805575  0.366640  0.477973  0.681857
    C   C11   0.806597  0.633749  0.474021  0.694486
    C   C12   0.193322  0.366209  0.526277  0.693916
    C   C13   0.694345  0.133316  0.522325  0.684114
    C   C14   0.305575  0.866642  0.477972  0.681830
    C   C15   0.306596  0.133750  0.474023  0.694469
    C   C16   0.693323  0.866208  0.526276  0.693934
    H   H1    0.535985  0.756334  0.520293  0.131395
    H   H2    0.463936  0.243624  0.480001  0.131344
    H   H3    0.464013  0.756449  0.479087  0.149405
    H   H4    0.535908  0.243509  0.521208  0.149645
    H   H5    0.035982  0.256334  0.520303  0.131437
    H   H6    0.963939  0.743624  0.479991  0.131358
    H   H7    0.964011  0.256448  0.479098  0.149371
    H   H8    0.035910  0.743510  0.521197  0.149650
    C   C17   0.041369  0.627848  0.521135  0.263995
    C   C18   0.958551  0.372111  0.479162  0.261458
    C   C19   0.958433  0.627964  0.479822  0.200251
    C   C20   0.041487  0.371994  0.520473  0.202528
    C   C21   0.541368  0.127847  0.521140  0.263869
    C   C22   0.458552  0.872111  0.479156  0.261612
    C   C23   0.458432  0.127965  0.479828  0.200261
    C   C24   0.541488  0.871993  0.520468  0.202306
    C   C25   0.020011  0.692588  0.512590  -0.254209
    C   C26   0.979910  0.307370  0.487705  -0.253296
    C   C27   0.979747  0.692652  0.488670  -0.191784
    C   C28   0.020173  0.307306  0.511624  -0.192688
    C   C29   0.520009  0.192588  0.512599  -0.254173
    C   C30   0.479911  0.807370  0.487696  -0.253489
    C   C31   0.479746  0.192652  0.488679  -0.191774
    C   C32   0.520175  0.807306  0.511616  -0.192464
    C   C33   0.978312  0.563788  0.491711  0.038076
    C   C34   0.021609  0.436170  0.508585  0.036858
    C   C35   0.021527  0.563730  0.508976  -0.037599
    C   C36   0.978393  0.436228  0.491320  -0.035645
    C   C37   0.478311  0.063788  0.491713  0.038027
    C   C38   0.521609  0.936170  0.508583  0.037064
    C   C39   0.521527  0.063729  0.508979  -0.037492
    C   C40   0.478393  0.936229  0.491317  -0.035821
    C   C41   0.456070  0.000045  0.483240  -0.033506
    C   C42   0.543851  0.999913  0.517057  -0.031713
    C   C43   0.956069  0.500044  0.483240  -0.033603
    C   C44   0.043851  0.499914  0.517057  -0.031551
    C   C45   0.387946  0.934563  0.465636  0.288995
    C   C46   0.611974  0.065395  0.534661  0.292567
    C   C47   0.611683  0.934281  0.535512  0.208243
    C   C48   0.388237  0.065677  0.464786  0.207424
    C   C49   0.887946  0.434562  0.465639  0.289031
    C   C50   0.111974  0.565397  0.534659  0.292648
    C   C51   0.111683  0.434283  0.535514  0.208271
    C   C52   0.888237  0.565675  0.464784  0.207407
    C   C53   0.337940  0.933942  0.466527  -0.252155
    C   C54   0.661979  0.066016  0.533770  -0.253923
    C   C55   0.661372  0.933611  0.535915  -0.222508
    C   C56   0.338548  0.066347  0.464383  -0.224318
    C   C57   0.837940  0.433940  0.466528  -0.252196
    C   C58   0.161980  0.566018  0.533769  -0.253730
    C   C59   0.161372  0.433613  0.535917  -0.222509
    C   C60   0.838548  0.566345  0.464382  -0.224325
    C   C61   0.314516  0.000145  0.465955  0.007290
    C   C62   0.685404  0.999813  0.534343  0.005385
    C   C63   0.814516  0.500143  0.465955  0.007312
    C   C64   0.185404  0.499815  0.534343  0.005318
    H   H9    0.275660  0.000145  0.468697  0.101811
    H   H10   0.724259  0.999813  0.531601  0.102561
    H   H11   0.775660  0.500143  0.468697  0.101801
    H   H12   0.224259  0.499815  0.531601  0.102556
    C   C65   0.410350  0.000106  0.471520  -0.084527
    C   C66   0.589570  0.999852  0.528777  -0.087024
    C   C67   0.910350  0.500104  0.471520  -0.084498
    C   C68   0.089570  0.499854  0.528777  -0.087186
    C   C69   0.582960  0.871573  0.541012  -0.293452
    C   C70   0.416960  0.128385  0.459284  -0.291237
    C   C71   0.416723  0.871800  0.459535  -0.364748
    C   C72   0.583197  0.128158  0.540762  -0.367603
    C   C73   0.082958  0.371575  0.541018  -0.293521
    C   C74   0.916962  0.628383  0.459279  -0.291187
    C   C75   0.916722  0.371799  0.459540  -0.364708
    C   C76   0.083198  0.628159  0.540756  -0.367742
    H   H13   0.590058  0.820422  0.563124  0.173189
    H   H14   0.409862  0.179536  0.437172  0.172540
    H   H15   0.409320  0.820728  0.437607  0.156989
    H   H16   0.590600  0.179230  0.562690  0.157406
    H   H17   0.090057  0.320425  0.563132  0.173198
    H   H18   0.909863  0.679533  0.437164  0.172525
    H   H19   0.909318  0.320726  0.437614  0.156967
    H   H20   0.090602  0.679232  0.562682  0.157415
    C   C77   0.149859  0.837704  0.940191  -0.103806
    C   C78   0.850064  0.162253  0.060105  -0.104301
    C   C79   0.856184  0.829141  0.052684  -0.214005
    C   C80   0.143738  0.170814  0.947614  -0.214174
    C   C81   0.649859  0.337703  0.940192  -0.103897
    C   C82   0.350064  0.662254  0.060104  -0.104287
    C   C83   0.356184  0.329142  0.052684  -0.214033
    C   C84   0.643738  0.670814  0.947613  -0.214125
    H   H21   0.139051  0.860370  0.005971  0.128532
    H   H22   0.860872  0.139586  0.994324  0.128842
    H   H23   0.870943  0.845109  0.983025  0.133673
    H   H24   0.128980  0.154845  0.017271  0.133520
    H   H25   0.639051  0.360370  0.005972  0.128493
    H   H26   0.360872  0.639587  0.994324  0.128837
    H   H27   0.370943  0.345109  0.983026  0.133678
    H   H28   0.628980  0.654845  0.017271  0.133481
    C   C85   0.121452  0.856393  0.894498  -0.072540
    C   C86   0.878469  0.143564  0.105799  -0.072152
    C   C87   0.882497  0.850353  0.101106  -0.024005
    C   C88   0.117424  0.149603  0.899193  -0.024083
    C   C89   0.621452  0.356392  0.894499  -0.072376
    C   C90   0.378470  0.643565  0.105798  -0.072193
    C   C91   0.382497  0.350354  0.101107  -0.023935
    C   C92   0.617424  0.649602  0.899192  -0.024029
    C   C93   0.138356  0.831429  0.807798  -0.104201
    C   C94   0.861565  0.168529  0.192499  -0.104242
    C   C95   0.862262  0.830129  0.190569  -0.113850
    C   C96   0.137658  0.169828  0.809730  -0.114611
    C   C97   0.638356  0.331428  0.807799  -0.104485
    C   C98   0.361566  0.668530  0.192498  -0.104208
    C   C99   0.362261  0.330130  0.190570  -0.113886
    C   C100  0.637659  0.669827  0.809729  -0.114475
    H   H29   0.118449  0.849201  0.769728  0.120928
    H   H30   0.881472  0.150756  0.230570  0.120736
    H   H31   0.882409  0.846714  0.228718  0.131993
    H   H32   0.117510  0.153244  0.771582  0.132278
    H   H33   0.618448  0.349200  0.769729  0.120981
    H   H34   0.381472  0.650757  0.230569  0.120730
    H   H35   0.382409  0.346715  0.228719  0.132000
    H   H36   0.617511  0.653243  0.771581  0.132198
    C   C101  0.181427  0.785228  0.768505  -0.031112
    C   C102  0.818494  0.214730  0.231791  -0.031142
    C   C103  0.815662  0.790402  0.232543  -0.024420
    C   C104  0.184258  0.209555  0.767756  -0.023079
    C   C105  0.681427  0.285227  0.768506  -0.030744
    C   C106  0.318495  0.714731  0.231790  -0.031205
    C   C107  0.315661  0.290403  0.232543  -0.024436
    C   C108  0.684258  0.709554  0.767755  -0.023051
    C   C109  0.205589  0.759911  0.818414  -0.147634
    C   C110  0.794333  0.240046  0.181881  -0.148203
    C   C111  0.788957  0.770772  0.184379  -0.201755
    C   C112  0.210963  0.229186  0.815919  -0.203171
    C   C113  0.705589  0.259910  0.818415  -0.147926
    C   C114  0.294334  0.740048  0.181880  -0.148124
    C   C115  0.288957  0.270773  0.184379  -0.201733
    C   C116  0.710963  0.729185  0.815918  -0.203147
    H   H37   0.238434  0.722068  0.789155  0.104147
    H   H38   0.761488  0.277889  0.211139  0.104287
    H   H39   0.751777  0.741151  0.216570  0.130063
    H   H40   0.248143  0.258807  0.783729  0.130130
    H   H41   0.738433  0.222067  0.789157  0.104213
    H   H42   0.261489  0.777890  0.211138  0.104269
    H   H43   0.251777  0.241152  0.216571  0.130059
    H   H44   0.748144  0.758806  0.783727  0.130126
    C   C117  0.191742  0.788487  0.902971  0.202698
    C   C118  0.808181  0.211471  0.097323  0.202921
    C   C119  0.809016  0.789986  0.094486  0.347613
    C   C120  0.190906  0.209971  0.905811  0.348692
    C   C121  0.691741  0.288486  0.902973  0.202861
    C   C122  0.308182  0.711472  0.097322  0.202909
    C   C123  0.309015  0.289986  0.094487  0.347606
    C   C124  0.690906  0.709970  0.905811  0.348657
    C   C125  0.304385  0.817122  0.832370  -0.101757
    C   C126  0.695539  0.182834  0.167923  -0.100582
    C   C127  0.809107  0.646420  0.035221  -0.136515
    C   C128  0.190817  0.353538  0.965072  -0.139096
    C   C129  0.804384  0.317121  0.832371  -0.101753
    C   C130  0.195539  0.682834  0.167921  -0.100494
    C   C131  0.309106  0.146420  0.035222  -0.136506
    C   C132  0.690818  0.853538  0.965072  -0.139112
    C   C133  0.358084  0.831757  0.796003  -0.240439
    C   C134  0.641840  0.168197  0.204288  -0.241782
    C   C135  0.808874  0.575723  0.010616  -0.184213
    C   C136  0.191054  0.424236  0.989671  -0.181759
    C   C137  0.858084  0.331756  0.796004  -0.240466
    C   C138  0.141840  0.668198  0.204287  -0.241918
    C   C139  0.308873  0.075723  0.010617  -0.184186
    C   C140  0.691054  0.924236  0.989670  -0.181721
    C   C141  0.384973  0.816451  0.844333  -0.000953
    C   C142  0.614951  0.183502  0.155957  -0.000464
    C   C143  0.779692  0.556059  0.967409  -0.022616
    C   C144  0.220238  0.443901  0.032875  -0.022971
    C   C145  0.884973  0.316450  0.844335  -0.000921
    C   C146  0.114951  0.683503  0.155956  -0.000178
    C   C147  0.279692  0.056059  0.967409  -0.022571
    C   C148  0.720238  0.943900  0.032874  -0.023047
    C   C149  0.358015  0.784882  0.927994  -0.142377
    C   C150  0.641909  0.215072  0.072297  -0.142052
    C   C151  0.751189  0.607208  0.948264  -0.223045
    C   C152  0.248738  0.392751  0.052024  -0.222878
    C   C153  0.858014  0.284882  0.927995  -0.142376
    C   C154  0.141910  0.715072  0.072296  -0.142351
    C   C155  0.251189  0.107208  0.948265  -0.223249
    C   C156  0.748738  0.892750  0.052024  -0.222830
    C   C157  0.304332  0.765371  0.963620  0.060688
    C   C158  0.695592  0.234585  0.036673  0.062151
    C   C159  0.749926  0.678641  0.974614  0.201308
    C   C160  0.249997  0.321316  0.025680  0.199979
    C   C161  0.804331  0.265370  0.963621  0.060630
    C   C162  0.195592  0.734586  0.036671  0.062122
    C   C163  0.249926  0.178642  0.974615  0.201252
    C   C164  0.749997  0.821316  0.025679  0.199877
    C   C165  0.276739  0.782612  0.915612  0.120666
    C   C166  0.723184  0.217344  0.084681  0.119287
    C   C167  0.779178  0.698422  0.018804  0.132384
    C   C168  0.220745  0.301535  0.981491  0.134664
    C   C169  0.776739  0.282611  0.915613  0.120709
    C   C170  0.223184  0.717345  0.084680  0.119375
    C   C171  0.279178  0.198422  0.018805  0.132450
    C   C172  0.720745  0.801535  0.981490  0.134812
    C   C173  0.277957  0.732086  0.048093  -0.144810
    C   C174  0.721966  0.267871  0.952200  -0.146083
    C   C175  0.720559  0.730117  0.955646  -0.302949
    C   C176  0.279363  0.269840  0.044651  -0.302022
    C   C177  0.777956  0.232085  0.048094  -0.144719
    C   C178  0.221967  0.767871  0.952199  -0.145997
    C   C179  0.220558  0.230118  0.955647  -0.302803
    C   C180  0.779364  0.769839  0.044650  -0.301964
    H   H45   0.285276  0.835990  0.793749  0.130788
    H   H46   0.714648  0.163966  0.206544  0.130551
    H   H47   0.833786  0.658858  0.066819  0.112729
    H   H48   0.166138  0.341100  0.933476  0.113320
    H   H49   0.785275  0.335989  0.793750  0.130794
    H   H50   0.214648  0.663967  0.206543  0.130514
    H   H51   0.333785  0.158858  0.066820  0.112717
    H   H52   0.666138  0.841100  0.933475  0.113293
    H   H53   0.377649  0.858199  0.731037  0.164557
    H   H54   0.622275  0.141753  0.269254  0.164781
    H   H55   0.832485  0.536958  0.025014  0.142425
    H   H56   0.167445  0.463002  0.975269  0.141767
    H   H57   0.877648  0.358199  0.731038  0.164559
    H   H58   0.122276  0.641754  0.269252  0.164799
    H   H59   0.332484  0.036958  0.025015  0.142410
    H   H60   0.667445  0.963002  0.975269  0.141766
    H   H61   0.380421  0.778066  0.964768  0.109116
    H   H62   0.619503  0.221887  0.035523  0.108764
    H   H63   0.730273  0.589068  0.912088  0.130831
    H   H64   0.269655  0.410891  0.088199  0.130891
    H   H65   0.880421  0.278066  0.964769  0.109104
    H   H66   0.119504  0.721887  0.035521  0.108847
    H   H67   0.230273  0.089069  0.912088  0.130929
    H   H68   0.769655  0.910890  0.088198  0.130883
    O   O33   0.056157  0.930792  0.882112  -0.557928
    O   O34   0.943764  0.069163  0.118186  -0.557594
    O   O35   0.946875  0.925858  0.115063  -0.540820
    O   O36   0.053047  0.074097  0.885235  -0.540923
    O   O37   0.556157  0.430792  0.882113  -0.557920
    O   O38   0.443764  0.569164  0.118186  -0.557613
    O   O39   0.446874  0.425859  0.115064  -0.540807
    O   O40   0.553047  0.574097  0.885235  -0.540865
    Cu  Cu9   0.497557  0.500185  0.922356  0.943887
    Cu  Cu10  0.502364  0.499771  0.077943  0.943974
    Cu  Cu11  0.997557  0.000185  0.922356  0.943873
    Cu  Cu12  0.002364  0.999771  0.077943  0.943984
    C   C181  0.928315  0.900187  0.061952  0.644666
    C   C182  0.071606  0.099769  0.938346  0.644846
    C   C183  0.075852  0.906323  0.934109  0.668652
    C   C184  0.924069  0.093633  0.066190  0.668345
    C   C185  0.428315  0.400187  0.061953  0.644587
    C   C186  0.571606  0.599769  0.938346  0.644669
    C   C187  0.575852  0.406322  0.934109  0.668614
    C   C188  0.424069  0.593634  0.066189  0.668369
    O   O41   0.945848  0.922002  0.978259  -0.582699
    O   O42   0.054073  0.077954  0.022040  -0.582809
    O   O43   0.057387  0.925990  0.018740  -0.589948
    O   O44   0.942534  0.073966  0.981558  -0.589920
    O   O45   0.445848  0.422002  0.978259  -0.582680
    O   O46   0.554073  0.577954  0.022040  -0.582757
    O   O47   0.557387  0.425990  0.018741  -0.589939
    O   O48   0.442534  0.573966  0.981558  -0.589911
    C   C189  0.442438  0.835984  0.809792  0.677223
    F   F1    0.462146  0.869818  0.726896  -0.214288
    F   F2    0.471725  0.773902  0.801068  -0.250614
    F   F3    0.447478  0.882270  0.870272  -0.239312
    C   C190  0.557486  0.163967  0.190497  0.677016
    F   F4    0.537777  0.130139  0.273396  -0.214095
    F   F5    0.552448  0.117677  0.130020  -0.239286
    F   F6    0.528200  0.226049  0.199214  -0.250645
    C   C191  0.779248  0.480292  0.938467  0.688260
    F   F7    0.809127  0.436716  0.964807  -0.206105
    F   F8    0.800526  0.478774  0.845586  -0.244980
    F   F9    0.727246  0.455177  0.977348  -0.249532
    C   C192  0.220688  0.519669  0.061805  0.686223
    F   F10   0.272692  0.544778  0.022914  -0.249089
    F   F11   0.199415  0.521194  0.154685  -0.244455
    F   F12   0.190808  0.563246  0.035467  -0.205633
    C   C193  0.942438  0.335985  0.809794  0.677223
    F   F13   0.962145  0.369819  0.726899  -0.214278
    F   F14   0.971725  0.273902  0.801069  -0.250622
    F   F15   0.947477  0.382269  0.870274  -0.239296
    C   C194  0.057487  0.663967  0.190495  0.676886
    F   F16   0.037778  0.630137  0.273393  -0.214069
    F   F17   0.052449  0.617678  0.130017  -0.239266
    F   F18   0.028200  0.726049  0.199213  -0.250626
    C   C195  0.279248  0.980293  0.938467  0.688290
    F   F19   0.309128  0.936716  0.964807  -0.206115
    F   F20   0.300526  0.978775  0.845586  -0.244975
    F   F21   0.227246  0.955177  0.977348  -0.249545
    C   C196  0.720688  0.019668  0.061805  0.686271
    F   F22   0.772692  0.044778  0.022914  -0.249096
    F   F23   0.699415  0.021193  0.154685  -0.244458
    F   F24   0.690808  0.063246  0.035468  -0.205644
