data_DB0-m2_o11_o29_f0_pcu.sym.30_repeat
_audit_creation_date              2024-02-23
_audit_creation_method            'Materials Studio'
_symmetry_space_group_name_H-M    'P1'
_symmetry_Int_Tables_number       1
_symmetry_cell_setting            triclinic
loop_
_symmetry_equiv_pos_as_xyz
  x,y,z
_cell_length_a                    27.5448
_cell_length_b                    11.0252
_cell_length_c                    9.5254
_cell_angle_alpha                 90.0206
_cell_angle_beta                  90.0156
_cell_angle_gamma                 89.9936
loop_
_atom_site_label
_atom_site_type_symbol
_atom_site_fract_x
_atom_site_fract_y
_atom_site_fract_z
_atom_site_U_iso_or_equiv
_atom_site_adp_type
_atom_site_occupancy
O1     O     0.50278   0.33025   0.61259   0.00000  Uiso   1.00
O2     O     0.50018   0.32880   0.37086   0.00000  Uiso   1.00
C1     C     0.50186   0.27292   0.49234   0.00000  Uiso   1.00
O3     O     0.42810   0.50433   0.60662   0.00000  Uiso   1.00
O4     O     0.42982   0.49693   0.36422   0.00000  Uiso   1.00
C2     C     0.40618   0.49943   0.48404   0.00000  Uiso   1.00
Cu1    Cu    0.49824   0.50549   0.63087   0.00000  Uiso   1.00
Cu2    Cu    0.50060   0.50541   0.35019   0.00000  Uiso   1.00
O5     O     0.49775   0.68235   0.60962   0.00000  Uiso   1.00
O6     O     0.49681   0.68136   0.36861   0.00000  Uiso   1.00
O7     O     0.56906   0.51696   0.61545   0.00000  Uiso   1.00
O8     O     0.57085   0.50537   0.37563   0.00000  Uiso   1.00
C3     C     0.49650   0.73866   0.48908   0.00000  Uiso   1.00
C4     C     0.59274   0.51512   0.49683   0.00000  Uiso   1.00
C5     C     0.17573   0.39270   0.52159   0.00000  Uiso   1.00
O9     O     0.20034   0.29257   0.55911   0.00000  Uiso   1.00
N1     N     0.20030   0.49207   0.48029   0.00000  Uiso   1.00
C6     C     0.17631   0.59271   0.44034   0.00000  Uiso   1.00
C7     C     0.27736   0.50889   0.35650   0.00000  Uiso   1.00
C8     C     0.32749   0.51019   0.35692   0.00000  Uiso   1.00
C9     C     0.32726   0.47835   0.60483   0.00000  Uiso   1.00
C10    C     0.27724   0.47520   0.60386   0.00000  Uiso   1.00
C11    C     0.25210   0.49140   0.48007   0.00000  Uiso   1.00
C12    C     0.10021   0.49450   0.48239   0.00000  Uiso   1.00
C13    C     0.12546   0.39242   0.52210   0.00000  Uiso   1.00
C14    C     0.10038   0.29062   0.56281   0.00000  Uiso   1.00
C15    C     0.12608   0.59533   0.44161   0.00000  Uiso   1.00
C16    C     0.35279   0.49579   0.48138   0.00000  Uiso   1.00
H1     H     0.34596   0.46634   0.70351   0.00000  Uiso   1.00
H2     H     0.25778   0.46206   0.70127   0.00000  Uiso   1.00
H3     H     0.11915   0.20975   0.59686   0.00000  Uiso   1.00
C17    C     0.64596   0.51751   0.49912   0.00000  Uiso   1.00
C18    C     0.97348   0.39102   0.51120   0.00000  Uiso   1.00
C19    C     0.97438   0.60515   0.46015   0.00000  Uiso   1.00
C20    C     0.94888   0.49901   0.48699   0.00000  Uiso   1.00
C21    C     0.94641   0.28507   0.52670   0.00000  Uiso   1.00
C22    C     0.89655   0.28773   0.52554   0.00000  Uiso   1.00
C23    C     0.87231   0.39570   0.50894   0.00000  Uiso   1.00
C24    C     0.89837   0.50086   0.48939   0.00000  Uiso   1.00
C25    C     0.87336   0.60790   0.47214   0.00000  Uiso   1.00
C26    C     0.82315   0.60871   0.47599   0.00000  Uiso   1.00
N2     N     0.79831   0.50473   0.49536   0.00000  Uiso   1.00
C27    C     0.82207   0.39877   0.51087   0.00000  Uiso   1.00
C28    C     0.72019   0.44321   0.39991   0.00000  Uiso   1.00
C29    C     0.67030   0.44875   0.40034   0.00000  Uiso   1.00
C30    C     0.67243   0.58341   0.59786   0.00000  Uiso   1.00
C31    C     0.72256   0.57595   0.59734   0.00000  Uiso   1.00
C32    C     0.74651   0.50695   0.49837   0.00000  Uiso   1.00
O10    O     0.79670   0.29626   0.53148   0.00000  Uiso   1.00
C33    C     0.02429   0.39125   0.51826   0.00000  Uiso   1.00
C34    C     0.04970   0.49578   0.48342   0.00000  Uiso   1.00
C35    C     0.02504   0.60157   0.44936   0.00000  Uiso   1.00
C36    C     0.05055   0.28966   0.56085   0.00000  Uiso   1.00
H4     H     0.65028   0.39675   0.32362   0.00000  Uiso   1.00
H5     H     0.73854   0.38984   0.32091   0.00000  Uiso   1.00
H6     H     0.87710   0.20338   0.53822   0.00000  Uiso   1.00
H7     H     0.96237   0.19644   0.53551   0.00000  Uiso   1.00
H8     H     0.03394   0.20770   0.59842   0.00000  Uiso   1.00
O11    O     0.20150   0.69172   0.40224   0.00000  Uiso   1.00
C37    C     0.10164   0.69799   0.40058   0.00000  Uiso   1.00
H9     H     0.34650   0.52431   0.25892   0.00000  Uiso   1.00
H10    H     0.25794   0.52061   0.25883   0.00000  Uiso   1.00
H11    H     0.12090   0.77758   0.36481   0.00000  Uiso   1.00
C38    C     0.94836   0.71294   0.44638   0.00000  Uiso   1.00
C39    C     0.89859   0.71395   0.45234   0.00000  Uiso   1.00
O12    O     0.79884   0.71312   0.45674   0.00000  Uiso   1.00
C40    C     0.05184   0.70124   0.40399   0.00000  Uiso   1.00
H12    H     0.96517   0.80041   0.43547   0.00000  Uiso   1.00
H13    H     0.88003   0.79977   0.44163   0.00000  Uiso   1.00
H14    H     0.74370   0.62675   0.67284   0.00000  Uiso   1.00
H15    H     0.03565   0.78331   0.36535   0.00000  Uiso   1.00
C41    C     0.49871   0.93959   0.37735   0.00000  Uiso   1.00
C42    C     0.49475   0.87150   0.49294   0.00000  Uiso   1.00
H16    H     0.50235   0.89556   0.27604   0.00000  Uiso   1.00
H17    H     0.48968   0.91163   0.59536   0.00000  Uiso   1.00
C43    C     0.49816   0.07397   0.37905   0.00000  Uiso   1.00
C44    C     0.50283   0.14025   0.49620   0.00000  Uiso   1.00
H18    H     0.49492   0.11937   0.27876   0.00000  Uiso   1.00
H19    H     0.50736   0.09904   0.59802   0.00000  Uiso   1.00
C45    C     0.48053   0.41887   0.91452   0.00000  Uiso   1.00
N3     N     0.49716   0.50798   0.84087   0.00000  Uiso   1.00
H20    H     0.46789   0.33727   0.86238   0.00000  Uiso   1.00
H21    H     0.50311   0.58826   0.89195   0.00000  Uiso   1.00
C46    C     0.47627   0.42844   0.06921   0.00000  Uiso   1.00
N4     N     0.50244   0.50299   0.14022   0.00000  Uiso   1.00
H22    H     0.45038   0.37051   0.12267   0.00000  Uiso   1.00
H23    H     0.53247   0.53814   0.09049   0.00000  Uiso   1.00
C47    C     0.64962   0.66780   0.69795   0.00000  Uiso   1.00
O13    O     0.66935   0.68838   0.81003   0.00000  Uiso   1.00
O14    O     0.60852   0.73374   0.66074   0.00000  Uiso   1.00
H24    H     0.59936   0.79105   0.73940   0.00000  Uiso   1.00
