# Generated by REPEAT Assigner based on pymatgen
data_DB0-m3_o6_o9_f0_pcu.sym.84_sqe
_audit_creation_date              2022-05-24
_audit_creation_method            REPEAT_Assigner
_cell_length_a                    10.962400
_cell_length_b                    16.134535
_cell_length_c                    14.999981
_cell_angle_alpha                 90.008341
_cell_angle_beta                  89.984200
_cell_angle_gamma                 89.987460
_cell_volume                      2653.094865
_symmetry_space_group_name_H-M    P1
_symmetry_Int_Tables_number       1
loop_
    _symmetry_equiv_pos_site_id
    _symmetry_equiv_pos_as_xyz
    1  x,y,z
loop_
    _atom_site_type_symbol
    _atom_site_label
    _atom_site_fract_x
    _atom_site_fract_y
    _atom_site_fract_z
    _atom_type_partial_charge
    O   O1   0.496336  0.376472  0.576397  -0.637918
    O   O2   0.503663  0.623528  0.423603  -0.637942
    O   O3   0.498926  0.376568  0.422410  -0.717134
    O   O4   0.501074  0.623431  0.577589  -0.717113
    C   C1   0.496846  0.338029  0.499357  0.950016
    C   C2   0.503154  0.661970  0.500643  0.949987
    O   O5   0.316927  0.501733  0.575414  -0.505267
    O   O6   0.683073  0.498266  0.424585  -0.505301
    O   O7   0.319592  0.501566  0.421594  -0.626782
    O   O8   0.680408  0.498433  0.578405  -0.626740
    C   C3   0.260971  0.502371  0.497929  0.557120
    C   C4   0.739028  0.497628  0.502071  0.557014
    Zn  Zn1  0.498285  0.499859  0.601449  1.031420
    Zn  Zn2  0.501715  0.500141  0.398550  1.031434
    H   H1   0.262642  0.814649  0.282634  0.131674
    H   H2   0.737358  0.185351  0.717365  0.131617
    C   C5   0.183914  0.774876  0.405798  -0.027817
    C   C6   0.816086  0.225123  0.594201  -0.028449
    C   C7   0.134084  0.708151  0.452761  -0.086061
    C   C8   0.865916  0.291848  0.547238  -0.085464
    C   C9   0.126259  0.630936  0.411304  0.232865
    C   C10  0.873740  0.369064  0.588696  0.232427
    C   C11  0.166898  0.621221  0.324797  -0.027128
    C   C12  0.833102  0.378778  0.675203  -0.026879
    H   H3   0.157278  0.561976  0.291865  0.065793
    H   H4   0.842721  0.438024  0.708135  0.065765
    C   C13  0.216020  0.687014  0.279153  -0.069962
    C   C14  0.783980  0.312985  0.720846  -0.070223
    H   H5   0.247199  0.678974  0.211325  0.091932
    H   H6   0.752801  0.321026  0.788675  0.091963
    C   C15  0.223758  0.763392  0.319307  -0.197360
    C   C16  0.776242  0.236607  0.680692  -0.196972
    C   C17  0.934266  0.561202  0.455785  -0.052990
    C   C18  0.065733  0.438797  0.544214  -0.052928
    C   C19  0.873248  0.499977  0.503120  -0.045791
    C   C20  0.126752  0.500022  0.496880  -0.045829
    C   C21  0.938793  0.438546  0.546890  0.041182
    C   C22  0.061207  0.561454  0.453109  0.041077
    H   H7   0.480613  0.076482  0.641180  0.120303
    H   H8   0.519387  0.923518  0.358820  0.120353
    C   C23  0.492168  0.957432  0.579510  -0.163560
    C   C24  0.507832  0.042568  0.420490  -0.163469
    H   H9   0.485734  0.924068  0.641824  0.138223
    H   H10  0.514266  0.075932  0.358175  0.138190
    C   C25  0.503310  0.914553  0.500388  0.255454
    C   C26  0.496690  0.085447  0.499611  0.255376
    C   C27  0.511044  0.957126  0.420873  -0.169618
    C   C28  0.488956  0.042874  0.579126  -0.169524
    C   C29  0.504533  0.825601  0.500637  -0.076930
    C   C30  0.495466  0.174399  0.499363  -0.076851
    C   C31  0.495665  0.249088  0.499292  -0.267861
    C   C32  0.504335  0.750912  0.500707  -0.267812
    H   H11  0.453073  0.375760  0.087586  0.179106
    H   H12  0.546927  0.624239  0.912413  0.179111
    C   C33  0.470434  0.426256  0.956698  -0.069880
    C   C34  0.529566  0.573744  0.043301  -0.069902
    C   C35  0.497139  0.497132  0.907726  0.311470
    C   C36  0.502861  0.502867  0.092273  0.311501
    C   C37  0.526264  0.569685  0.951404  -0.280562
    C   C38  0.473736  0.430315  0.048595  -0.280565
    C   C39  0.496472  0.498256  0.811913  0.082947
    C   C40  0.503527  0.501743  0.188087  0.082902
    N   N1   0.503649  0.500695  0.265226  -0.110670
    N   N2   0.496351  0.499305  0.734774  -0.110713
    C   C41  0.438398  0.346000  0.915836  0.441878
    H   H13  0.419170  0.293557  0.958755  0.013672
    O   O9   0.432618  0.336637  0.835317  -0.378305
    C   C42  0.561602  0.654000  0.084163  0.441911
    H   H14  0.580830  0.706442  0.041245  0.013667
    O   O10  0.567382  0.663363  0.164682  -0.378330
    C   C43  0.198979  0.858482  0.443930  0.379805
    H   H15  0.216716  0.910048  0.399464  -0.008843
    O   O11  0.202493  0.870326  0.524153  -0.398203
    C   C44  0.801021  0.141517  0.556069  0.380018
    H   H16  0.783284  0.089952  0.600535  -0.008865
    O   O12  0.797506  0.129673  0.475847  -0.398279
    C   C45  0.082204  0.719632  0.542658  0.443483
    H   H17  0.032934  0.775846  0.558991  -0.011872
    O   O13  0.095728  0.667131  0.600290  -0.464689
    C   C46  0.917795  0.280367  0.457342  0.443602
    H   H18  0.967066  0.224154  0.441008  -0.011939
    O   O14  0.904272  0.332868  0.399710  -0.464745
    C   C47  0.863310  0.627867  0.412640  0.387931
    H   H19  0.779437  0.649840  0.442728  -0.006385
    O   O15  0.893971  0.656458  0.340803  -0.454594
    C   C48  0.136690  0.372132  0.587359  0.387750
    H   H20  0.220562  0.350158  0.557273  -0.006399
    O   O16  0.106029  0.343541  0.659197  -0.454528
