# Generated by REPEAT Assigner based on pymatgen
data_DB0-m2_o10_o21_f0_pcu.sym.22
_audit_creation_date              2022-05-24
_audit_creation_method            REPEAT_Assigner
_cell_length_a                    14.005649
_cell_length_b                    8.761357
_cell_length_c                    7.317500
_cell_angle_alpha                 104.143754
_cell_angle_beta                  91.651085
_cell_angle_gamma                 90.599181
_cell_volume                      870.196257
_symmetry_space_group_name_H-M    P1
_symmetry_Int_Tables_number       1
loop_
    _symmetry_equiv_pos_site_id
    _symmetry_equiv_pos_as_xyz
    1  x,y,z
loop_
    _atom_site_type_symbol
    _atom_site_label
    _atom_site_fract_x
    _atom_site_fract_y
    _atom_site_fract_z
    _atom_type_partial_charge
    O   O1   0.504044  0.287092  0.622962  -0.314519
    O   O2   0.491031  0.713486  0.379198  -0.295150
    O   O3   0.485887  0.258690  0.303104  -0.492561
    O   O4   0.509780  0.741922  0.699332  -0.476232
    C   C1   0.496575  0.200214  0.450786  0.410873
    C   C2   0.503886  0.800201  0.550644  0.395068
    O   O5   0.372105  0.511868  0.682302  -0.609744
    O   O6   0.629357  0.488883  0.319250  -0.609657
    O   O7   0.353457  0.494508  0.363922  -0.678410
    O   O8   0.647915  0.505354  0.636893  -0.663002
    C   C3   0.318563  0.503921  0.530464  0.914394
    C   C4   0.682877  0.496116  0.470787  0.882466
    Cu  Cu1  0.511679  0.516996  0.686707  0.754861
    Cu  Cu2  0.489702  0.482806  0.314307  0.731129
    C   C5   0.784731  0.495029  0.454486  -0.317161
    C   C6   0.216594  0.504379  0.547075  -0.319952
    C   C7   0.972325  0.495657  0.424697  -0.072201
    C   C8   0.028745  0.504040  0.576163  -0.067692
    C   C9   0.131032  0.504347  0.560491  0.036001
    C   C10  0.870324  0.494959  0.440985  0.035856
    H   H1   0.997443  0.509984  0.711442  0.152572
    H   H2   0.003033  0.489871  0.288940  0.154006
    C   C11  0.492861  0.030186  0.426120  0.024000
    C   C12  0.506375  0.970414  0.575364  -0.020441
    N   N1   0.473682  0.459854  0.036486  0.068954
    N   N2   0.527599  0.540691  0.964704  0.037225
    N   N3   0.472954  0.928535  0.244276  -0.324298
    H   H3   0.465485  0.998740  0.148380  0.181963
    H   H4   0.407076  0.873140  0.249647  0.197750
    N   N4   0.525137  0.071878  0.757558  -0.331801
    H   H5   0.535009  0.000486  0.851570  0.212580
    H   H6   0.589656  0.131479  0.752748  0.188664
    N   N5   0.450980  0.313148  0.918373  -0.254344
    H   H7   0.455839  0.230435  0.999261  0.169954
    H   H8   0.379658  0.316052  0.873762  0.195201
    N   N6   0.549758  0.687227  0.081696  -0.285592
    H   H9   0.571477  0.759500  0.995765  0.177647
    H   H10  0.608470  0.673662  0.167086  0.211591
