data_DB0-m3_o11_o28_f0_pcu.sym.94_repeat
_audit_creation_date              2024-02-23
_audit_creation_method            'Materials Studio'
_symmetry_space_group_name_H-M    'P1'
_symmetry_Int_Tables_number       1
_symmetry_cell_setting            triclinic
loop_
_symmetry_equiv_pos_as_xyz
  x,y,z
_cell_length_a                    23.4425
_cell_length_b                    11.1250
_cell_length_c                    10.0502
_cell_angle_alpha                 89.9974
_cell_angle_beta                  89.9817
_cell_angle_gamma                 90.0113
loop_
_atom_site_label
_atom_site_type_symbol
_atom_site_fract_x
_atom_site_fract_y
_atom_site_fract_z
_atom_site_U_iso_or_equiv
_atom_site_adp_type
_atom_site_occupancy
O1     O     0.49597   0.32404   0.61032   0.00000  Uiso   1.00
O2     O     0.49710   0.32381   0.37880   0.00000  Uiso   1.00
C1     C     0.49577   0.26822   0.49480   0.00000  Uiso   1.00
O3     O     0.41441   0.50807   0.60679   0.00000  Uiso   1.00
O4     O     0.41494   0.50708   0.37548   0.00000  Uiso   1.00
C2     C     0.38811   0.50926   0.49080   0.00000  Uiso   1.00
Zn1    Zn    0.49930   0.50331   0.64456   0.00000  Uiso   1.00
Zn2    Zn    0.50008   0.50273   0.34098   0.00000  Uiso   1.00
O5     O     0.50200   0.68175   0.60504   0.00000  Uiso   1.00
O6     O     0.50095   0.68210   0.37700   0.00000  Uiso   1.00
O7     O     0.58425   0.49390   0.60834   0.00000  Uiso   1.00
O8     O     0.58483   0.49757   0.38031   0.00000  Uiso   1.00
C3     C     0.50205   0.73828   0.49135   0.00000  Uiso   1.00
C4     C     0.61129   0.49258   0.49457   0.00000  Uiso   1.00
C5     C     0.87950   0.59142   0.53679   0.00000  Uiso   1.00
N1     N     0.85272   0.49433   0.48807   0.00000  Uiso   1.00
C6     C     0.88126   0.39959   0.43903   0.00000  Uiso   1.00
C7     C     0.94098   0.39843   0.43837   0.00000  Uiso   1.00
C8     C     0.96957   0.49905   0.48817   0.00000  Uiso   1.00
C9     C     0.93905   0.59694   0.53835   0.00000  Uiso   1.00
C10    C     0.97294   0.30040   0.38970   0.00000  Uiso   1.00
C11    C     0.03196   0.30703   0.39036   0.00000  Uiso   1.00
C12    C     0.05971   0.40669   0.43887   0.00000  Uiso   1.00
C13    C     0.02877   0.50183   0.48795   0.00000  Uiso   1.00
C14    C     0.05778   0.59982   0.53678   0.00000  Uiso   1.00
C15    C     0.02799   0.69631   0.58616   0.00000  Uiso   1.00
C16    C     0.96919   0.69677   0.58820   0.00000  Uiso   1.00
C17    C     0.11883   0.41071   0.43933   0.00000  Uiso   1.00
N2     N     0.14637   0.50744   0.48775   0.00000  Uiso   1.00
C18    C     0.11686   0.60147   0.53622   0.00000  Uiso   1.00
O9     O     0.84706   0.68068   0.58495   0.00000  Uiso   1.00
O10    O     0.85033   0.30890   0.38864   0.00000  Uiso   1.00
H1     H     0.05746   0.23410   0.35270   0.00000  Uiso   1.00
O11    O     0.14923   0.31668   0.39435   0.00000  Uiso   1.00
O12    O     0.14518   0.69817   0.58163   0.00000  Uiso   1.00
H2     H     0.05092   0.77273   0.62510   0.00000  Uiso   1.00
C19    C     0.23719   0.50335   0.37037   0.00000  Uiso   1.00
H3     H     0.21465   0.49828   0.27671   0.00000  Uiso   1.00
C20    C     0.29601   0.50425   0.37094   0.00000  Uiso   1.00
H4     H     0.31834   0.49882   0.27708   0.00000  Uiso   1.00
C21    C     0.32551   0.51092   0.48994   0.00000  Uiso   1.00
C22    C     0.29540   0.51778   0.60812   0.00000  Uiso   1.00
H5     H     0.31726   0.52302   0.70257   0.00000  Uiso   1.00
C23    C     0.23657   0.51761   0.60716   0.00000  Uiso   1.00
H6     H     0.21354   0.52166   0.70027   0.00000  Uiso   1.00
C24    C     0.20724   0.50985   0.48840   0.00000  Uiso   1.00
C25    C     0.76343   0.40990   0.56836   0.00000  Uiso   1.00
H7     H     0.78866   0.34976   0.62877   0.00000  Uiso   1.00
C26    C     0.70425   0.40716   0.57109   0.00000  Uiso   1.00
C27    C     0.67381   0.48889   0.49406   0.00000  Uiso   1.00
C28    C     0.70267   0.56772   0.41198   0.00000  Uiso   1.00
H8     H     0.67922   0.63045   0.35076   0.00000  Uiso   1.00
C29    C     0.76136   0.56970   0.40994   0.00000  Uiso   1.00
H9     H     0.78340   0.63276   0.34620   0.00000  Uiso   1.00
C30    C     0.79188   0.49154   0.48892   0.00000  Uiso   1.00
C31    C     0.49408   0.93715   0.38732   0.00000  Uiso   1.00
C32    C     0.50351   0.86998   0.49555   0.00000  Uiso   1.00
H10    H     0.48569   0.89334   0.29333   0.00000  Uiso   1.00
H11    H     0.51266   0.90996   0.59110   0.00000  Uiso   1.00
C33    C     0.49535   0.07016   0.38742   0.00000  Uiso   1.00
C34    C     0.49382   0.13659   0.49840   0.00000  Uiso   1.00
H12    H     0.49642   0.11449   0.29146   0.00000  Uiso   1.00
H13    H     0.49043   0.09599   0.59568   0.00000  Uiso   1.00
C35    C     0.53578   0.56750   0.91733   0.00000  Uiso   1.00
N3     N     0.49976   0.50767   0.84419   0.00000  Uiso   1.00
H14    H     0.46600   0.46817   0.89204   0.00000  Uiso   1.00
C36    C     0.53296   0.57424   0.06763   0.00000  Uiso   1.00
N4     N     0.50205   0.50330   0.14133   0.00000  Uiso   1.00
H15    H     0.48089   0.43499   0.09390   0.00000  Uiso   1.00
C37    C     0.94571   0.18681   0.33747   0.00000  Uiso   1.00
O13    O     0.98628   0.10154   0.30045   0.00000  Uiso   1.00
H16    H     0.91991   0.20818   0.24804   0.00000  Uiso   1.00
H17    H     0.91864   0.14594   0.41592   0.00000  Uiso   1.00
H18    H     0.97525   0.07783   0.20906   0.00000  Uiso   1.00
C38    C     0.67352   0.31285   0.65022   0.00000  Uiso   1.00
O14    O     0.71149   0.22725   0.69935   0.00000  Uiso   1.00
H19    H     0.64221   0.26642   0.58538   0.00000  Uiso   1.00
H20    H     0.65082   0.35444   0.73505   0.00000  Uiso   1.00
H21    H     0.69989   0.15131   0.65573   0.00000  Uiso   1.00
C39    C     0.58295   0.63876   0.85200   0.00000  Uiso   1.00
O15    O     0.63527   0.58137   0.87077   0.00000  Uiso   1.00
H22    H     0.58517   0.73206   0.88924   0.00000  Uiso   1.00
H23    H     0.57627   0.65225   0.74661   0.00000  Uiso   1.00
H24    H     0.62533   0.50012   0.90348   0.00000  Uiso   1.00
C40    C     0.57014   0.66833   0.13205   0.00000  Uiso   1.00
O16    O     0.54740   0.78239   0.10952   0.00000  Uiso   1.00
H25    H     0.61460   0.66427   0.09561   0.00000  Uiso   1.00
H26    H     0.57524   0.65552   0.23803   0.00000  Uiso   1.00
H27    H     0.50632   0.76816   0.09288   0.00000  Uiso   1.00
C41    C     0.94189   0.80719   0.64600   0.00000  Uiso   1.00
O17    O     0.91497   0.77913   0.76590   0.00000  Uiso   1.00
H28    H     0.91151   0.84851   0.57494   0.00000  Uiso   1.00
H29    H     0.97445   0.87692   0.66646   0.00000  Uiso   1.00
H30    H     0.94232   0.80498   0.83528   0.00000  Uiso   1.00
