# Generated by REPEAT Assigner based on pymatgen
data_DB0-m3_o1520_o13_f0_fsc.sym.22
_audit_creation_date              2022-05-24
_audit_creation_method            REPEAT_Assigner
_cell_length_a                    8.548489
_cell_length_b                    11.290073
_cell_length_c                    13.060738
_cell_angle_alpha                 95.050483
_cell_angle_beta                  84.683146
_cell_angle_gamma                 90.068566
_cell_volume                      1250.204792
_symmetry_space_group_name_H-M    P1
_symmetry_Int_Tables_number       1
loop_
    _symmetry_equiv_pos_site_id
    _symmetry_equiv_pos_as_xyz
    1  x,y,z
loop_
    _atom_site_type_symbol
    _atom_site_label
    _atom_site_fract_x
    _atom_site_fract_y
    _atom_site_fract_z
    _atom_type_partial_charge
    C   C1   0.111726  0.988242  0.703854  -0.318228
    C   C2   0.888277  0.011636  0.296130  -0.318249
    C   C3   0.980078  0.972797  0.651880  -0.032614
    C   C4   0.019925  0.027077  0.348104  -0.031952
    C   C5   0.833201  0.987007  0.702402  -0.095590
    C   C6   0.166802  0.012871  0.297582  -0.096221
    C   C7   0.816914  0.997992  0.808748  -0.172881
    C   C8   0.183089  0.001891  0.191236  -0.172248
    C   C9   0.948447  0.995421  0.864686  0.050842
    C   C10  0.051556  0.004463  0.135298  0.050959
    C   C11  0.096904  0.999328  0.811536  0.279988
    C   C12  0.903099  0.000555  0.188448  0.279580
    C   C13  0.934079  0.993401  0.972648  0.046670
    C   C14  0.065924  0.006486  0.027336  0.045719
    C   C15  0.209676  0.024891  0.973025  -0.036704
    C   C16  0.790326  0.974996  0.026959  -0.037469
    C   C17  0.226296  0.016515  0.867179  -0.405018
    C   C18  0.773706  0.983370  0.132805  -0.404216
    H   H1   0.992785  0.957460  0.569389  0.085234
    H   H2   0.007218  0.042409  0.430595  0.085061
    H   H3   0.700413  0.010972  0.845265  0.136615
    H   H4   0.299590  0.988915  0.154719  0.136564
    H   H5   0.685284  0.954033  0.990131  0.128090
    H   H6   0.314719  0.045855  0.009853  0.127795
    O   O1   0.682831  0.105899  0.409451  -0.774393
    O   O2   0.317173  0.893979  0.590532  -0.774363
    O   O3   0.680470  0.901662  0.378148  -0.802889
    O   O4   0.319533  0.098215  0.621836  -0.803639
    C   C19  0.739445  0.006386  0.360890  1.050951
    C   C20  0.260558  0.993491  0.639094  1.051615
    O   O5   0.655407  0.893490  0.590959  -0.722624
    O   O6   0.344597  0.106387  0.409025  -0.722240
    O   O7   0.646464  0.097654  0.622241  -0.764145
    O   O8   0.353539  0.902223  0.377742  -0.763660
    C   C21  0.699279  0.992642  0.639978  0.965873
    C   C22  0.300724  0.007235  0.360006  0.965162
    Zn  Zn1  0.501689  0.867751  0.483155  1.027360
    Zn  Zn2  0.498314  0.132127  0.516829  1.028698
    N   N1   0.496558  0.287842  0.533276  0.312381
    N   N2   0.503446  0.712035  0.466708  0.313297
    C   C23  0.507010  0.529019  0.363848  -0.039989
    C   C24  0.492992  0.470858  0.636135  -0.040747
    C   C25  0.512423  0.651717  0.373006  -0.238561
    C   C26  0.487579  0.348160  0.626978  -0.237544
    C   C27  0.493458  0.654745  0.553189  -0.343724
    C   C28  0.506546  0.345133  0.446795  -0.343446
    C   C29  0.497653  0.531756  0.547750  0.200215
    C   C30  0.502350  0.468121  0.452234  0.199461
    H   H7   0.521262  0.292565  0.373673  0.246070
    H   H8   0.478742  0.707312  0.626311  0.246134
    H   H9   0.483344  0.299652  0.694908  0.268068
    H   H10  0.516658  0.700225  0.305076  0.268366
    N   N3   0.620557  0.971553  0.182632  0.799990
    O   O9   0.545974  0.066715  0.224250  -0.382182
    O   O10  0.542417  0.875020  0.161423  -0.390285
    N   N4   0.379446  0.028331  0.817351  0.800449
    O   O11  0.457585  0.124865  0.838554  -0.390190
    O   O12  0.454028  0.933167  0.775735  -0.382506
    N   N5   0.501138  0.468275  0.263680  0.591823
    O   O13  0.565762  0.517009  0.183776  -0.345728
    O   O14  0.397571  0.385375  0.249684  -0.325538
    N   N6   0.498864  0.531602  0.736304  0.591940
    O   O15  0.434238  0.482868  0.816208  -0.345711
    O   O16  0.602432  0.614501  0.750301  -0.325474
