data_DB0-m3_o25_o151_f0_fsc.sym.8_repeat
_audit_creation_date              2024-02-20
_audit_creation_method            'Materials Studio'
_symmetry_space_group_name_H-M    'P1'
_symmetry_Int_Tables_number       1
_symmetry_cell_setting            triclinic
loop_
_symmetry_equiv_pos_as_xyz
  x,y,z
_cell_length_a                    14.2824
_cell_length_b                    8.5529
_cell_length_c                    19.2626
_cell_angle_alpha                 90.0000
_cell_angle_beta                  91.0429
_cell_angle_gamma                 90.0000
loop_
_atom_site_label
_atom_site_type_symbol
_atom_site_fract_x
_atom_site_fract_y
_atom_site_fract_z
_atom_site_U_iso_or_equiv
_atom_site_adp_type
_atom_site_occupancy
H1     H     0.04312   0.99947   0.54751   0.00000  Uiso   1.00
H2     H     0.95688   0.99947   0.45249   0.00000  Uiso   1.00
C1     C     0.01891   0.13928   0.63629   0.00000  Uiso   1.00
C2     C     0.98175   0.86026   0.36362   0.00000  Uiso   1.00
C3     C     0.98109   0.13928   0.36371   0.00000  Uiso   1.00
C4     C     0.01825   0.86026   0.63638   0.00000  Uiso   1.00
C5     C     0.00558   0.14021   0.70696   0.00000  Uiso   1.00
C6     C     0.99664   0.85976   0.29305   0.00000  Uiso   1.00
C7     C     0.99442   0.14021   0.29304   0.00000  Uiso   1.00
C8     C     0.00336   0.85976   0.70695   0.00000  Uiso   1.00
H3     H     0.99743   0.25013   0.73386   0.00000  Uiso   1.00
H4     H     0.00228   0.74964   0.26597   0.00000  Uiso   1.00
H5     H     0.00257   0.25013   0.26613   0.00000  Uiso   1.00
H6     H     0.99773   0.74964   0.73403   0.00000  Uiso   1.00
C9     C     0.00177   0.00013   0.74288   0.00000  Uiso   1.00
C10    C     0.99823   0.00013   0.25712   0.00000  Uiso   1.00
C11    C     0.03070   0.99965   0.60242   0.00000  Uiso   1.00
C12    C     0.96930   0.99965   0.39758   0.00000  Uiso   1.00
C13    C     0.06314   0.90669   0.07464   0.00000  Uiso   1.00
C14    C     0.06167   0.09218   0.92735   0.00000  Uiso   1.00
C15    C     0.93686   0.90669   0.92536   0.00000  Uiso   1.00
C16    C     0.93833   0.09218   0.07265   0.00000  Uiso   1.00
H7     H     0.11228   0.83409   0.04731   0.00000  Uiso   1.00
H8     H     0.11104   0.16397   0.95618   0.00000  Uiso   1.00
H9     H     0.88773   0.83409   0.95269   0.00000  Uiso   1.00
H10    H     0.88896   0.16397   0.04382   0.00000  Uiso   1.00
C17    C     0.06312   0.90674   0.14629   0.00000  Uiso   1.00
C18    C     0.06072   0.09470   0.85583   0.00000  Uiso   1.00
C19    C     0.93688   0.90674   0.85371   0.00000  Uiso   1.00
C20    C     0.93928   0.09470   0.14417   0.00000  Uiso   1.00
C21    C     0.00127   0.00129   0.18127   0.00000  Uiso   1.00
C22    C     0.99873   0.00129   0.81873   0.00000  Uiso   1.00
C23    C     0.00020   0.99837   0.03785   0.00000  Uiso   1.00
C24    C     0.99980   0.99837   0.96215   0.00000  Uiso   1.00
O1     O     0.08915   0.66918   0.56455   0.00000  Uiso   1.00
O2     O     0.91078   0.33047   0.43543   0.00000  Uiso   1.00
O3     O     0.91085   0.66918   0.43545   0.00000  Uiso   1.00
O4     O     0.08922   0.33047   0.56457   0.00000  Uiso   1.00
O5     O     0.92919   0.66290   0.57920   0.00000  Uiso   1.00
O6     O     0.07079   0.33644   0.42087   0.00000  Uiso   1.00
O7     O     0.07081   0.66290   0.42080   0.00000  Uiso   1.00
O8     O     0.92921   0.33644   0.57913   0.00000  Uiso   1.00
C25    C     0.01275   0.71816   0.59451   0.00000  Uiso   1.00
C26    C     0.98711   0.28127   0.40557   0.00000  Uiso   1.00
C27    C     0.98725   0.71816   0.40549   0.00000  Uiso   1.00
C28    C     0.01289   0.28127   0.59443   0.00000  Uiso   1.00
Zn1    Zn    0.89628   0.49977   0.50725   0.00000  Uiso   1.00
Zn2    Zn    0.10372   0.49977   0.49275   0.00000  Uiso   1.00
C29    C     0.46672   0.37176   0.53075   0.00000  Uiso   1.00
C30    C     0.53328   0.62782   0.46925   0.00000  Uiso   1.00
C31    C     0.53328   0.37176   0.46925   0.00000  Uiso   1.00
C32    C     0.46672   0.62782   0.53075   0.00000  Uiso   1.00
H11    H     0.56163   0.26852   0.44186   0.00000  Uiso   1.00
H12    H     0.43837   0.73106   0.55814   0.00000  Uiso   1.00
H13    H     0.43837   0.26852   0.55814   0.00000  Uiso   1.00
H14    H     0.56163   0.73106   0.44186   0.00000  Uiso   1.00
N1     N     0.77380   0.49979   0.51426   0.00000  Uiso   1.00
N2     N     0.22621   0.49979   0.48574   0.00000  Uiso   1.00
C33    C     0.52497   0.49979   0.56390   0.00000  Uiso   1.00
C34    C     0.47503   0.49979   0.43610   0.00000  Uiso   1.00
C35    C     0.59060   0.49979   0.50434   0.00000  Uiso   1.00
C36    C     0.40940   0.49979   0.49566   0.00000  Uiso   1.00
C37    C     0.69282   0.49979   0.51095   0.00000  Uiso   1.00
C38    C     0.30718   0.49979   0.48905   0.00000  Uiso   1.00
O9     O     0.12669   0.81742   0.18230   0.00000  Uiso   1.00
H15    H     0.18197   0.88617   0.18853   0.00000  Uiso   1.00
O10    O     0.12440   0.18441   0.82185   0.00000  Uiso   1.00
H16    H     0.17941   0.11528   0.81654   0.00000  Uiso   1.00
O11    O     0.87331   0.81742   0.81770   0.00000  Uiso   1.00
H17    H     0.81803   0.88617   0.81147   0.00000  Uiso   1.00
O12    O     0.87560   0.18441   0.17815   0.00000  Uiso   1.00
H18    H     0.82059   0.11528   0.18346   0.00000  Uiso   1.00
O13    O     0.44487   0.49979   0.36686   0.00000  Uiso   1.00
H19    H     0.50334   0.49980   0.34004   0.00000  Uiso   1.00
O14    O     0.55513   0.49979   0.63314   0.00000  Uiso   1.00
H20    H     0.49666   0.49980   0.65996   0.00000  Uiso   1.00
