# Generated by REPEAT Assigner based on pymatgen
data_DB0-m3_o14_o29_f0_pcu.sym.71
_audit_creation_date              2022-05-24
_audit_creation_method            REPEAT_Assigner
_cell_length_a                    27.656119
_cell_length_b                    11.027581
_cell_length_c                    9.816561
_cell_angle_alpha                 90.000178
_cell_angle_beta                  90.007624
_cell_angle_gamma                 89.994653
_cell_volume                      2993.855537
_symmetry_space_group_name_H-M    P1
_symmetry_Int_Tables_number       1
loop_
    _symmetry_equiv_pos_site_id
    _symmetry_equiv_pos_as_xyz
    1  x,y,z
loop_
    _atom_site_type_symbol
    _atom_site_label
    _atom_site_fract_x
    _atom_site_fract_y
    _atom_site_fract_z
    _atom_type_partial_charge
    O   O1   0.504693  0.320292  0.615623  -0.542603
    O   O2   0.505175  0.317699  0.385086  -0.525568
    C   C1   0.506784  0.259973  0.502023  0.585400
    O   O3   0.429450  0.496546  0.614464  -0.681972
    O   O4   0.429381  0.492776  0.382285  -0.699736
    C   C2   0.406590  0.492940  0.498446  0.779204
    Zn  Zn1  0.501349  0.500391  0.654021  0.985635
    Zn  Zn2  0.501424  0.498022  0.344659  1.026141
    O   O5   0.499509  0.680821  0.616469  -0.579876
    O   O6   0.498648  0.679197  0.380007  -0.662975
    O   O7   0.573496  0.508017  0.618465  -0.644931
    O   O8   0.573393  0.507146  0.382085  -0.621640
    C   C3   0.497105  0.737004  0.498082  0.762185
    C   C4   0.595994  0.509569  0.500196  0.663694
    C   C5   0.176760  0.407436  0.433324  0.441549
    O   O9   0.200791  0.317416  0.370602  -0.502482
    N   N1   0.201626  0.494426  0.499558  -0.176552
    C   C6   0.177962  0.583515  0.565792  0.449151
    C   C7   0.278361  0.495512  0.377627  -0.240699
    C   C8   0.328225  0.494853  0.377203  -0.006105
    C   C9   0.328397  0.487961  0.620326  0.000669
    C   C10  0.278537  0.488338  0.620475  -0.242535
    C   C11  0.253271  0.492493  0.499211  0.299460
    C   C12  0.101833  0.498741  0.499576  0.129775
    C   C13  0.126711  0.408711  0.432437  -0.123099
    C   C14  0.101492  0.320587  0.363747  -0.034861
    C   C15  0.127929  0.586546  0.566732  -0.138379
    C   C16  0.353550  0.491438  0.498634  -0.144755
    H   H1   0.347258  0.484806  0.716662  0.082019
    H   H2   0.259363  0.484433  0.716344  0.147899
    H   H3   0.119950  0.250099  0.307728  0.124026
    C   C17  0.649043  0.513002  0.499904  -0.028485
    C   C18  0.975282  0.408276  0.440655  0.051917
    C   C19  0.976597  0.600364  0.558159  0.049581
    C   C20  0.951005  0.505424  0.499362  0.008927
    C   C21  0.948046  0.311754  0.390348  -0.188332
    C   C22  0.898456  0.314533  0.392424  -0.024054
    C   C23  0.874524  0.412975  0.445244  -0.132408
    C   C24  0.900656  0.507635  0.499301  0.126144
    C   C25  0.875815  0.604487  0.553357  -0.117042
    C   C26  0.825761  0.605631  0.552535  0.449159
    N   N2   0.800907  0.511918  0.499232  -0.178793
    C   C27  0.824498  0.416101  0.446067  0.447311
    C   C28  0.724241  0.520157  0.620806  -0.166973
    C   C29  0.674372  0.519403  0.621239  -0.104934
    C   C30  0.674232  0.507929  0.378282  -0.078501
    C   C31  0.724087  0.507992  0.378226  -0.182520
    C   C32  0.749301  0.513810  0.499407  0.248925
    O   O10  0.799158  0.322000  0.396357  -0.482767
    C   C33  0.025911  0.409153  0.434708  0.050459
    C   C34  0.051483  0.500972  0.499514  0.011652
    C   C35  0.027186  0.595009  0.564239  0.054625
    C   C36  0.051881  0.320765  0.364241  -0.190277
    H   H4   0.655680  0.523288  0.717786  0.121918
    H   H5   0.743599  0.523529  0.716418  0.135225
    H   H6   0.878984  0.237630  0.351935  0.118261
    H   H7   0.963536  0.229548  0.351167  0.137500
    H   H8   0.035346  0.250807  0.304065  0.133184
    O   O11  0.203201  0.671550  0.628299  -0.494766
    C   C37  0.103940  0.676852  0.635354  -0.026909
    H   H9   0.346954  0.498178  0.280682  0.091708
    H   H10  0.259060  0.500293  0.281998  0.150392
    H   H11  0.123358  0.745698  0.691375  0.120151
    C   C38  0.950695  0.699193  0.608453  -0.187755
    C   C39  0.901088  0.700754  0.606279  -0.037630
    O   O12  0.801680  0.701669  0.602542  -0.497081
    C   C40  0.054357  0.681059  0.634751  -0.190901
    H   H12  0.967308  0.779961  0.647747  0.136836
    H   H13  0.655447  0.502914  0.281933  0.114162
    H   H14  0.882676  0.779278  0.646783  0.125217
    H   H15  0.743328  0.504168  0.282460  0.136630
    H   H16  0.038794  0.752465  0.694837  0.133818
    C   C41  0.498982  0.106335  0.756709  -0.063051
    H   H17  0.519315  0.186414  0.780922  0.083967
    C   C42  0.479157  0.046275  0.866011  -0.153748
    H   H18  0.481295  0.085148  0.966800  0.138708
    C   C43  0.455386  0.939024  0.846391  0.006067
    H   H19  0.437155  0.895022  0.930316  0.067028
    C   C44  0.457723  0.883758  0.721499  -0.325812
    H   H20  0.438518  0.799301  0.709641  0.160377
    C   C45  0.483127  0.936823  0.614679  0.266052
    C   C46  0.496586  0.057877  0.625534  0.029577
    C   C47  0.508400  0.123873  0.506794  -0.071959
    C   C48  0.517058  0.057834  0.387902  -0.070837
    H   H21  0.523197  0.884698  0.295922  0.100418
    C   C49  0.512573  0.933257  0.386714  -0.050592
    C   C50  0.495245  0.871236  0.498355  -0.236198
    H   H22  0.553810  0.629936  0.124976  0.147720
    C   C51  0.439939  0.339266  0.136861  -0.117686
    H   H23  0.439501  0.329322  0.244255  0.121281
    C   C52  0.408168  0.266415  0.067831  -0.106850
    H   H24  0.384476  0.205848  0.122969  0.114682
    C   C53  0.407415  0.268818  0.929215  -0.025628
    H   H25  0.383199  0.209916  0.873590  0.086740
    C   C54  0.438718  0.343262  0.860543  -0.140737
    H   H26  0.437529  0.335355  0.753049  0.135160
    C   C55  0.470109  0.421418  0.928194  0.164784
    C   C56  0.470606  0.419467  0.069703  0.198089
    N   N3   0.500662  0.493958  0.140256  -0.111444
    C   C57  0.529871  0.569569  0.070427  -0.024675
    H   H27  0.553471  0.632185  0.875424  0.133816
    C   C58  0.529571  0.571140  0.929138  0.011781
    N   N4   0.499874  0.497504  0.858350  -0.120828
    C   C59  0.535583  0.113714  0.266387  0.377690
    N   N5   0.550666  0.158420  0.168585  -0.475502
