# Generated by REPEAT Assigner based on pymatgen
data_DB0-m3_o1520_o6_f0_fsc.sym.40
_audit_creation_date              2022-05-24
_audit_creation_method            REPEAT_Assigner
_cell_length_a                    8.520221
_cell_length_b                    12.968914
_cell_length_c                    14.359389
_cell_angle_alpha                 90.952560
_cell_angle_beta                  90.070560
_cell_angle_gamma                 95.336851
_cell_volume                      1579.581440
_symmetry_space_group_name_H-M    P1
_symmetry_Int_Tables_number       1
loop_
    _symmetry_equiv_pos_site_id
    _symmetry_equiv_pos_as_xyz
    1  x,y,z
loop_
    _atom_site_type_symbol
    _atom_site_label
    _atom_site_fract_x
    _atom_site_fract_y
    _atom_site_fract_z
    _atom_type_partial_charge
    C   C1   0.156128  0.295074  0.977222  -0.209196
    C   C2   0.933073  0.705061  0.022841  -0.163784
    C   C3   0.024998  0.346868  0.964953  -0.141186
    C   C4   0.064209  0.653273  0.035109  -0.166762
    C   C5   0.877964  0.297405  0.977768  -0.003683
    C   C6   0.211239  0.702743  0.022296  0.016823
    C   C7   0.859919  0.192311  0.992174  -0.293438
    C   C8   0.229274  0.807836  0.007890  -0.320397
    C   C9   0.991031  0.135079  0.991718  0.107188
    C   C10  0.098158  0.865062  0.008351  0.190919
    C   C11  0.139857  0.188832  0.989655  0.241274
    C   C12  0.949335  0.811305  0.010414  0.130983
    C   C13  0.977159  0.026467  0.996452  0.060489
    C   C14  0.112026  0.973673  0.003620  -0.029105
    C   C15  0.258208  0.030859  0.008499  -0.121534
    C   C16  0.830977  0.969280  0.991579  -0.203718
    C   C17  0.271657  0.136458  0.999964  -0.321389
    C   C18  0.817532  0.863678  0.000111  -0.231615
    H   H1   0.038195  0.429234  0.954279  0.141209
    H   H2   0.051021  0.570906  0.045782  0.142679
    H   H3   0.741791  0.159360  0.005174  0.134979
    H   H4   0.347400  0.840788  0.994886  0.139668
    H   H5   0.722494  0.003136  0.980097  0.144344
    H   H6   0.366690  0.997004  0.019989  0.123850
    H   H7   0.700951  0.823099  0.998596  0.138786
    H   H8   0.388240  0.177035  0.001482  0.156723
    O   O1   0.726589  0.595027  0.090439  -0.732241
    O   O2   0.362611  0.405119  0.909649  -0.657452
    O   O3   0.724075  0.620932  0.931808  -0.705758
    O   O4   0.365136  0.379210  0.068233  -0.666611
    C   C19  0.782122  0.641886  0.015491  0.905524
    C   C20  0.307086  0.358240  0.984570  0.798274
    O   O5   0.702247  0.406847  0.910081  -0.729195
    O   O6   0.386953  0.593291  0.089958  -0.662042
    O   O7   0.692739  0.380864  0.068724  -0.697116
    O   O8   0.396473  0.619278  0.931362  -0.667290
    C   C21  0.745551  0.360661  0.985173  0.838355
    C   C22  0.343663  0.639498  0.014893  0.746490
    Zn  Zn1  0.546444  0.513514  0.897134  1.074264
    Zn  Zn2  0.542751  0.486628  0.102930  1.080681
    C   C23  0.526486  0.402664  0.458669  -0.159066
    C   C24  0.551801  0.597423  0.541387  -0.161431
    H   H9   0.516847  0.328452  0.423216  0.150207
    H   H10  0.561454  0.671635  0.576842  0.147366
    C   C25  0.536921  0.489800  0.404585  -0.027035
    C   C26  0.539754  0.510279  0.595470  -0.017969
    C   C27  0.548546  0.587638  0.445137  0.231230
    C   C28  0.525945  0.412430  0.554918  0.231640
    C   C29  0.539296  0.478965  0.304946  0.177703
    C   C30  0.545063  0.521153  0.695114  0.172730
    N   N1   0.548136  0.526602  0.775615  -0.133437
    N   N2   0.540903  0.473539  0.224449  -0.140415
    N   N3   0.514265  0.325031  0.613341  -0.305678
    C   C31  0.570941  0.232822  0.574522  -0.003437
    C   C32  0.569856  0.153090  0.650198  0.229385
    O   O9   0.415172  0.127659  0.680576  -0.438880
    C   C33  0.364598  0.217184  0.722311  0.265063
    C   C34  0.359557  0.302306  0.651508  -0.036556
    H   H11  0.692513  0.250343  0.547964  0.043974
    H   H12  0.491498  0.199872  0.518252  0.053082
    H   H13  0.646862  0.182747  0.708893  -0.004885
    H   H14  0.616744  0.082394  0.621163  0.024380
    H   H15  0.442856  0.244166  0.781298  0.025874
    H   H16  0.244103  0.198726  0.750177  0.019900
    H   H17  0.319413  0.372156  0.686034  0.045412
    H   H18  0.275541  0.276220  0.594984  0.048885
    N   N4   0.559413  0.675033  0.386713  -0.280643
    C   C35  0.640109  0.767969  0.425610  -0.075324
    C   C36  0.659572  0.847799  0.349944  0.262508
    O   O10  0.511222  0.871625  0.319394  -0.439670
    C   C37  0.437330  0.781442  0.277588  0.232884
    C   C38  0.410327  0.696152  0.348374  -0.018251
    H   H19  0.757346  0.751710  0.452301  0.056765
    H   H20  0.569172  0.800123  0.481795  0.078166
    H   H21  0.728921  0.818917  0.291332  -0.003139
    H   H22  0.724877  0.919089  0.379044  0.017881
    H   H23  0.508625  0.755250  0.218687  0.025006
    H   H24  0.321413  0.798648  0.249588  0.029667
    H   H25  0.351981  0.625783  0.313793  0.043416
    H   H26  0.333034  0.721387  0.404806  0.042699
