# Generated by REPEAT Assigner based on pymatgen
data_DB0-m2_o19_uoq
_audit_creation_date              2022-05-24
_audit_creation_method            REPEAT_Assigner
_cell_length_a                    11.826173
_cell_length_b                    47.177056
_cell_length_c                    47.184280
_cell_angle_alpha                 59.998256
_cell_angle_beta                  90.029799
_cell_angle_gamma                 89.985008
_cell_volume                      22797.922507
_symmetry_space_group_name_H-M    P1
_symmetry_Int_Tables_number       1
loop_
    _symmetry_equiv_pos_site_id
    _symmetry_equiv_pos_as_xyz
    1  x,y,z
loop_
    _atom_site_type_symbol
    _atom_site_label
    _atom_site_fract_x
    _atom_site_fract_y
    _atom_site_fract_z
    _atom_type_partial_charge
    O   O1    0.654096  0.471337  0.536470  -0.581222
    O   O2    0.484644  0.445391  0.554703  -0.560128
    C   C1    0.592450  0.447398  0.559390  0.716993
    O   O3    0.567856  0.532359  0.512810  -0.632899
    O   O4    0.398712  0.507750  0.533905  -0.639961
    C   C2    0.478649  0.528886  0.530679  0.746919
    Cu  Cu1   0.596164  0.505706  0.492677  1.093648
    Cu  Cu2   0.406956  0.477154  0.515790  1.060141
    O   O5    0.504692  0.533040  0.451902  -0.604376
    O   O6    0.338395  0.506761  0.473650  -0.578764
    O   O7    0.626495  0.474678  0.478354  -0.599288
    O   O8    0.455038  0.449925  0.496139  -0.611906
    C   C3    0.395682  0.528786  0.448539  0.723872
    C   C4    0.553417  0.452508  0.481583  0.721230
    O   O9    0.267952  0.798347  0.921249  -0.626120
    O   O10   0.434272  0.793786  0.899519  -0.593505
    C   C5    0.376964  0.790718  0.924621  0.740973
    O   O11   0.146193  0.766426  0.894821  -0.582035
    O   O12   0.317674  0.759433  0.877051  -0.610704
    C   C6    0.219291  0.747472  0.891605  0.747198
    Cu  Cu3   0.176496  0.811783  0.880478  1.064831
    Cu  Cu4   0.365745  0.806312  0.857381  1.072323
    O   O13   0.118580  0.821213  0.836688  -0.566061
    O   O14   0.288040  0.813472  0.818472  -0.582145
    O   O15   0.204810  0.858569  0.860335  -0.604250
    O   O16   0.373982  0.855026  0.839256  -0.614560
    C   C7    0.180239  0.820182  0.813775  0.668917
    C   C8    0.294034  0.872951  0.842472  0.732656
    O   O17   0.040689  0.393053  0.091280  -0.624853
    O   O18   0.871522  0.368465  0.094718  -0.579330
    C   C9    0.960718  0.371922  0.109153  0.728949
    O   O19   0.954838  0.455425  0.049716  -0.598121
    O   O20   0.785361  0.429500  0.057355  -0.586474
    C   C10   0.847025  0.453428  0.056370  0.690244
    Cu  Cu5   0.032512  0.423668  0.042572  1.058562
    Cu  Cu6   0.843287  0.395141  0.047926  1.082121
    O   O21   0.984476  0.450923  0.995682  -0.591914
    O   O22   0.812989  0.426191  0.002575  -0.589966
    O   O23   0.101080  0.394079  0.030031  -0.586102
    O   O24   0.934759  0.367823  0.034485  -0.649719
    C   C11   0.886097  0.448359  0.983671  0.757204
    C   C12   0.043775  0.372072  0.026902  0.751169
    O   O25   0.288160  0.087359  0.554685  -0.582270
    O   O26   0.118679  0.079708  0.536380  -0.566260
    C   C13   0.180347  0.080699  0.559328  0.669236
    O   O27   0.317794  0.141397  0.496157  -0.611368
    O   O28   0.146316  0.134494  0.478290  -0.581920
    C   C14   0.219415  0.153405  0.481565  0.747634
    Cu  Cu7   0.365825  0.094502  0.515802  1.074041
    Cu  Cu8   0.176591  0.089135  0.492608  1.064868
    O   O29   0.434386  0.107045  0.473686  -0.594402
    O   O30   0.268061  0.102574  0.451868  -0.627228
    O   O31   0.374005  0.045787  0.533911  -0.615501
    O   O32   0.204828  0.042336  0.512739  -0.604249
    C   C15   0.377076  0.110164  0.448548  0.743273
    C   C16   0.294029  0.027907  0.530646  0.732723
    O   O33   0.812802  0.474695  0.370580  -0.591594
    O   O34   0.984296  0.449901  0.377576  -0.592435
    C   C17   0.885908  0.452510  0.389532  0.759193
    O   O35   0.785222  0.471345  0.315804  -0.587073
    O   O36   0.954713  0.445358  0.323550  -0.597268
    C   C18   0.846909  0.447389  0.316839  0.688661
    Cu  Cu9   0.843097  0.505706  0.325232  1.084586
    Cu  Cu10  0.032348  0.477109  0.330705  1.058906
    O   O37   0.871389  0.532345  0.278453  -0.580841
    O   O38   0.040582  0.507695  0.281998  -0.625099
    O   O39   0.934518  0.533033  0.338671  -0.650047
    O   O40   0.100858  0.506710  0.343238  -0.587381
    C   C19   0.960617  0.528847  0.264075  0.730174
    C   C20   0.043531  0.528757  0.346305  0.752118
    O   O41   0.651038  0.640861  0.687132  -0.610983
    O   O42   0.479531  0.658705  0.662340  -0.598680
    C   C21   0.552645  0.655446  0.684528  0.718895
    O   O43   0.767592  0.663330  0.630330  -0.579536
    O   O44   0.601237  0.685134  0.604021  -0.605114
    C   C22   0.710258  0.688464  0.608297  0.726274
    Cu  Cu11  0.699067  0.621204  0.659908  1.059457
    Cu  Cu12  0.509822  0.644381  0.631338  1.094592
    O   O45   0.707202  0.603092  0.629312  -0.639756
    O   O46   0.537981  0.624243  0.604684  -0.633865
    O   O47   0.621449  0.582308  0.691649  -0.560512
    O   O48   0.451938  0.600598  0.665680  -0.581029
    C   C23   0.627193  0.606346  0.608167  0.748412
    C   C24   0.513635  0.577653  0.689626  0.718041
    O   O49   0.538089  0.276644  0.768510  -0.633590
    O   O50   0.707250  0.297754  0.743927  -0.640994
    C   C25   0.627292  0.294516  0.765054  0.749247
    O   O51   0.601324  0.215744  0.769171  -0.606123
    O   O52   0.767632  0.237509  0.742915  -0.580321
    C   C26   0.710339  0.212387  0.764926  0.726625
    Cu  Cu13  0.509854  0.256523  0.741842  1.094689
    Cu  Cu14  0.699063  0.279654  0.713319  1.061349
    O   O53   0.479551  0.242207  0.710808  -0.599406
    O   O54   0.651027  0.260008  0.686080  -0.612281
    O   O55   0.451916  0.300321  0.707476  -0.580942
    O   O56   0.621384  0.318569  0.681555  -0.560849
    C   C27   0.552652  0.245447  0.688648  0.720804
    C   C28   0.513571  0.323249  0.683548  0.718287
    O   O57   0.901353  0.624189  0.094731  -0.605728
    O   O58   0.732188  0.603090  0.091192  -0.615088
    C   C29   0.812136  0.606317  0.109111  0.734331
    O   O59   0.838211  0.685102  0.034506  -0.627679
    O   O60   0.671892  0.663359  0.029947  -0.595039
    C   C30   0.729198  0.688470  0.026874  0.743559
    Cu  Cu15  0.929662  0.644326  0.047953  1.067694
    Cu  Cu16  0.740407  0.621212  0.042486  1.073046
    O   O61   0.959929  0.658657  0.002605  -0.583311
    O   O62   0.788451  0.640865  0.995616  -0.610998
    O   O63   0.987582  0.600529  0.057393  -0.567259
    O   O64   0.818111  0.582299  0.049656  -0.583533
    C   C31   0.886832  0.655425  0.983658  0.748540
    C   C32   0.925915  0.577608  0.056367  0.671329
    O   O65   0.788303  0.260013  0.377521  -0.611801
    O   O66   0.959794  0.242145  0.370641  -0.583302
    C   C33   0.886678  0.245423  0.389538  0.749375
    O   O67   0.671738  0.237528  0.343178  -0.594152
    O   O68   0.838064  0.215701  0.338733  -0.627793
    C   C34   0.729045  0.212382  0.346313  0.741854
    Cu  Cu17  0.740295  0.279656  0.330629  1.073138
    Cu  Cu18  0.929523  0.256454  0.325290  1.067685
    O   O69   0.732130  0.297747  0.281924  -0.615847
    O   O70   0.901307  0.276574  0.278497  -0.605288
    O   O71   0.817948  0.318555  0.323475  -0.582085
    O   O72   0.987433  0.300241  0.315851  -0.567047
    C   C35   0.812112  0.294477  0.264057  0.733759
    C   C36   0.925765  0.323197  0.316826  0.669546
    O   O73   0.293118  0.766393  0.662373  -0.590364
    O   O74   0.121646  0.759491  0.687102  -0.591235
    C   C37   0.220018  0.747482  0.684537  0.756843
    O   O75   0.320741  0.821180  0.665689  -0.586078
    O   O76   0.151275  0.813530  0.691611  -0.598018
    C   C38   0.259088  0.820190  0.689615  0.690264
    Cu  Cu19  0.262811  0.811750  0.631331  1.082337
    Cu  Cu20  0.073614  0.806387  0.659850  1.058286
    O   O77   0.234594  0.858548  0.604658  -0.580099
    O   O78   0.065439  0.855103  0.629241  -0.624619
    O   O79   0.171336  0.798310  0.604008  -0.650087
    O   O80   0.005031  0.793843  0.630263  -0.587084
    C   C39   0.145405  0.872981  0.608113  0.730294
    C   C40   0.062320  0.790721  0.608256  0.752972
    O   O81   0.338402  0.394142  0.899510  -0.578764
    O   O82   0.504738  0.367829  0.921321  -0.604725
    C   C41   0.395723  0.372108  0.924646  0.724638
    O   O83   0.398753  0.393116  0.839283  -0.640176
    O   O84   0.567944  0.368478  0.860444  -0.631727
    C   C42   0.478736  0.371964  0.842542  0.746284
    Cu  Cu21  0.406926  0.423720  0.857389  1.060186
    Cu  Cu22  0.596170  0.395136  0.880578  1.092224
    O   O85   0.484578  0.455461  0.818505  -0.560471
    O   O86   0.654067  0.429484  0.836805  -0.580920
    O   O87   0.455015  0.450961  0.877053  -0.611602
    O   O88   0.626505  0.426162  0.894904  -0.597377
    C   C43   0.592389  0.453434  0.813859  0.718476
    C   C44   0.553411  0.448356  0.891640  0.718017
    O   O89   0.065509  0.045839  0.743828  -0.625536
    O   O90   0.234706  0.042314  0.768476  -0.580408
    C   C45   0.145489  0.027924  0.764978  0.730340
    O   O91   0.151297  0.087398  0.681502  -0.598216
    O   O92   0.320799  0.079672  0.707485  -0.586567
    C   C46   0.259106  0.080696  0.683534  0.690811
    Cu  Cu23  0.073699  0.094555  0.713247  1.059920
    Cu  Cu24  0.262945  0.089103  0.741838  1.082651
    O   O93   0.121736  0.141436  0.686035  -0.592492
    O   O94   0.293236  0.134458  0.710826  -0.590680
    O   O95   0.005184  0.107096  0.742833  -0.587713
    O   O96   0.171521  0.102541  0.769156  -0.650536
    C   C47   0.220123  0.153404  0.688641  0.758172
    C   C48   0.062506  0.110169  0.764877  0.754008
    C   C49   0.338378  0.546537  0.416972  -0.136196
    C   C50   0.263619  0.546521  0.399084  0.069312
    C   C51   0.175560  0.546512  0.378007  0.045314
    C   C52   0.100801  0.546512  0.360111  -0.131164
    C   C53   0.583489  0.431347  0.468744  -0.151751
    C   C54   0.669258  0.431347  0.454514  0.109762
    C   C55   0.770081  0.431352  0.437760  0.089978
    C   C56   0.855851  0.431359  0.423527  -0.172250
    C   C57   0.631742  0.588822  0.589956  -0.129092
    C   C58   0.582119  0.575692  0.576821  0.068314
    C   C59   0.523658  0.560223  0.561342  0.064975
    C   C60   0.474035  0.547097  0.548203  -0.126409
    C   C61   0.465164  0.354006  0.659110  -0.174964
    C   C62   0.520590  0.375711  0.637420  0.106581
    C   C63   0.585430  0.401275  0.611853  0.103409
    C   C64   0.640857  0.422963  0.590146  -0.172679
    C   C65   0.807519  0.588792  0.144843  -0.160478
    C   C66   0.857144  0.575657  0.171115  0.115066
    C   C67   0.915606  0.560182  0.202071  0.007141
    C   C68   0.965231  0.547050  0.228343  -0.108960
    C   C69   0.798547  0.422961  0.310513  -0.160813
    C   C70   0.853950  0.401253  0.310495  0.124347
    C   C71   0.918763  0.375666  0.310494  0.108869
    C   C72   0.974164  0.353940  0.310511  -0.144065
    C   C73   0.250063  0.713474  0.705715  -0.171799
    C   C74   0.335884  0.699247  0.705711  0.090148
    C   C75   0.436768  0.682502  0.705703  0.109945
    C   C76   0.522591  0.668279  0.705692  -0.151149
    C   C77   0.767527  0.720018  0.590557  -0.137332
    C   C78   0.842258  0.737912  0.590554  0.069977
    C   C79   0.930285  0.758995  0.590541  0.044447
    C   C80   0.005016  0.776896  0.590521  -0.130912
    C   C81   0.640767  0.477858  0.783121  -0.174056
    C   C82   0.585404  0.499576  0.761380  0.104938
    C   C83   0.520636  0.525174  0.735774  0.104429
    C   C84   0.465273  0.546909  0.714050  -0.173572
    C   C85   0.631881  0.312032  0.783274  -0.128874
    C   C86   0.582257  0.325161  0.796406  0.067840
    C   C87   0.523795  0.340628  0.811881  0.064364
    C   C88   0.474172  0.353753  0.825017  -0.125806
    C   C89   0.522608  0.232613  0.667479  -0.151854
    C   C90   0.436815  0.218386  0.667478  0.110809
    C   C91   0.335964  0.201635  0.667480  0.088585
    C   C92   0.250170  0.187404  0.667487  -0.171187
    C   C93   0.005232  0.123975  0.782627  -0.131751
    C   C94   0.930469  0.141865  0.782632  0.045176
    C   C95   0.842405  0.162935  0.782648  0.069151
    C   C96   0.767641  0.180817  0.782669  -0.136439
    C   C97   0.671910  0.720039  0.013062  -0.133502
    C   C98   0.597126  0.737931  0.995161  0.060712
    C   C99   0.509038  0.759012  0.974079  0.057986
    C   C100  0.434254  0.776912  0.956187  -0.131143
    C   C101  0.916891  0.668267  0.949665  -0.161260
    C   C102  0.002655  0.682492  0.935434  0.094148
    C   C103  0.103471  0.699241  0.918685  0.091595
    C   C104  0.189234  0.713470  0.904458  -0.159653
    C   C105  0.974295  0.546847  0.062699  -0.144265
    C   C106  0.918877  0.525134  0.062711  0.107515
    C   C107  0.854046  0.499560  0.062705  0.127578
    C   C108  0.798629  0.477864  0.062682  -0.163558
    C   C109  0.965277  0.353701  0.144888  -0.107473
    C   C110  0.915653  0.340580  0.171139  0.005876
    C   C111  0.857189  0.325117  0.202070  0.114149
    C   C112  0.807564  0.311992  0.228321  -0.158742
    C   C113  0.671757  0.180827  0.360142  -0.130839
    C   C114  0.597054  0.162945  0.378037  0.058148
    C   C115  0.509059  0.141874  0.399113  0.059490
    C   C116  0.434356  0.123983  0.417000  -0.132745
    C   C117  0.189357  0.187410  0.468740  -0.159212
    C   C118  0.103498  0.201636  0.454516  0.090939
    C   C119  0.002572  0.218381  0.437769  0.094808
    C   C120  0.916713  0.232603  0.423540  -0.161808
    C   C121  0.307500  0.826503  0.714048  -0.162874
    C   C122  0.252090  0.826522  0.735740  0.126164
    C   C123  0.187268  0.826525  0.761309  0.107942
    C   C124  0.131857  0.826509  0.783018  -0.143470
    C   C125  0.140841  0.908721  0.589893  -0.110388
    C   C126  0.190479  0.934976  0.576768  0.008881
    C   C127  0.248957  0.965912  0.561300  0.113142
    C   C128  0.298595  0.992167  0.548171  -0.158581
    C   C129  0.101059  0.354340  0.013074  -0.130721
    C   C130  0.175760  0.354359  0.995172  0.044944
    C   C131  0.263752  0.354373  0.974088  0.069123
    C   C132  0.338454  0.354375  0.956194  -0.136210
    C   C133  0.583493  0.469524  0.904470  -0.148393
    C   C134  0.669325  0.469533  0.918694  0.106465
    C   C135  0.770221  0.469540  0.935440  0.091972
    C   C136  0.856053  0.469541  0.949667  -0.172352
    C   C137  0.140900  0.992186  0.783183  -0.109146
    C   C138  0.190540  0.965914  0.796320  0.007533
    C   C139  0.249021  0.934959  0.811801  0.114353
    C   C140  0.298661  0.908688  0.824942  -0.159504
    C   C141  0.131958  0.074388  0.590063  -0.142878
    C   C142  0.187326  0.074366  0.611797  0.106145
    C   C143  0.252101  0.074360  0.637395  0.127984
    C   C144  0.307469  0.074372  0.659111  -0.164049
