data_DB0-m3_o12_o28_f0_pcu.sym.106_repeat
_audit_creation_date              2024-02-20
_audit_creation_method            'Materials Studio'
_symmetry_space_group_name_H-M    'P1'
_symmetry_Int_Tables_number       1
_symmetry_cell_setting            triclinic
loop_
_symmetry_equiv_pos_as_xyz
  x,y,z
_cell_length_a                    10.0056
_cell_length_b                    11.2481
_cell_length_c                    23.4503
_cell_angle_alpha                 90.0002
_cell_angle_beta                  80.7539
_cell_angle_gamma                 92.4467
loop_
_atom_site_label
_atom_site_type_symbol
_atom_site_fract_x
_atom_site_fract_y
_atom_site_fract_z
_atom_site_U_iso_or_equiv
_atom_site_adp_type
_atom_site_occupancy
O1     O     0.43433   0.68534   0.50503   0.00000  Uiso   1.00
O2     O     0.58347   0.30390   0.49391   0.00000  Uiso   1.00
O3     O     0.66381   0.65414   0.48863   0.00000  Uiso   1.00
O4     O     0.35399   0.33510   0.51018   0.00000  Uiso   1.00
C1     C     0.56133   0.72460   0.49602   0.00000  Uiso   1.00
C2     C     0.45647   0.26464   0.50286   0.00000  Uiso   1.00
O5     O     0.39626   0.50955   0.59238   0.00000  Uiso   1.00
O6     O     0.62153   0.47957   0.40646   0.00000  Uiso   1.00
O7     O     0.62563   0.47848   0.57612   0.00000  Uiso   1.00
O8     O     0.39222   0.51094   0.42278   0.00000  Uiso   1.00
C3     C     0.51118   0.49386   0.61095   0.00000  Uiso   1.00
C4     C     0.50651   0.49544   0.38793   0.00000  Uiso   1.00
Zn1    Zn    0.35768   0.51535   0.51027   0.00000  Uiso   1.00
Zn2    Zn    0.66013   0.47388   0.48861   0.00000  Uiso   1.00
C5     C     0.42439   0.42230   0.12349   0.00000  Uiso   1.00
C6     C     0.57667   0.58400   0.87638   0.00000  Uiso   1.00
N1     N     0.50271   0.50309   0.14653   0.00000  Uiso   1.00
N2     N     0.50649   0.49747   0.85294   0.00000  Uiso   1.00
C7     C     0.57884   0.58649   0.11321   0.00000  Uiso   1.00
C8     C     0.43193   0.41336   0.88629   0.00000  Uiso   1.00
C9     C     0.57400   0.59345   0.05398   0.00000  Uiso   1.00
C10    C     0.42009   0.41792   0.94648   0.00000  Uiso   1.00
C11    C     0.49792   0.50675   0.02971   0.00000  Uiso   1.00
C12    C     0.49736   0.50381   0.97063   0.00000  Uiso   1.00
C13    C     0.42251   0.42197   0.06479   0.00000  Uiso   1.00
C14    C     0.57512   0.58689   0.93533   0.00000  Uiso   1.00
C15    C     0.64532   0.68194   0.01792   0.00000  Uiso   1.00
C16    C     0.33712   0.33731   0.98316   0.00000  Uiso   1.00
C17    C     0.64787   0.67536   0.95911   0.00000  Uiso   1.00
C18    C     0.34263   0.33831   0.04146   0.00000  Uiso   1.00
O9     O     0.35145   0.33917   0.15777   0.00000  Uiso   1.00
O10    O     0.64727   0.66839   0.84211   0.00000  Uiso   1.00
O11    O     0.66083   0.66038   0.13818   0.00000  Uiso   1.00
O12    O     0.37686   0.32182   0.86004   0.00000  Uiso   1.00
H1     H     0.70379   0.74422   0.93200   0.00000  Uiso   1.00
H2     H     0.27802   0.27541   0.06913   0.00000  Uiso   1.00
C19    C     0.38985   0.50653   0.76994   0.00000  Uiso   1.00
C20    C     0.38720   0.52042   0.24546   0.00000  Uiso   1.00
H3     H     0.29540   0.51707   0.79879   0.00000  Uiso   1.00
H4     H     0.29471   0.53878   0.22942   0.00000  Uiso   1.00
C21    C     0.39085   0.50598   0.71114   0.00000  Uiso   1.00
C22    C     0.38778   0.51838   0.30420   0.00000  Uiso   1.00
H5     H     0.29624   0.51520   0.69526   0.00000  Uiso   1.00
H6     H     0.29490   0.53475   0.33303   0.00000  Uiso   1.00
C23    C     0.51096   0.49392   0.67354   0.00000  Uiso   1.00
C24    C     0.50571   0.49660   0.32541   0.00000  Uiso   1.00
C25    C     0.63005   0.48244   0.69559   0.00000  Uiso   1.00
C26    C     0.62279   0.47641   0.28713   0.00000  Uiso   1.00
H7     H     0.72527   0.47278   0.66721   0.00000  Uiso   1.00
H8     H     0.71622   0.45866   0.30249   0.00000  Uiso   1.00
C27    C     0.62883   0.48359   0.75454   0.00000  Uiso   1.00
C28    C     0.62182   0.47825   0.22838   0.00000  Uiso   1.00
H9     H     0.72238   0.47397   0.77129   0.00000  Uiso   1.00
H10    H     0.71364   0.46126   0.19892   0.00000  Uiso   1.00
C29    C     0.50865   0.49561   0.79193   0.00000  Uiso   1.00
C30    C     0.50415   0.50068   0.20730   0.00000  Uiso   1.00
H11    H     0.63101   0.08971   0.49093   0.00000  Uiso   1.00
H12    H     0.38679   0.89953   0.50797   0.00000  Uiso   1.00
C31    C     0.59117   0.85339   0.49392   0.00000  Uiso   1.00
C32    C     0.42663   0.13584   0.50496   0.00000  Uiso   1.00
C33    C     0.49223   0.93044   0.50068   0.00000  Uiso   1.00
C34    C     0.52557   0.05880   0.49822   0.00000  Uiso   1.00
H13    H     0.32175   0.10319   0.51225   0.00000  Uiso   1.00
H14    H     0.69606   0.88605   0.48660   0.00000  Uiso   1.00
H15    H     0.12571   0.42270   0.46282   0.00000  Uiso   1.00
H16    H     0.89209   0.56655   0.53605   0.00000  Uiso   1.00
N3     N     0.85877   0.44594   0.47401   0.00000  Uiso   1.00
N4     N     0.15903   0.54330   0.52487   0.00000  Uiso   1.00
C35    C     0.93571   0.50385   0.50397   0.00000  Uiso   1.00
C36    C     0.08210   0.48539   0.49491   0.00000  Uiso   1.00
H17    H     0.11168   0.60154   0.55453   0.00000  Uiso   1.00
H18    H     0.90612   0.38767   0.44435   0.00000  Uiso   1.00
C37    C     0.71198   0.78872   0.03880   0.00000  Uiso   1.00
O13    O     0.64990   0.85065   0.07582   0.00000  Uiso   1.00
N5     N     0.84358   0.82831   0.01079   0.00000  Uiso   1.00
H19    H     0.90614   0.83531   0.04234   0.00000  Uiso   1.00
H20    H     0.83543   0.91343   0.99428   0.00000  Uiso   1.00
C38    C     0.23414   0.25563   0.96435   0.00000  Uiso   1.00
O14    O     0.15449   0.29234   0.93488   0.00000  Uiso   1.00
N6     N     0.21661   0.13665   0.98621   0.00000  Uiso   1.00
H21    H     0.22586   0.07967   0.95078   0.00000  Uiso   1.00
H22    H     0.11773   0.12603   0.00850   0.00000  Uiso   1.00
