# Generated by REPEAT Assigner based on pymatgen
data_DB0-m3_o96_o25_f0_fsc.sym.70_sqe
_audit_creation_date              2022-05-24
_audit_creation_method            REPEAT_Assigner
_cell_length_a                    13.096829
_cell_length_b                    13.634988
_cell_length_c                    15.929966
_cell_angle_alpha                 94.551587
_cell_angle_beta                  90.046315
_cell_angle_gamma                 90.622862
_cell_volume                      2835.552431
_symmetry_space_group_name_H-M    P1
_symmetry_Int_Tables_number       1
loop_
    _symmetry_equiv_pos_site_id
    _symmetry_equiv_pos_as_xyz
    1  x,y,z
loop_
    _atom_site_type_symbol
    _atom_site_label
    _atom_site_fract_x
    _atom_site_fract_y
    _atom_site_fract_z
    _atom_type_partial_charge
    C   C1   0.819881  0.067704  0.218607  0.011561
    C   C2   0.163660  0.936490  0.774321  0.008599
    C   C3   0.766061  0.119841  0.164840  -0.015367
    C   C4   0.217535  0.884424  0.828106  0.000067
    C   C5   0.816953  0.113025  0.089013  0.361178
    C   C6   0.166634  0.891211  0.903926  0.357561
    N   N1   0.903676  0.061297  0.096134  -0.508215
    N   N2   0.079864  0.942859  0.896793  -0.508349
    C   C7   0.906303  0.035167  0.176422  0.360631
    C   C8   0.077209  0.968964  0.816501  0.361954
    C   C9   0.779083  0.143560  0.017566  -0.424650
    C   C10  0.204534  0.860732  0.975378  -0.413943
    C   C11  0.815784  0.110896  0.932735  0.162203
    C   C12  0.167800  0.893381  0.060198  0.153040
    C   C13  0.755160  0.101685  0.861460  0.053651
    C   C14  0.228425  0.902665  0.131467  0.070744
    C   C15  0.813001  0.061482  0.797012  0.100387
    C   C16  0.170528  0.942737  0.195932  0.100481
    C   C17  0.909569  0.048643  0.830006  0.117408
    C   C18  0.073936  0.955471  0.162938  0.114864
    N   N3   0.910602  0.079680  0.912778  -0.195111
    N   N4   0.072936  0.924464  0.080160  -0.195078
    C   C19  0.000027  0.015190  0.782150  -0.399209
    C   C20  0.983454  0.988893  0.210774  -0.393484
    H   H1   0.707402  0.181970  0.020583  0.164357
    H   H2   0.276245  0.822377  0.972373  0.158053
    H   H3   0.001296  0.024940  0.715375  0.174201
    H   H4   0.982169  0.979138  0.277548  0.173390
    H   H5   0.973969  0.084762  0.952419  0.279919
    H   H6   0.009571  0.919332  0.040517  0.279362
    C   C21  0.328949  0.879471  0.142708  -0.217377
    C   C22  0.654702  0.125102  0.850178  -0.208683
    C   C23  0.370458  0.897967  0.222197  -0.125060
    C   C24  0.613190  0.106632  0.770685  -0.104537
    C   C25  0.313737  0.942434  0.288312  -0.019541
    C   C26  0.669819  0.061916  0.704618  -0.030617
    C   C27  0.211687  0.965716  0.275475  -0.223610
    C   C28  0.771819  0.038482  0.717481  -0.218753
    C   C29  0.780456  0.045359  0.294987  -0.218017
    C   C30  0.203067  0.958849  0.697939  -0.207124
    C   C31  0.685233  0.082177  0.316607  -0.002835
    C   C32  0.298334  0.922122  0.676342  -0.005324
    C   C33  0.634906  0.143400  0.264612  -0.088077
    C   C34  0.348737  0.860990  0.728368  -0.093246
    C   C35  0.674024  0.161174  0.187068  -0.170900
    C   C36  0.309631  0.843198  0.805909  -0.212517
    H   H7   0.375163  0.847387  0.091785  0.137113
    H   H8   0.608552  0.157366  0.901068  0.134240
    H   H9   0.166325  0.999951  0.326095  0.124938
    H   H10  0.817128  0.004105  0.666891  0.127266
    H   H11  0.819033  0.996840  0.334738  0.117496
    H   H12  0.164438  0.007307  0.658167  0.113779
    H   H13  0.560118  0.171488  0.281114  0.113532
    H   H14  0.423565  0.832985  0.711885  0.116601
    H   H15  0.630640  0.203524  0.145349  0.107263
    H   H16  0.353067  0.800916  0.847646  0.126905
    H   H17  0.449734  0.880661  0.231894  0.140361
    H   H18  0.533974  0.124153  0.760959  0.139427
    O   O1   0.364104  0.053368  0.407115  -0.664154
    O   O2   0.619426  0.950940  0.585824  -0.659952
    O   O3   0.427649  0.896029  0.393857  -0.691918
    O   O4   0.555890  0.108248  0.599075  -0.672314
    C   C37  0.366719  0.964020  0.369366  0.756920
    C   C38  0.616814  0.040281  0.623578  0.735642
    O   O5   0.629772  0.958255  0.405476  -0.615104
    O   O6   0.353763  0.046038  0.587462  -0.624262
    O   O7   0.566461  0.115560  0.424307  -0.662643
    O   O8   0.417074  0.888727  0.568629  -0.650730
    C   C39  0.629494  0.051301  0.389078  0.672644
    C   C40  0.354037  0.952988  0.603853  0.673056
    Zn  Zn1  0.532539  0.900179  0.486712  1.094473
    Zn  Zn2  0.450997  0.104111  0.506227  1.109117
    C   C41  0.446177  0.501400  0.569860  0.169268
    C   C42  0.541582  0.502261  0.425588  0.168465
    C   C43  0.557499  0.530137  0.559954  -0.115873
    C   C44  0.429944  0.474149  0.435284  -0.170032
    H   H19  0.612109  0.555105  0.610620  0.071992
    H   H20  0.376340  0.450576  0.383464  0.083076
    H   H21  0.633165  0.386279  0.496618  0.056303
    H   H22  0.352545  0.615526  0.499628  0.048109
    N   N5   0.570644  0.776693  0.476604  -0.200474
    N   N6   0.412930  0.227605  0.516360  -0.204665
    C   C45  0.416636  0.562955  0.498464  -0.033167
    C   C46  0.570575  0.440378  0.496737  -0.059698
    C   C47  0.528032  0.589944  0.487760  0.219939
    C   C48  0.458595  0.414018  0.507150  0.268896
    C   C49  0.556958  0.693084  0.480143  0.061628
    C   C50  0.427781  0.311150  0.513574  0.044761
    C   C51  0.384637  0.508695  0.651337  -0.401685
    C   C52  0.409808  0.430052  0.711170  0.607319
    C   C53  0.519886  0.438023  0.741336  -0.378244
    C   C54  0.339652  0.442472  0.786996  -0.416720
    H   H23  0.302675  0.501477  0.634210  0.078609
    H   H24  0.397260  0.582743  0.683982  0.094321
    H   H25  0.395923  0.355813  0.679755  -0.088690
    H   H26  0.540082  0.515841  0.760287  0.087612
    H   H27  0.571756  0.408180  0.690925  0.047146
    H   H28  0.529733  0.393861  0.796245  0.073747
    H   H29  0.354660  0.514676  0.822180  0.082881
    H   H30  0.353008  0.382802  0.829018  0.095057
    H   H31  0.258871  0.438516  0.765982  0.072667
    C   C55  0.590670  0.498944  0.338628  -0.286233
    C   C56  0.697542  0.545087  0.337864  0.517442
    C   C57  0.773800  0.487942  0.386220  -0.321807
    C   C58  0.732976  0.546046  0.247207  -0.327995
    H   H32  0.540416  0.539373  0.297567  0.053234
    H   H33  0.593720  0.421281  0.312230  0.068754
    H   H34  0.695826  0.622109  0.365450  -0.091236
    H   H35  0.763926  0.407816  0.369873  0.062908
    H   H36  0.763693  0.505043  0.454825  0.037332
    H   H37  0.852570  0.510097  0.369910  0.073409
    H   H38  0.739264  0.469520  0.218564  0.057778
    H   H39  0.808442  0.583441  0.245056  0.067885
    H   H40  0.677596  0.586606  0.210677  0.062303
