# Generated by REPEAT Assigner based on pymatgen
data_DB0-m29_o84_o53_f0_pts.sym.20
_audit_creation_date              2022-05-24
_audit_creation_method            REPEAT_Assigner
_cell_length_a                    13.080091
_cell_length_b                    9.404451
_cell_length_c                    23.788709
_cell_angle_alpha                 84.188745
_cell_angle_beta                  97.696376
_cell_angle_gamma                 115.441390
_cell_volume                      2615.568108
_symmetry_space_group_name_H-M    P1
_symmetry_Int_Tables_number       1
loop_
    _symmetry_equiv_pos_site_id
    _symmetry_equiv_pos_as_xyz
    1  x,y,z
loop_
    _atom_site_type_symbol
    _atom_site_label
    _atom_site_fract_x
    _atom_site_fract_y
    _atom_site_fract_z
    _atom_type_partial_charge
    C   C1   0.224407  0.968899  0.942205  0.052704
    C   C2   0.126745  0.961732  0.909806  -0.169657
    C   C3   0.041874  0.974966  0.934264  0.200827
    C   C4   0.946918  0.971776  0.900638  -0.200172
    C   C5   0.863118  0.990750  0.923810  -0.039888
    C   C6   0.233917  0.981348  0.000535  -0.036326
    C   C7   0.148188  0.996054  0.025053  0.074553
    C   C8   0.052799  0.994805  0.991641  -0.048443
    C   C9   0.969345  0.016294  0.015233  0.125814
    C   C10  0.874284  0.015870  0.981228  -0.005947
    C   C11  0.788995  0.033235  0.005094  -0.028927
    C   C12  0.158677  0.017049  0.082642  -0.111436
    C   C13  0.074673  0.033813  0.106789  -0.043836
    C   C14  0.980567  0.036946  0.072790  0.040476
    C   C15  0.898418  0.062401  0.095655  -0.174289
    C   C16  0.801052  0.055154  0.062916  0.091398
    H   H1   0.117250  0.949953  0.864475  0.139869
    H   H2   0.937699  0.955065  0.855636  0.153691
    H   H3   0.790353  0.986165  0.895430  0.098010
    H   H4   0.230413  0.015506  0.110409  0.151407
    H   H5   0.908977  0.088735  0.139592  0.145971
    O   O1   0.617811  0.063083  0.064340  -0.445002
    C   C17  0.709640  0.057629  0.092285  0.463653
    O   O2   0.545256  0.746048  0.113380  -0.425870
    O   O3   0.713662  0.035396  0.147756  -0.476557
    O   O4   0.487560  0.841375  0.180823  -0.516919
    C   C18  0.519912  0.737585  0.165509  0.534262
    Fe  Fe1  0.500747  0.001125  0.117886  1.390209
    O   O5   0.348923  0.898384  0.072701  -0.589439
    O   O6   0.428197  0.143842  0.031085  -0.481618
    C   C19  0.341152  0.005854  0.034680  0.638243
    O   O7   0.543394  0.206562  0.153104  -0.501049
    O   O8   0.392359  0.048537  0.201530  -0.369812
    C   C20  0.469365  0.189523  0.188493  0.399459
    O   O9   0.469158  0.796258  0.853791  -0.566203
    O   O10  0.554573  0.933853  0.775941  -0.436594
    C   C21  0.503362  0.799215  0.804032  0.502469
    O   O11  0.675479  0.107489  0.929222  -0.617907
    O   O12  0.591802  0.873827  0.978277  -0.479820
    C   C22  0.681320  0.007016  0.970792  0.664831
    O   O13  0.315216  0.001184  0.857500  -0.463449
    O   O14  0.536896  0.163814  0.820947  -0.454389
    C   C23  0.530353  0.287469  0.838982  0.439067
    O   O15  0.407876  0.961628  0.940434  -0.429282
    C   C24  0.318051  0.974037  0.912763  0.456960
    O   O16  0.520444  0.290315  0.892978  -0.415595
    Fe  Fe2  0.521157  0.008685  0.885817  1.392044
    C   C25  0.461237  0.338869  0.390648  0.406608
    N   N1   0.455366  0.455920  0.353494  -0.109390
    C   C26  0.444860  0.577009  0.374959  0.268614
    C   C27  0.466975  0.599832  0.432949  0.175759
    C   C28  0.461347  0.475179  0.469262  0.009366
    C   C29  0.448163  0.339002  0.447326  -0.096160
    C   C30  0.489010  0.741939  0.455292  -0.327442
    C   C31  0.510879  0.758529  0.513631  0.033803
    C   C32  0.500835  0.628432  0.549909  -0.043043
    C   C33  0.468834  0.485803  0.527039  0.121426
    C   C34  0.445274  0.353441  0.562320  -0.002875
    C   C35  0.418519  0.211191  0.539587  -0.191216
    C   C36  0.427475  0.206126  0.482850  0.098896
    C   C37  0.527778  0.638273  0.608422  0.303427
    N   N2   0.492653  0.506027  0.643073  -0.111638
    C   C38  0.445984  0.363413  0.619857  0.371312
    O   O17  0.485130  0.224940  0.374369  -0.414137
    O   O18  0.405996  0.669665  0.340842  -0.339219
    O   O19  0.596906  0.777936  0.630318  -0.382842
    O   O20  0.399213  0.230317  0.652150  -0.410900
    H   H6   0.396191  0.104753  0.566274  0.170154
    H   H7   0.412286  0.095553  0.466430  0.088482
    C   C39  0.524243  0.409413  0.741499  -0.297240
    H   H8   0.543533  0.319897  0.726666  0.221160
    C   C40  0.522362  0.414379  0.799315  0.148128
    C   C41  0.510291  0.538619  0.819871  -0.227900
    C   C42  0.497853  0.654513  0.782831  0.221916
    C   C43  0.488203  0.639713  0.725189  -0.397880
    H   H9   0.466874  0.723463  0.697575  0.247186
    C   C44  0.502338  0.518386  0.703613  0.310564
    C   C45  0.503257  0.598788  0.260247  -0.274905
    H   H10  0.531279  0.712213  0.277697  0.241802
    C   C46  0.509986  0.599268  0.202843  0.136499
    C   C47  0.505145  0.467340  0.180393  -0.276219
    C   C48  0.472760  0.328379  0.212628  0.231523
    C   C49  0.439838  0.319870  0.266132  -0.176760
    H   H11  0.397565  0.204276  0.285803  0.205063
    C   C50  0.464868  0.457480  0.293207  0.189749
    H   H12  0.514694  0.548884  0.865047  0.152703
    H   H13  0.519342  0.469070  0.136568  0.168294
    N   N3   0.084986  0.041485  0.167064  0.689322
    O   O21  0.000746  0.946947  0.195312  -0.341995
    O   O22  0.185635  0.108731  0.194255  -0.435933
    N   N4   0.494643  0.873639  0.418513  0.730731
    O   O23  0.579345  0.941766  0.387631  -0.334054
    O   O24  0.402398  0.894336  0.404019  -0.310219
    N   N5   0.530894  0.904510  0.535861  0.560235
    O   O25  0.472876  0.904610  0.576141  -0.311511
    O   O26  0.593209  0.037367  0.510593  -0.316730
