# Generated by REPEAT Assigner based on pymatgen
data_DB0-m2_o11_o28_f0_pcu.sym.23
_audit_creation_date              2022-05-24
_audit_creation_method            REPEAT_Assigner
_cell_length_a                    23.389811
_cell_length_b                    11.060089
_cell_length_c                    9.553537
_cell_angle_alpha                 90.020556
_cell_angle_beta                  90.003856
_cell_angle_gamma                 90.011426
_cell_volume                      2471.436493
_symmetry_space_group_name_H-M    P1
_symmetry_Int_Tables_number       1
loop_
    _symmetry_equiv_pos_site_id
    _symmetry_equiv_pos_as_xyz
    1  x,y,z
loop_
    _atom_site_type_symbol
    _atom_site_label
    _atom_site_fract_x
    _atom_site_fract_y
    _atom_site_fract_z
    _atom_type_partial_charge
    O   O1   0.496744  0.322280  0.618774  -0.534730
    O   O2   0.495724  0.324067  0.378064  -0.455076
    C   C1   0.497439  0.266412  0.498031  0.693370
    O   O3   0.417479  0.497610  0.623739  -0.564632
    O   O4   0.415613  0.506235  0.383230  -0.550722
    C   C2   0.389534  0.503117  0.504673  0.785174
    Cu  Cu1  0.500774  0.497708  0.639087  0.770105
    Cu  Cu2  0.498461  0.499891  0.359363  0.792126
    O   O5   0.500787  0.673583  0.620226  -0.662217
    O   O6   0.497799  0.675434  0.380559  -0.500535
    O   O7   0.583551  0.489238  0.614652  -0.490246
    O   O8   0.581720  0.501706  0.375225  -0.532715
    C   C3   0.501329  0.731361  0.500668  0.864333
    C   C4   0.609707  0.494329  0.493718  0.648403
    C   C5   0.880333  0.598866  0.462446  0.478674
    N   N1   0.852641  0.494745  0.490221  -0.089145
    C   C6   0.881679  0.392885  0.520776  0.434795
    C   C7   0.940985  0.393549  0.524818  -0.193915
    C   C8   0.969996  0.499651  0.496653  0.071106
    C   C9   0.939632  0.603061  0.464844  -0.211577
    C   C10  0.971720  0.289737  0.556407  0.368845
    C   C11  0.030506  0.292944  0.559980  -0.222996
    C   C12  0.059389  0.399085  0.532278  -0.026647
    C   C13  0.029145  0.502297  0.500411  0.012881
    C   C14  0.058402  0.607869  0.472284  -0.209742
    C   C15  0.027846  0.711689  0.440542  0.255421
    C   C16  0.969016  0.709309  0.436906  0.240065
    C   C17  0.118452  0.402170  0.535235  0.423171
    N   N2   0.146594  0.505703  0.507361  -0.097664
    C   C18  0.117780  0.607879  0.476480  0.466092
    O   O9   0.849741  0.699128  0.436192  -0.444603
    O   O10  0.852473  0.290330  0.544650  -0.436729
    H   H1   0.053246  0.210727  0.585014  0.174209
    O   O11  0.148146  0.300841  0.562347  -0.465418
    O   O12  0.147227  0.710116  0.452540  -0.446662
    C   C19  0.237459  0.475606  0.626989  -0.403458
    H   H2   0.214698  0.451988  0.721608  0.196041
    C   C20  0.296449  0.475339  0.627064  0.502766
    C   C21  0.326485  0.505461  0.506631  -0.457823
    C   C22  0.296112  0.536924  0.387103  0.505793
    C   C23  0.237199  0.537656  0.388378  -0.395715
    H   H3   0.214259  0.561207  0.293996  0.193990
    C   C24  0.207614  0.506671  0.507827  0.249880
    C   C25  0.762200  0.461945  0.609652  -0.351455
    H   H4   0.785268  0.439089  0.704061  0.186221
    C   C26  0.703287  0.461865  0.611136  0.417737
    C   C27  0.672755  0.492546  0.491577  -0.323345
    C   C28  0.702627  0.522638  0.370864  0.428980
    C   C29  0.761615  0.523064  0.370726  -0.354188
    H   H5   0.784259  0.546646  0.275928  0.184085
    C   C30  0.791622  0.492901  0.489959  0.196220
    C   C31  0.500238  0.931702  0.386887  0.308911
    C   C32  0.502240  0.864326  0.503972  -0.535749
    H   H6   0.505712  0.905049  0.606303  0.233140
    C   C33  0.501804  0.065524  0.386037  0.327641
    C   C34  0.495585  0.133645  0.501172  -0.456248
    H   H7   0.488878  0.093507  0.602793  0.196342
    C   C35  0.465320  0.436565  0.921003  -0.249003
    N   N3   0.502196  0.495986  0.848454  0.140218
    H   H8   0.429503  0.393957  0.868770  0.228174
    C   C36  0.470800  0.421130  0.074326  0.557786
    N   N4   0.496172  0.501042  0.149963  -0.419381
    H   H9   0.504089  0.582262  0.101452  0.303211
    F   F1   0.945385  0.183349  0.584782  -0.157883
    F   F2   0.676377  0.429843  0.731182  -0.176706
    F   F3   0.674947  0.554571  0.251852  -0.174914
    F   F4   0.498400  0.876961  0.259803  -0.159566
    F   F5   0.509313  0.119544  0.259862  -0.154764
    F   F6   0.553367  0.511435  0.908158  -0.079699
    F   F7   0.444220  0.325875  0.135485  -0.171300
    F   F8   0.054439  0.817738  0.411926  -0.135352
    F   F9   0.941234  0.813240  0.404955  -0.126031
    F   F10  0.323972  0.442630  0.745955  -0.210402
    F   F11  0.323194  0.569231  0.267394  -0.206955
