# Generated by REPEAT Assigner based on pymatgen
data_DB0-m3_o24_o27_f0_pcu.sym.17
_audit_creation_date              2022-05-24
_audit_creation_method            REPEAT_Assigner
_cell_length_a                    19.378252
_cell_length_b                    10.794037
_cell_length_c                    9.766373
_cell_angle_alpha                 90.008046
_cell_angle_beta                  89.976444
_cell_angle_gamma                 89.995158
_cell_volume                      2042.827945
_symmetry_space_group_name_H-M    P1
_symmetry_Int_Tables_number       1
loop_
    _symmetry_equiv_pos_site_id
    _symmetry_equiv_pos_as_xyz
    1  x,y,z
loop_
    _atom_site_type_symbol
    _atom_site_label
    _atom_site_fract_x
    _atom_site_fract_y
    _atom_site_fract_z
    _atom_type_partial_charge
    O   O1   0.498659  0.314959  0.618267  -0.703160
    O   O2   0.501341  0.685041  0.381733  -0.703156
    O   O3   0.499792  0.315880  0.381704  -0.691991
    O   O4   0.500208  0.684120  0.618296  -0.692000
    C   C1   0.498982  0.257898  0.499615  0.764225
    C   C2   0.501018  0.742102  0.500384  0.764231
    O   O5   0.396674  0.501047  0.617340  -0.620827
    O   O6   0.603326  0.498953  0.382660  -0.620829
    O   O7   0.397709  0.501787  0.381020  -0.633119
    O   O8   0.602291  0.498212  0.618979  -0.633149
    C   C3   0.364865  0.501879  0.498611  0.656870
    C   C4   0.635135  0.498121  0.501388  0.656861
    Zn  Zn1  0.499408  0.499573  0.655903  1.028890
    Zn  Zn2  0.500592  0.500427  0.344096  1.028862
    C   C5   0.252336  0.505870  0.618006  -0.299985
    C   C6   0.747664  0.494130  0.381994  -0.300031
    H   H1   0.278479  0.508586  0.715573  0.167166
    H   H2   0.721521  0.491414  0.284427  0.167170
    C   C7   0.181218  0.505800  0.616340  0.196010
    C   C8   0.818782  0.494199  0.383659  0.196021
    H   H3   0.154396  0.507988  0.713280  0.035301
    H   H4   0.845604  0.492012  0.286719  0.035301
    C   C9   0.145400  0.502395  0.493676  -0.691078
    C   C10  0.854600  0.497605  0.506323  -0.691050
    C   C11  0.182576  0.499748  0.371872  0.688660
    C   C12  0.817424  0.500252  0.628127  0.688731
    C   C13  0.253770  0.499768  0.374274  -0.373590
    C   C14  0.746230  0.500232  0.625725  -0.373813
    H   H5   0.281235  0.497385  0.278008  0.123492
    H   H6   0.718765  0.502615  0.721992  0.123609
    C   C15  0.289115  0.502568  0.497021  0.113783
    C   C16  0.710884  0.497432  0.502978  0.113909
    N   N1   0.032512  0.491456  0.379803  -0.275534
    N   N2   0.967488  0.508544  0.620196  -0.275511
    N   N3   0.964321  0.490186  0.383576  -0.379807
    N   N4   0.035679  0.509814  0.616423  -0.379824
    C   C17  0.930757  0.498603  0.503848  0.906297
    C   C18  0.069243  0.501397  0.496151  0.906350
    C   C19  0.552658  0.041294  0.563130  0.482003
    C   C20  0.447342  0.958706  0.436870  0.482022
    C   C21  0.557241  0.960346  0.437383  -0.225842
    C   C22  0.442759  0.039654  0.562617  -0.225857
    H   H7   0.605799  0.927101  0.389775  0.075625
    H   H8   0.394201  0.072899  0.610224  0.075629
    C   C23  0.501748  0.879849  0.501648  0.056916
    C   C24  0.498252  0.120151  0.498351  0.056935
    C   C25  0.498828  0.959966  0.629438  -0.235288
    C   C26  0.501172  0.040034  0.370562  -0.235297
    H   H9   0.500251  0.927414  0.737044  0.117483
    H   H10  0.499748  0.072586  0.262956  0.117483
    C   C27  0.485853  0.397064  0.047323  0.325480
    C   C28  0.514147  0.602936  0.952677  0.325545
    C   C29  0.543648  0.422440  0.948923  -0.281799
    C   C30  0.456352  0.577560  0.051077  -0.281884
    H   H11  0.581238  0.355364  0.906005  0.136787
    H   H12  0.418762  0.644636  0.093995  0.136812
    N   N5   0.499040  0.499597  0.860785  0.174316
    N   N6   0.500960  0.500403  0.139215  0.174377
    C   C31  0.442525  0.471959  0.954919  0.238242
    C   C32  0.557475  0.528041  0.045080  0.238172
    O   O9   0.378030  0.435695  0.906209  -0.545110
    H   H13  0.347127  0.442354  0.986620  0.390884
    O   O10  0.621970  0.564304  0.093791  -0.545086
    H   H14  0.652873  0.557646  0.013380  0.390862
    O   O11  0.150124  0.497640  0.247710  -0.578932
    H   H15  0.149233  0.585374  0.218164  0.337090
    O   O12  0.849876  0.502360  0.752290  -0.578956
    H   H16  0.850767  0.414625  0.781836  0.337087
    O   O13  0.609653  0.090046  0.631515  -0.643548
    H   H17  0.635810  0.016517  0.662765  0.362708
    O   O14  0.390347  0.909954  0.368484  -0.643560
    H   H18  0.364190  0.983483  0.337235  0.362710
    O   O15  0.467353  0.281228  0.098509  -0.579020
    H   H19  0.469711  0.225326  0.018269  0.380380
    O   O16  0.532647  0.718772  0.901491  -0.579030
    H   H20  0.530289  0.774674  0.981730  0.380380
