# Generated by REPEAT Assigner based on pymatgen
data_DB0-m2_o3_o25_f0_nbo.sym.123_sqe
_audit_creation_date              2022-05-24
_audit_creation_method            REPEAT_Assigner
_cell_length_a                    49.884067
_cell_length_b                    38.530812
_cell_length_c                    31.740974
_cell_angle_alpha                 90.000000
_cell_angle_beta                  50.438238
_cell_angle_gamma                 90.000000
_cell_volume                      47033.790169
_symmetry_space_group_name_H-M    P1
_symmetry_Int_Tables_number       1
loop_
    _symmetry_equiv_pos_site_id
    _symmetry_equiv_pos_as_xyz
    1  x,y,z
loop_
    _atom_site_type_symbol
    _atom_site_label
    _atom_site_fract_x
    _atom_site_fract_y
    _atom_site_fract_z
    _atom_type_partial_charge
    O   O1    0.450656  0.023765  0.062448  -0.555231
    O   O2    0.549345  0.023766  0.937551  -0.555291
    O   O3    0.950656  0.523765  0.062448  -0.555240
    O   O4    0.049345  0.523766  0.937551  -0.555306
    O   O5    0.450373  0.966721  0.038648  -0.663340
    O   O6    0.549628  0.966721  0.961351  -0.663422
    O   O7    0.950373  0.466721  0.038648  -0.663318
    O   O8    0.049628  0.466721  0.961351  -0.663387
    C   C1    0.434215  0.995171  0.067363  0.831215
    C   C2    0.565786  0.995171  0.932637  0.831432
    C   C3    0.934215  0.495171  0.067363  0.831211
    C   C4    0.065786  0.495171  0.932637  0.831420
    O   O9    0.510759  0.023803  0.049038  -0.674885
    O   O10   0.489242  0.023803  0.950962  -0.674876
    O   O11   0.010759  0.523803  0.049038  -0.674867
    O   O12   0.989242  0.523803  0.950962  -0.674868
    O   O13   0.490958  0.966685  0.069314  -0.644374
    O   O14   0.509043  0.966685  0.930685  -0.644394
    O   O15   0.990958  0.466685  0.069314  -0.644368
    O   O16   0.009043  0.466685  0.930685  -0.644390
    C   C5    0.501191  0.995245  0.078528  0.863014
    C   C6    0.498810  0.995244  0.921471  0.863079
    C   C7    0.001191  0.495245  0.078528  0.862985
    C   C8    0.998810  0.495244  0.921471  0.863076
    Cu  Cu1   0.500000  0.029088  0.000000  0.989965
    Cu  Cu2   0.000000  0.529088  0.000000  0.989948
    Cu  Cu3   0.500001  0.961397  0.000000  1.020575
    Cu  Cu4   0.000001  0.461397  0.000000  1.020601
    C   C9    0.472059  0.003994  0.291324  -0.140017
    C   C10   0.527940  0.003997  0.708677  -0.140186
    C   C11   0.972059  0.503994  0.291324  -0.140260
    C   C12   0.027940  0.503997  0.708677  -0.140248
    C   C13   0.481435  0.972714  0.255023  -0.130538
    C   C14   0.518568  0.972716  0.744974  -0.130304
    C   C15   0.981435  0.472714  0.255023  -0.130316
    C   C16   0.018568  0.472716  0.744974  -0.130257
    H   H1    0.463038  0.952855  0.261508  0.047102
    H   H2    0.536967  0.952860  0.738487  0.047079
    H   H3    0.963038  0.452855  0.261508  0.047061
    H   H4    0.036967  0.452860  0.738487  0.047072
    H   H5    0.445896  0.010113  0.330172  0.085839
    H   H6    0.554102  0.010120  0.669830  0.085842
    H   H7    0.945896  0.510113  0.330172  0.085865
    H   H8    0.054102  0.510120  0.669830  0.085848
    H   H9    0.521326  0.940454  0.255314  0.070833
    H   H10   0.478681  0.940451  0.744680  0.070884
    H   H11   0.021326  0.440454  0.255314  0.070887
    H   H12   0.978681  0.440451  0.744680  0.070884
    C   C17   0.502016  0.995296  0.122940  -0.151372
    C   C18   0.497985  0.995295  0.877060  -0.151481
    C   C19   0.002016  0.495296  0.122940  -0.151323
    C   C20   0.997985  0.495295  0.877060  -0.151487
    C   C21   0.503351  0.998470  0.370588  -0.213462
    C   C22   0.496648  0.998470  0.629413  -0.213784
    C   C23   0.003351  0.498470  0.370588  -0.213523
    C   C24   0.996648  0.498470  0.629413  -0.213795
    C   C25   0.493861  0.027358  0.241331  -0.126991
    C   C26   0.506136  0.027359  0.758673  -0.126706
    C   C27   0.993861  0.527358  0.241331  -0.126781
    C   C28   0.006136  0.527359  0.758673  -0.126528
    C   C29   0.503242  0.996086  0.205811  0.756489
    C   C30   0.496758  0.996085  0.794190  0.756182
    C   C31   0.003242  0.496086  0.205811  0.756338
    C   C32   0.996758  0.496085  0.794190  0.756077
    C   C33   0.525681  0.020593  0.236736  -0.160763
    C   C34   0.474316  0.020590  0.763268  -0.160987
    C   C35   0.025681  0.520593  0.236736  -0.160995
    C   C36   0.974316  0.520590  0.763268  -0.161074
    C   C37   0.503868  0.997214  0.285949  0.642584
    C   C38   0.496132  0.997213  0.714052  0.642722
    C   C39   0.003868  0.497214  0.285949  0.642921
    C   C40   0.996132  0.497213  0.714052  0.642755
    C   C41   0.535068  0.989300  0.200388  -0.254667
    C   C42   0.464932  0.989296  0.799611  -0.254381
    C   C43   0.035068  0.489300  0.200388  -0.254448
    C   C44   0.964932  0.489296  0.799611  -0.254321
    C   C45   0.513256  0.965932  0.250428  -0.148848
    C   C46   0.486748  0.965931  0.749569  -0.149148
    C   C47   0.013256  0.465932  0.250428  -0.149151
    C   C48   0.986748  0.465931  0.749569  -0.149172
    C   C49   0.502672  0.995561  0.160258  -0.397141
    C   C50   0.497328  0.995561  0.839742  -0.397017
    C   C51   0.002672  0.495561  0.160258  -0.397186
    C   C52   0.997328  0.495561  0.839742  -0.397000
    C   C53   0.503833  0.997899  0.332122  -0.328743
    C   C54   0.496167  0.997898  0.667879  -0.328506
    C   C55   0.003833  0.497899  0.332122  -0.328767
    C   C56   0.996167  0.497898  0.667879  -0.328496
    H   H13   0.561213  0.983179  0.161505  0.116024
    H   H14   0.438789  0.983172  0.838494  0.115984
    H   H15   0.061213  0.483179  0.161505  0.115990
    H   H16   0.938789  0.483172  0.838494  0.115975
    H   H17   0.544052  0.040482  0.230260  0.065611
    H   H18   0.455942  0.040477  0.769746  0.065641
    H   H19   0.044052  0.540482  0.230260  0.065635
    H   H20   0.955942  0.540477  0.769746  0.065656
    H   H21   0.485768  0.052816  0.236425  0.050784
    H   H22   0.514226  0.052817  0.763582  0.050706
    H   H23   0.985768  0.552816  0.236425  0.050742
    H   H24   0.014226  0.552817  0.763582  0.050635
    C   C57   0.121375  0.981457  0.342711  -0.093567
    C   C58   0.878626  0.981456  0.657289  -0.093317
    C   C59   0.621375  0.481457  0.342711  -0.093588
    C   C60   0.378626  0.481456  0.657289  -0.093335
    H   H25   0.107397  0.968150  0.331984  0.114064
    H   H26   0.892604  0.968149  0.668016  0.113977
    H   H27   0.607397  0.468150  0.331984  0.114068
    H   H28   0.392604  0.468149  0.668016  0.113981
    C   C61   0.157212  0.981030  0.306424  -0.150477
    C   C62   0.842789  0.981029  0.693576  -0.150641
    C   C63   0.657212  0.481030  0.306424  -0.150465
    C   C64   0.342789  0.481029  0.693576  -0.150631
    H   H29   0.170588  0.967913  0.267677  0.121737
    H   H30   0.829413  0.967912  0.732322  0.121749
    H   H31   0.670588  0.467913  0.267677  0.121737
    H   H32   0.329413  0.467912  0.732322  0.121749
    C   C65   0.175742  0.997913  0.319006  0.110417
    C   C66   0.824259  0.997913  0.680995  0.110494
    C   C67   0.675742  0.497913  0.319006  0.110419
    C   C68   0.324259  0.497913  0.680995  0.110490
    C   C69   0.158138  0.014976  0.368352  -0.154092
    C   C70   0.841863  0.014976  0.631649  -0.154200
    C   C71   0.658138  0.514976  0.368352  -0.154084
    C   C72   0.341863  0.514976  0.631649  -0.154189
    H   H33   0.172199  0.027822  0.379293  0.120874
    H   H34   0.827802  0.027823  0.620709  0.120907
    H   H35   0.672199  0.527822  0.379293  0.120875
    H   H36   0.327802  0.527823  0.620709  0.120903
    C   C73   0.122361  0.014855  0.405071  -0.108731
    C   C74   0.877640  0.014856  0.594930  -0.108722
    C   C75   0.622361  0.514855  0.405071  -0.108748
    C   C76   0.377640  0.514856  0.594930  -0.108737
    H   H37   0.109227  0.028201  0.443571  0.129766
    H   H38   0.890774  0.028202  0.556430  0.129747
    H   H39   0.609227  0.528201  0.443571  0.129767
    H   H40   0.390774  0.528202  0.556430  0.129757
    C   C77   0.103796  0.998191  0.392373  -0.057204
    C   C78   0.896205  0.998190  0.607628  -0.057138
    C   C79   0.603796  0.498191  0.392373  -0.057185
    C   C80   0.396205  0.498190  0.607628  -0.057112
    C   C81   0.232167  0.027493  0.270659  -0.125400
    C   C82   0.767835  0.027494  0.729343  -0.125454
    C   C83   0.732167  0.527493  0.270659  -0.125403
    C   C84   0.267835  0.527494  0.729343  -0.125461
    H   H41   0.218707  0.051732  0.289378  0.104284
    H   H42   0.781294  0.051732  0.710625  0.104319
    H   H43   0.718707  0.551732  0.289378  0.104283
    H   H44   0.281294  0.551732  0.710625  0.104321
    C   C85   0.267956  0.027059  0.235504  -0.153812
    C   C86   0.732045  0.027060  0.764498  -0.153804
    C   C87   0.767956  0.527059  0.235504  -0.153810
    C   C88   0.232045  0.527060  0.764498  -0.153798
    H   H45   0.281619  0.051140  0.227246  0.116810
    H   H46   0.718383  0.051141  0.772757  0.116821
    H   H47   0.781619  0.551140  0.227246  0.116809
    H   H48   0.218383  0.551141  0.772757  0.116819
    C   C89   0.285876  0.996482  0.210526  0.114019
    C   C90   0.714125  0.996482  0.789475  0.113964
    C   C91   0.785876  0.496482  0.210526  0.114025
    C   C92   0.214125  0.496482  0.789475  0.113966
    C   C93   0.267375  0.966490  0.220557  -0.200360
    C   C94   0.732626  0.966489  0.779443  -0.200324
    C   C95   0.767375  0.466490  0.220557  -0.200351
    C   C96   0.232626  0.466489  0.779443  -0.200313
    H   H49   0.280522  0.941999  0.202897  0.123084
    H   H50   0.719479  0.941999  0.797101  0.123083
    H   H51   0.780522  0.441999  0.202897  0.123083
    H   H52   0.219479  0.441999  0.797101  0.123083
    C   C97   0.231573  0.967086  0.255098  -0.090386
    C   C98   0.768428  0.967085  0.744901  -0.090404
    C   C99   0.731573  0.467086  0.255098  -0.090398
    C   C100  0.268428  0.467085  0.744901  -0.090420
    H   H53   0.217607  0.943206  0.263379  0.098303
    H   H54   0.782394  0.943205  0.736620  0.098313
    H   H55   0.717607  0.443206  0.263379  0.098303
    H   H56   0.282394  0.443205  0.736620  0.098315
    C   C101  0.213797  0.997522  0.280676  0.033905
    C   C102  0.786204  0.997521  0.719325  0.033928
    C   C103  0.713797  0.497522  0.280676  0.033905
    C   C104  0.286204  0.497521  0.719325  0.033934
    C   C105  0.342917  0.974706  0.128601  -0.222413
    C   C106  0.657084  0.974706  0.871398  -0.222550
    C   C107  0.842917  0.474706  0.128601  -0.222421
    C   C108  0.157084  0.474706  0.871398  -0.222563
    H   H57   0.330087  0.959063  0.117873  0.149461
    H   H58   0.669914  0.959062  0.882126  0.149487
    H   H59   0.830087  0.459063  0.117873  0.149461
    H   H60   0.169914  0.459062  0.882126  0.149488
    C   C109  0.378682  0.974263  0.094657  -0.046597
    C   C110  0.621319  0.974262  0.905342  -0.046467
    C   C111  0.878682  0.474263  0.094657  -0.046585
    C   C112  0.121319  0.474262  0.905342  -0.046453
    H   H61   0.392884  0.958169  0.058504  0.120455
    H   H62   0.607117  0.958168  0.941495  0.120432
    H   H63   0.892884  0.458169  0.058504  0.120450
    H   H64   0.107117  0.458168  0.941495  0.120428
    C   C113  0.396154  0.995103  0.105483  -0.319188
    C   C114  0.603847  0.995103  0.894517  -0.319381
    C   C115  0.896154  0.495103  0.105483  -0.319194
    C   C116  0.103847  0.495103  0.894517  -0.319382
    C   C117  0.377400  0.015677  0.151885  0.490468
    C   C118  0.622601  0.015678  0.848116  0.490591
    C   C119  0.877400  0.515677  0.151885  0.490471
    C   C120  0.122601  0.515678  0.848116  0.490592
    C   C121  0.341582  0.016263  0.185553  -0.301666
    C   C122  0.658419  0.016264  0.814448  -0.301725
    C   C123  0.841582  0.516263  0.185553  -0.301664
    C   C124  0.158419  0.516264  0.814448  -0.301731
    H   H65   0.327495  0.032190  0.221857  0.165321
    H   H66   0.672506  0.032192  0.778145  0.165333
    H   H67   0.827495  0.532190  0.221857  0.165319
    H   H68   0.172506  0.532192  0.778145  0.165332
    C   C125  0.324067  0.995849  0.174218  0.089641
    C   C126  0.675934  0.995850  0.825782  0.089747
    C   C127  0.824067  0.495849  0.174218  0.089629
    C   C128  0.175934  0.495850  0.825782  0.089743
    O   O17   0.470201  0.049413  0.526156  -0.625867
    O   O18   0.529798  0.049414  0.473846  -0.625768
    O   O19   0.970201  0.549413  0.526156  -0.625842
    O   O20   0.029798  0.549414  0.473846  -0.625788
    C   C129  0.499999  0.065633  0.500001  0.644144
    C   C130  0.999999  0.565633  0.500001  0.644122
    O   O21   0.471659  0.997238  0.465830  -0.677445
    O   O22   0.528340  0.997238  0.534171  -0.677463
    O   O23   0.971659  0.497238  0.465830  -0.677456
    O   O24   0.028340  0.497238  0.534171  -0.677467
    O   O25   0.531553  0.998080  0.408540  -0.626942
    O   O26   0.468446  0.998080  0.591462  -0.626986
    O   O27   0.031553  0.498080  0.408540  -0.626963
    O   O28   0.968446  0.498080  0.591462  -0.626955
    C   C131  0.502158  0.999127  0.417017  0.885515
    C   C132  0.497841  0.999127  0.582984  0.885712
    C   C133  0.002158  0.499127  0.417017  0.885566
    C   C134  0.997841  0.499127  0.582984  0.885696
    Cu  Cu5   0.465412  0.998985  0.533100  1.043056
    Cu  Cu6   0.534587  0.998985  0.466901  1.043249
    Cu  Cu7   0.965412  0.498985  0.533100  1.043160
    Cu  Cu8   0.034587  0.498985  0.466901  1.043142
    O   O29   0.470078  0.948520  0.527472  -0.582361
    O   O30   0.529921  0.948520  0.472529  -0.582217
    O   O31   0.970078  0.448520  0.527472  -0.582336
    O   O32   0.029921  0.448520  0.472529  -0.582247
    C   C135  0.500000  0.932257  0.500001  0.660603
    C   C136  0.000000  0.432257  0.500001  0.660601
    O   O33   0.011142  0.948653  0.522982  -0.644257
    O   O34   0.988859  0.948653  0.477019  -0.644202
    O   O35   0.511142  0.448653  0.522982  -0.644222
    O   O36   0.488859  0.448653  0.477019  -0.644205
    C   C137  0.000001  0.932445  0.500000  0.818900
    C   C138  0.500001  0.432445  0.500000  0.818850
    O   O37   0.050393  0.008137  0.482214  -0.634991
    O   O38   0.949608  0.008137  0.517787  -0.634877
    O   O39   0.550393  0.508137  0.482214  -0.634973
    O   O40   0.449608  0.508137  0.517787  -0.634871
    O   O41   0.048580  0.987957  0.414939  -0.594884
    O   O42   0.951421  0.987957  0.585062  -0.594793
    O   O43   0.548580  0.487957  0.414939  -0.594881
    O   O44   0.451421  0.487957  0.585062  -0.594755
    C   C139  0.065776  0.998127  0.431634  0.723832
    C   C140  0.934225  0.998127  0.568367  0.723552
    C   C141  0.565776  0.498127  0.431634  0.723800
    C   C142  0.434225  0.498127  0.568367  0.723493
    Cu  Cu9   0.001117  0.998032  0.539900  0.963589
    Cu  Cu10  0.998884  0.998032  0.460100  0.963688
    Cu  Cu11  0.501117  0.498032  0.539900  0.963646
    Cu  Cu12  0.498884  0.498032  0.460100  0.963620
    O   O45   0.990791  0.047416  0.544163  -0.599025
    O   O46   0.009210  0.047416  0.455838  -0.599031
    O   O47   0.490791  0.547416  0.544163  -0.598992
    O   O48   0.509210  0.547416  0.455838  -0.599025
    C   C143  0.000000  0.063725  0.500000  0.702217
    C   C144  0.500000  0.563725  0.500000  0.702202
    C   C145  0.027242  0.876640  0.490719  -0.107864
    C   C146  0.972758  0.876640  0.509281  -0.107841
    C   C147  0.527242  0.376640  0.490719  -0.107870
    C   C148  0.472758  0.376640  0.509281  -0.107867
    H   H69   0.048941  0.890504  0.482608  0.127050
    H   H70   0.951060  0.890505  0.517393  0.127033
    H   H71   0.548941  0.390504  0.482608  0.127049
    H   H72   0.451060  0.390505  0.517393  0.127039
    C   C149  0.027642  0.840887  0.489336  -0.139667
    C   C150  0.972359  0.840887  0.510665  -0.139622
    C   C151  0.527642  0.340887  0.489336  -0.139664
    C   C152  0.472359  0.340887  0.510665  -0.139609
    H   H73   0.049823  0.827063  0.479524  0.087915
    H   H74   0.950178  0.827064  0.520477  0.087893
    H   H75   0.549823  0.327063  0.479524  0.087916
    H   H76   0.450178  0.327064  0.520477  0.087892
    C   C153  0.000000  0.822857  0.500000  0.312868
    C   C154  0.500000  0.322857  0.500000  0.312860
    C   C155  0.000000  0.894583  0.500000  -0.128712
    C   C156  0.500000  0.394583  0.500000  -0.128680
    C   C157  0.002276  0.766814  0.460036  0.573204
    C   C158  0.997724  0.766814  0.539965  0.573053
    C   C159  0.502276  0.266814  0.460036  0.573209
    C   C160  0.497724  0.266814  0.539965  0.573053
    C   C161  0.502829  0.230975  0.459786  -0.460202
    C   C162  0.497171  0.230975  0.540216  -0.460065
    C   C163  0.002829  0.730975  0.459786  -0.460196
    C   C164  0.997171  0.730975  0.540216  -0.460062
    H   H77   0.505989  0.216786  0.427538  0.175573
    H   H78   0.494011  0.216786  0.572464  0.175546
    H   H79   0.005989  0.716786  0.427538  0.175571
    H   H80   0.994011  0.716786  0.572464  0.175545
    C   C165  0.500000  0.213105  0.500001  0.087631
    C   C166  0.000000  0.713105  0.500001  0.087627
    C   C167  0.000000  0.784856  0.500001  -0.433601
    C   C168  0.500000  0.284856  0.500001  -0.433602
    C   C169  0.524768  0.157315  0.497860  -0.242070
    C   C170  0.475231  0.157315  0.502143  -0.242105
    C   C171  0.024768  0.657315  0.497860  -0.242058
    C   C172  0.975231  0.657315  0.502143  -0.242099
    H   H81   0.544349  0.171258  0.495882  0.157329
    H   H82   0.455650  0.171258  0.504121  0.157323
    H   H83   0.044349  0.671258  0.495882  0.157327
    H   H84   0.955650  0.671258  0.504121  0.157324
    C   C173  0.525241  0.121550  0.496653  -0.109548
    C   C174  0.474758  0.121550  0.503349  -0.109498
    C   C175  0.025241  0.621550  0.496653  -0.109564
    C   C176  0.974758  0.621550  0.503349  -0.109506
    H   H85   0.544985  0.107799  0.494450  0.137581
    H   H86   0.455013  0.107799  0.505552  0.137580
    H   H87   0.044985  0.607799  0.494450  0.137587
    H   H88   0.955013  0.607799  0.505552  0.137579
    C   C177  0.499999  0.103560  0.500001  0.005751
    C   C178  0.999999  0.603560  0.500001  0.005766
    C   C179  0.499999  0.175243  0.500001  0.265364
    C   C180  0.999999  0.675243  0.500001  0.265361
    C   C181  0.008950  0.119880  0.455064  -0.082895
    C   C182  0.991051  0.119880  0.544937  -0.082911
    C   C183  0.508950  0.619880  0.455064  -0.082905
    C   C184  0.491051  0.619880  0.544937  -0.082924
    H   H89   0.015880  0.106419  0.419477  0.109788
    H   H90   0.984121  0.106420  0.580524  0.109791
    H   H91   0.515880  0.606419  0.419477  0.109788
    H   H92   0.484121  0.606420  0.580524  0.109793
    C   C185  0.008968  0.155649  0.455071  -0.160213
    C   C186  0.991033  0.155649  0.544929  -0.160198
    C   C187  0.508968  0.655649  0.455071  -0.160201
    C   C188  0.491033  0.655649  0.544929  -0.160189
    H   H93   0.015360  0.169170  0.419879  0.118704
    H   H94   0.984641  0.169170  0.580121  0.118701
    H   H95   0.515360  0.669170  0.419879  0.118700
    H   H96   0.484641  0.669170  0.580121  0.118702
    C   C189  0.000000  0.173807  0.500000  0.104533
    C   C190  0.500000  0.673807  0.500000  0.104525
    C   C191  0.000000  0.101769  0.500000  -0.053699
    C   C192  0.500000  0.601769  0.500000  -0.053693
    C   C193  0.974287  0.230108  0.546697  -0.141060
    C   C194  0.025713  0.230108  0.453304  -0.141061
    C   C195  0.474287  0.730108  0.546697  -0.141066
    C   C196  0.525713  0.730108  0.453304  -0.141067
    H   H97   0.953544  0.216598  0.583516  0.111880
    H   H98   0.046456  0.216598  0.416484  0.111883
    H   H99   0.453544  0.716598  0.583516  0.111878
    H   H100  0.546456  0.716598  0.416484  0.111884
    C   C197  0.474245  0.765873  0.546663  -0.143208
    C   C198  0.525755  0.765873  0.453337  -0.143223
    C   C199  0.974245  0.265873  0.546663  -0.143215
    C   C200  0.025755  0.265873  0.453337  -0.143226
    H   H101  0.454119  0.779383  0.583980  0.107196
    H   H102  0.545881  0.779383  0.416021  0.107205
    H   H103  0.954119  0.279383  0.583980  0.107199
    H   H104  0.045881  0.279383  0.416021  0.107206
    C   C201  0.500000  0.784037  0.500000  0.084742
    C   C202  0.000000  0.284037  0.500000  0.084747
    C   C203  0.000000  0.211944  0.500000  0.065778
    C   C204  0.500000  0.711944  0.500000  0.065784
    C   C205  0.530859  0.840333  0.472676  -0.143869
    C   C206  0.469140  0.840333  0.527325  -0.143872
    C   C207  0.030859  0.340333  0.472676  -0.143861
    C   C208  0.969140  0.340333  0.527325  -0.143864
    H   H105  0.555274  0.826812  0.451984  0.113249
    H   H106  0.444725  0.826812  0.548017  0.113251
    H   H107  0.055274  0.326812  0.451984  0.113248
    H   H108  0.944725  0.326812  0.548017  0.113249
    C   C209  0.530872  0.876102  0.472688  -0.084430
    C   C210  0.469128  0.876102  0.527313  -0.084459
    C   C211  0.030872  0.376102  0.472688  -0.084441
    C   C212  0.969128  0.376102  0.527313  -0.084462
    H   H109  0.555377  0.889570  0.451257  0.112489
    H   H110  0.444622  0.889570  0.548744  0.112525
    H   H111  0.055377  0.389570  0.451257  0.112496
    H   H112  0.944622  0.389570  0.548744  0.112524
    C   C213  0.500000  0.894211  0.500000  -0.042922
    C   C214  0.000000  0.394211  0.500000  -0.042923
    C   C215  0.500000  0.822174  0.500000  0.081138
    C   C216  0.000000  0.322174  0.500000  0.081135
    O   O49   0.393915  0.035536  0.165008  -0.478527
    C   C217  0.395480  0.014985  0.199706  0.219999
    H   H113  0.412388  0.992143  0.177154  0.011711
    H   H114  0.369067  0.006179  0.235119  -0.018505
    C   C218  0.410480  0.036246  0.220451  0.222693
    H   H115  0.437732  0.043328  0.185681  0.003468
    H   H116  0.394875  0.060214  0.240106  -0.025972
    C   C219  0.409515  0.015409  0.261873  -0.324506
    H   H117  0.382212  0.009122  0.297432  0.060041
    H   H118  0.421164  0.030949  0.275973  0.058729
    H   H119  0.424446  0.991028  0.242885  0.041276
    O   O50   0.606087  0.035539  0.834994  -0.478588
    C   C220  0.604522  0.014990  0.800294  0.219943
    H   H120  0.587617  0.992146  0.822841  0.011767
    H   H121  0.630936  0.006188  0.764878  -0.018547
    C   C221  0.589518  0.036250  0.779555  0.222922
    H   H122  0.562266  0.043330  0.814329  0.003399
    H   H123  0.605120  0.060220  0.759904  -0.026020
    C   C222  0.590483  0.015416  0.738132  -0.324517
    H   H124  0.617786  0.009132  0.702571  0.060039
    H   H125  0.578831  0.030956  0.724038  0.058744
    H   H126  0.575555  0.991033  0.757117  0.041224
    O   O51   0.893915  0.535536  0.165008  -0.478547
    C   C223  0.895480  0.514985  0.199706  0.220003
    H   H127  0.912388  0.492143  0.177154  0.011709
    H   H128  0.869067  0.506179  0.235119  -0.018515
    C   C224  0.910480  0.536246  0.220451  0.222789
    H   H129  0.937732  0.543328  0.185681  0.003436
    H   H130  0.894875  0.560214  0.240106  -0.025998
    C   C225  0.909515  0.515409  0.261873  -0.324539
    H   H131  0.882212  0.509122  0.297432  0.060043
    H   H132  0.921164  0.530949  0.275973  0.058732
    H   H133  0.924446  0.491028  0.242885  0.041292
    O   O52   0.106087  0.535539  0.834994  -0.478601
    C   C226  0.104522  0.514990  0.800294  0.219941
    H   H134  0.087617  0.492146  0.822841  0.011770
    H   H135  0.130936  0.506188  0.764878  -0.018539
    C   C227  0.089518  0.536250  0.779555  0.222933
    H   H136  0.062266  0.543330  0.814329  0.003399
    H   H137  0.105120  0.560220  0.759904  -0.026019
    C   C228  0.090483  0.515416  0.738132  -0.324544
    H   H138  0.117786  0.509132  0.702571  0.060043
    H   H139  0.078831  0.530956  0.724038  0.058756
    H   H140  0.075555  0.491033  0.757117  0.041225
    O   O53   0.007256  0.784278  0.417911  -0.552541
    C   C229  0.975206  0.783964  0.429154  0.382829
    H   H141  0.966818  0.811076  0.431815  -0.012037
    H   H142  0.955228  0.770794  0.468617  -0.040889
    C   C230  0.978877  0.765655  0.383427  0.140994
    H   H143  0.998551  0.779358  0.344359  0.007552
    H   H144  0.987296  0.738467  0.379938  -0.019852
    C   C231  0.944299  0.765782  0.395166  -0.296135
    H   H145  0.924536  0.752005  0.434123  0.044936
    H   H146  0.947230  0.752396  0.361512  0.074892
    H   H147  0.935768  0.792898  0.398200  0.041910
    O   O54   0.992745  0.784278  0.582090  -0.552430
    C   C232  0.024794  0.783964  0.570847  0.382564
    H   H148  0.033183  0.811075  0.568186  -0.011954
    H   H149  0.044772  0.770793  0.531385  -0.040812
    C   C233  0.021123  0.765655  0.616575  0.140969
    H   H150  0.001449  0.779359  0.655643  0.007569
    H   H151  0.012703  0.738467  0.620065  -0.019853
    C   C234  0.055701  0.765782  0.604836  -0.296028
    H   H152  0.075463  0.752004  0.565879  0.044909
    H   H153  0.052770  0.752396  0.638490  0.074867
    H   H154  0.064233  0.792897  0.601800  0.041893
    O   O55   0.507256  0.284278  0.417911  -0.552539
    C   C235  0.475206  0.283964  0.429154  0.382816
    H   H155  0.466818  0.311076  0.431815  -0.012034
    H   H156  0.455228  0.270794  0.468617  -0.040888
    C   C236  0.478877  0.265655  0.383427  0.140999
    H   H157  0.498551  0.279358  0.344359  0.007551
    H   H158  0.487296  0.238467  0.379938  -0.019853
    C   C237  0.444299  0.265782  0.395166  -0.296132
    H   H159  0.424536  0.252005  0.434123  0.044935
    H   H160  0.447230  0.252396  0.361512  0.074891
    H   H161  0.435768  0.292898  0.398200  0.041909
    O   O56   0.492745  0.284278  0.582090  -0.552425
    C   C238  0.524794  0.283964  0.570847  0.382556
    H   H162  0.533183  0.311075  0.568186  -0.011953
    H   H163  0.544772  0.270793  0.531385  -0.040810
    C   C239  0.521123  0.265655  0.616575  0.140973
    H   H164  0.501449  0.279359  0.655643  0.007567
    H   H165  0.512703  0.238467  0.620065  -0.019855
    C   C240  0.555701  0.265782  0.604836  -0.296023
    H   H166  0.575463  0.252004  0.565879  0.044908
    H   H167  0.552770  0.252396  0.638490  0.074865
    H   H168  0.564233  0.292897  0.601800  0.041891
