# Generated by REPEAT Assigner based on pymatgen
data_DB0-m9_o6_o17_f0_sra.sym.14_sqe
_audit_creation_date              2022-05-24
_audit_creation_method            REPEAT_Assigner
_cell_length_a                    23.732500
_cell_length_b                    6.818000
_cell_length_c                    20.024903
_cell_angle_alpha                 90.000000
_cell_angle_beta                  94.701290
_cell_angle_gamma                 90.000000
_cell_volume                      3229.291699
_symmetry_space_group_name_H-M    P1
_symmetry_Int_Tables_number       1
loop_
    _symmetry_equiv_pos_site_id
    _symmetry_equiv_pos_as_xyz
    1  x,y,z
loop_
    _atom_site_type_symbol
    _atom_site_label
    _atom_site_fract_x
    _atom_site_fract_y
    _atom_site_fract_z
    _atom_type_partial_charge
    O  O1   0.309354  0.630504  0.199199  -0.509470
    O  O2   0.690672  0.369619  0.800848  -0.510139
    O  O3   0.190645  0.130501  0.300801  -0.509388
    O  O4   0.809326  0.869617  0.699153  -0.510123
    O  O5   0.189954  0.283111  0.173877  -0.481474
    O  O6   0.810071  0.717009  0.826083  -0.481543
    O  O7   0.310046  0.783115  0.326125  -0.481503
    O  O8   0.689928  0.217011  0.673917  -0.481516
    C  C1   0.167326  0.461958  0.165834  0.521231
    C  C2   0.832706  0.538177  0.834124  0.522068
    C  C3   0.332674  0.961962  0.334168  0.521264
    C  C4   0.667293  0.038179  0.665877  0.521985
    O  O9   0.305021  0.283330  0.178985  -0.514912
    O  O10  0.695010  0.716793  0.821051  -0.515558
    O  O11  0.194980  0.783329  0.321018  -0.515056
    O  O12  0.804990  0.216793  0.678952  -0.515572
    O  O13  0.313558  0.130444  0.306187  -0.476246
    O  O14  0.686417  0.869683  0.693843  -0.476859
    O  O15  0.186443  0.630442  0.193815  -0.476244
    O  O16  0.813584  0.369681  0.806156  -0.476895
    C  C5   0.327097  0.462573  0.172699  0.650137
    C  C6   0.672935  0.537549  0.827361  0.651492
    C  C7   0.172903  0.962571  0.327303  0.650306
    C  C8   0.827064  0.037548  0.672639  0.651497
    O  O17  0.251595  0.451021  0.290867  -0.487988
    O  O18  0.748389  0.549101  0.709143  -0.487752
    O  O19  0.248405  0.951022  0.209135  -0.487969
    O  O20  0.751607  0.049102  0.790857  -0.487708
    V  V1   0.249733  0.179787  0.238889  1.362380
    V  V2   0.750267  0.820339  0.761105  1.362869
    V  V3   0.250267  0.679786  0.261113  1.362930
    V  V4   0.749732  0.320336  0.738896  1.363203
    C  C9   0.972589  0.173659  0.510761  -0.095982
    C  C10  0.027428  0.826523  0.489178  -0.091773
    C  C11  0.527412  0.673658  0.989240  -0.095476
    C  C12  0.472570  0.326525  0.010820  -0.092307
    H  H1   0.951525  0.311240  0.518746  0.129697
    H  H2   0.048531  0.688987  0.481233  0.129715
    H  H3   0.548478  0.811235  0.981258  0.129621
    H  H4   0.451466  0.188989  0.018765  0.129808
    C  C13  0.956028  0.006462  0.543505  -0.092189
    C  C14  0.043965  0.993693  0.456415  -0.096427
    C  C15  0.543971  0.506463  0.956495  -0.092906
    C  C16  0.456034  0.493697  0.043584  -0.095676
    C  C17  0.984043  0.832592  0.532145  0.232023
    C  C18  0.015937  0.167543  0.467740  0.237291
    C  C19  0.515955  0.332592  0.967852  0.232703
    C  C20  0.484062  0.667541  0.032260  0.236730
    C  C21  0.910392  0.013774  0.589007  0.048699
    C  C22  0.089588  0.986371  0.410914  0.048664
    C  C23  0.589607  0.513775  0.910994  0.048938
    C  C24  0.410412  0.486372  0.089086  0.048144
    C  C25  0.127540  0.977975  0.372936  -0.210144
    C  C26  0.872432  0.022160  0.626988  -0.210613
    C  C27  0.372460  0.477977  0.127066  -0.209772
    C  C28  0.627568  0.522158  0.873012  -0.210673
    C  C29  0.412610  0.148807  0.393303  -0.198888
    C  C30  0.587349  0.851350  0.606741  -0.198068
    C  C31  0.087390  0.648805  0.106696  -0.198713
    C  C32  0.912650  0.351354  0.893258  -0.198016
    C  C33  0.382169  0.976017  0.384186  0.023836
    C  C34  0.617788  0.024145  0.615868  0.022286
    C  C35  0.117831  0.476014  0.115814  0.023793
    C  C36  0.882212  0.524152  0.884133  0.022202
    C  C37  0.399401  0.813507  0.422156  -0.256261
    C  C38  0.600552  0.186667  0.577901  -0.254898
    C  C39  0.100599  0.313507  0.077844  -0.256244
    C  C40  0.899446  0.686669  0.922101  -0.254773
    C  C41  0.446072  0.823554  0.468616  0.193436
    C  C42  0.553882  0.176621  0.531437  0.192810
    C  C43  0.053927  0.323553  0.031383  0.193499
    C  C44  0.946117  0.676621  0.968563  0.192746
    C  C45  0.476461  0.995418  0.477012  -0.106380
    C  C46  0.523495  0.004755  0.523041  -0.105496
    C  C47  0.023539  0.495417  0.022987  -0.106254
    C  C48  0.976506  0.504757  0.976960  -0.105501
    C  C49  0.459748  0.157854  0.439264  0.149092
    C  C50  0.540213  0.842307  0.560779  0.148547
    C  C51  0.040253  0.657853  0.060735  0.148680
    C  C52  0.959788  0.342308  0.939221  0.148466
    C  C53  0.462556  0.661425  0.506780  0.008811
    C  C54  0.537407  0.338734  0.493259  0.009009
    C  C55  0.037444  0.161426  0.993219  0.008726
    C  C56  0.962592  0.838733  0.006741  0.008911
    C  C57  0.509428  0.670794  0.552604  -0.166681
    C  C58  0.490542  0.329353  0.447425  -0.166760
    C  C59  0.990572  0.170793  0.947396  -0.166644
    C  C60  0.009458  0.829353  0.052574  -0.166281
    H  H5   0.400007  0.276830  0.363927  0.096962
    H  H6   0.599955  0.723318  0.636112  0.097100
    H  H7   0.099994  0.776832  0.136073  0.096920
    H  H8   0.900045  0.223320  0.863886  0.097094
    H  H9   0.376198  0.677502  0.415582  0.154224
    H  H10  0.623758  0.322678  0.584467  0.153694
    H  H11  0.123802  0.177499  0.084419  0.154249
    H  H12  0.876240  0.822674  0.915536  0.153657
    H  H13  0.521895  0.543328  0.582347  0.117240
    H  H14  0.478085  0.456797  0.417668  0.117498
    H  H15  0.978104  0.043330  0.917652  0.117225
    H  H16  0.021916  0.956799  0.082331  0.117329
    O  O21  0.030899  0.334961  0.436165  -0.347586
    C  C61  0.001218  0.325760  0.373227  0.429672
    H  H17  0.961110  0.244663  0.377100  -0.065659
    H  H18  0.027208  0.249226  0.337723  -0.054850
    C  C62  0.987991  0.531549  0.348233  -0.280766
    H  H19  0.027993  0.613239  0.344292  0.078202
    H  H20  0.964201  0.524291  0.298263  0.050306
    H  H21  0.962073  0.607853  0.383858  0.067605
    O  O22  0.969056  0.665106  0.563656  -0.346712
    C  C63  0.998912  0.673745  0.626494  0.430410
    H  H22  0.973215  0.751359  0.662049  -0.055731
    H  H23  0.039215  0.753495  0.622426  -0.066287
    C  C64  0.011651  0.467710  0.651562  -0.277451
    H  H24  0.037247  0.390279  0.615868  0.066509
    H  H25  0.035602  0.474577  0.701439  0.049310
    H  H26  0.971453  0.387397  0.655727  0.077712
    O  O23  0.469103  0.834958  0.063837  -0.347462
    C  C65  0.498783  0.825750  0.126773  0.429686
    H  H27  0.538891  0.744649  0.122900  -0.065675
    H  H28  0.472793  0.749212  0.162277  -0.054914
    C  C66  0.512013  0.031536  0.151771  -0.280428
    H  H29  0.472011  0.113225  0.155714  0.078131
    H  H30  0.535803  0.024267  0.201740  0.050224
    H  H31  0.537931  0.107839  0.116147  0.067487
    O  O24  0.530941  0.165107  0.936340  -0.346940
    C  C67  0.501084  0.173746  0.873504  0.430530
    H  H32  0.526775  0.251382  0.837949  -0.055720
    H  H33  0.460777  0.253470  0.877574  -0.066433
    C  C68  0.488353  0.967710  0.848431  -0.276993
    H  H34  0.462761  0.890253  0.884124  0.066417
    H  H35  0.464401  0.974571  0.798554  0.049149
    H  H36  0.528555  0.887419  0.844264  0.077567
    O  O25  0.432231  0.491368  0.499568  -0.124184
    C  C69  0.397103  0.494456  0.552055  0.226368
    H  H37  0.422653  0.525854  0.599727  -0.022975
    H  H38  0.376367  0.349527  0.555744  0.010051
    C  C70  0.352439  0.651486  0.539095  -0.332144
    H  H39  0.326366  0.617916  0.491979  0.093736
    H  H40  0.325023  0.655486  0.581334  0.075180
    H  H41  0.373181  0.796096  0.534550  0.102255
    O  O26  0.567732  0.508790  0.500464  -0.124171
    C  C71  0.602830  0.505762  0.447948  0.226521
    H  H42  0.623585  0.650665  0.444284  0.010131
    H  H43  0.577252  0.474503  0.400284  -0.023214
    C  C72  0.647474  0.348636  0.460839  -0.332347
    H  H44  0.626716  0.204056  0.465381  0.102251
    H  H45  0.674856  0.344636  0.418568  0.075209
    H  H46  0.673582  0.382104  0.507939  0.093802
    O  O27  0.067767  0.991369  0.000429  -0.124161
    C  C73  0.102896  0.994458  0.947942  0.226312
    H  H47  0.077347  0.025858  0.900271  -0.022970
    H  H48  0.123633  0.849530  0.944254  0.010065
    C  C74  0.147560  0.151489  0.960905  -0.332073
    H  H49  0.173632  0.117917  0.008021  0.093706
    H  H50  0.174976  0.155494  0.918667  0.075171
    H  H51  0.126816  0.296097  0.965451  0.102229
    O  O28  0.932268  0.008790  0.999536  -0.124045
    C  C75  0.897169  0.005762  0.052051  0.226197
    H  H52  0.876413  0.150669  0.055713  0.010202
    H  H53  0.922747  0.974513  0.099715  -0.023108
    C  C76  0.852526  0.848638  0.039162  -0.332251
    H  H54  0.873285  0.704056  0.034621  0.102209
    H  H55  0.825144  0.844639  0.081433  0.075206
    H  H56  0.826418  0.882099  0.992061  0.093801
