data_DB0-m3_o530_o6_f0_fsc.sym.4_repeat
_audit_creation_date              2024-02-20
_audit_creation_method            'Materials Studio'
_symmetry_space_group_name_H-M    'P1'
_symmetry_Int_Tables_number       1
_symmetry_cell_setting            triclinic
loop_
_symmetry_equiv_pos_as_xyz
  x,y,z
_cell_length_a                    18.9341
_cell_length_b                    8.5365
_cell_length_c                    14.4330
_cell_angle_alpha                 90.0000
_cell_angle_beta                  102.0742
_cell_angle_gamma                 90.0000
loop_
_atom_site_label
_atom_site_type_symbol
_atom_site_fract_x
_atom_site_fract_y
_atom_site_fract_z
_atom_site_U_iso_or_equiv
_atom_site_adp_type
_atom_site_occupancy
C1     C     0.87036   0.90970   0.07744   0.00000  Uiso   1.00
C2     C     0.12964   0.09029   0.92256   0.00000  Uiso   1.00
C3     C     0.15705   0.91173   0.04840   0.00000  Uiso   1.00
C4     C     0.84295   0.08826   0.95161   0.00000  Uiso   1.00
N1     N     0.82210   0.99917   0.01835   0.00000  Uiso   1.00
N2     N     0.17790   0.00083   0.98166   0.00000  Uiso   1.00
C5     C     0.91446   0.09004   0.94347   0.00000  Uiso   1.00
C6     C     0.08554   0.90994   0.05653   0.00000  Uiso   1.00
C7     C     0.05785   0.09134   0.92915   0.00000  Uiso   1.00
C8     C     0.94215   0.90864   0.07085   0.00000  Uiso   1.00
C9     C     0.96424   0.99969   0.00357   0.00000  Uiso   1.00
C10    C     0.03576   0.00030   0.99643   0.00000  Uiso   1.00
C11    C     0.93645   0.18102   0.87547   0.00000  Uiso   1.00
C12    C     0.06355   0.81898   0.12453   0.00000  Uiso   1.00
C13    C     0.00795   0.18171   0.86837   0.00000  Uiso   1.00
C14    C     0.99205   0.81829   0.13163   0.00000  Uiso   1.00
O1     O     0.84882   0.82494   0.14494   0.00000  Uiso   1.00
O2     O     0.15118   0.17505   0.85507   0.00000  Uiso   1.00
O3     O     0.20633   0.82787   0.10890   0.00000  Uiso   1.00
O4     O     0.79368   0.17214   0.89110   0.00000  Uiso   1.00
H1     H     0.89836   0.25270   0.82733   0.00000  Uiso   1.00
H2     H     0.10164   0.74731   0.17268   0.00000  Uiso   1.00
H3     H     0.02405   0.25394   0.81488   0.00000  Uiso   1.00
H4     H     0.97595   0.74607   0.18513   0.00000  Uiso   1.00
C15    C     0.28745   0.85949   0.96904   0.00000  Uiso   1.00
C16    C     0.71255   0.14052   0.03097   0.00000  Uiso   1.00
C17    C     0.71252   0.85998   0.03173   0.00000  Uiso   1.00
C18    C     0.28747   0.14002   0.96826   0.00000  Uiso   1.00
H5     H     0.26100   0.74897   0.97526   0.00000  Uiso   1.00
H6     H     0.73901   0.25103   0.02476   0.00000  Uiso   1.00
H7     H     0.73811   0.75012   0.02123   0.00000  Uiso   1.00
H8     H     0.26188   0.24989   0.97876   0.00000  Uiso   1.00
C19    C     0.35742   0.85988   0.95551   0.00000  Uiso   1.00
C20    C     0.64258   0.14013   0.04449   0.00000  Uiso   1.00
C21    C     0.64248   0.86049   0.04499   0.00000  Uiso   1.00
C22    C     0.35752   0.13951   0.95502   0.00000  Uiso   1.00
C23    C     0.39113   0.99955   0.94516   0.00000  Uiso   1.00
C24    C     0.60887   0.00045   0.05484   0.00000  Uiso   1.00
C25    C     0.25139   0.99991   0.97212   0.00000  Uiso   1.00
C26    C     0.74861   0.00009   0.02788   0.00000  Uiso   1.00
H9     H     0.44702   0.99931   0.93915   0.00000  Uiso   1.00
H10    H     0.55297   0.00071   0.06086   0.00000  Uiso   1.00
O5     O     0.42370   0.66804   0.05573   0.00000  Uiso   1.00
O6     O     0.57630   0.33197   0.94427   0.00000  Uiso   1.00
O7     O     0.57604   0.66895   0.94432   0.00000  Uiso   1.00
O8     O     0.42396   0.33106   0.05568   0.00000  Uiso   1.00
O9     O     0.42611   0.66401   0.89647   0.00000  Uiso   1.00
O10    O     0.57389   0.33600   0.10353   0.00000  Uiso   1.00
O11    O     0.57366   0.66419   0.10359   0.00000  Uiso   1.00
O12    O     0.42634   0.33582   0.89641   0.00000  Uiso   1.00
C27    C     0.40137   0.71821   0.96865   0.00000  Uiso   1.00
C28    C     0.59863   0.28180   0.03136   0.00000  Uiso   1.00
C29    C     0.59832   0.71897   0.03148   0.00000  Uiso   1.00
C30    C     0.40168   0.28103   0.96853   0.00000  Uiso   1.00
Zn1    Zn    0.50292   0.50020   0.89739   0.00000  Uiso   1.00
Zn2    Zn    0.49708   0.49981   0.10261   0.00000  Uiso   1.00
H11    H     0.61714   0.49731   0.61264   0.00000  Uiso   1.00
H12    H     0.38287   0.50270   0.38736   0.00000  Uiso   1.00
C31    C     0.56326   0.49856   0.46700   0.00000  Uiso   1.00
C32    C     0.43675   0.50145   0.53300   0.00000  Uiso   1.00
C33    C     0.49758   0.49995   0.40386   0.00000  Uiso   1.00
C34    C     0.50242   0.50004   0.59613   0.00000  Uiso   1.00
C35    C     0.43432   0.50148   0.43685   0.00000  Uiso   1.00
C36    C     0.56568   0.49853   0.56315   0.00000  Uiso   1.00
C37    C     0.49529   0.49978   0.30387   0.00000  Uiso   1.00
C38    C     0.50471   0.50021   0.69613   0.00000  Uiso   1.00
N3     N     0.50585   0.50033   0.77659   0.00000  Uiso   1.00
N4     N     0.49414   0.49968   0.22341   0.00000  Uiso   1.00
O13    O     0.62593   0.49723   0.43427   0.00000  Uiso   1.00
H13    H     0.63810   0.60925   0.42917   0.00000  Uiso   1.00
O14    O     0.37408   0.50276   0.56574   0.00000  Uiso   1.00
H14    H     0.36188   0.39074   0.57075   0.00000  Uiso   1.00
