# Generated by REPEAT Assigner based on pymatgen
data_DB0-m12_o8_o32_tfz-d
_audit_creation_date              2022-05-24
_audit_creation_method            REPEAT_Assigner
_cell_length_a                    23.325129
_cell_length_b                    18.519865
_cell_length_c                    18.438679
_cell_angle_alpha                 117.450533
_cell_angle_beta                  90.166362
_cell_angle_gamma                 88.626189
_cell_volume                      7065.979962
_symmetry_space_group_name_H-M    P1
_symmetry_Int_Tables_number       1
loop_
    _symmetry_equiv_pos_site_id
    _symmetry_equiv_pos_as_xyz
    1  x,y,z
loop_
    _atom_site_type_symbol
    _atom_site_label
    _atom_site_fract_x
    _atom_site_fract_y
    _atom_site_fract_z
    _atom_type_partial_charge
    C   C1   0.692183  0.555826  0.562643  -0.285078
    H   H1   0.703064  0.604396  0.621684  0.138374
    N   N1   0.637592  0.528965  0.541256  0.022120
    C   C2   0.421603  0.574353  0.321914  -0.220835
    H   H2   0.410253  0.529419  0.261148  0.142511
    N   N2   0.439421  0.556289  0.381044  -0.017893
    C   C3   0.604559  0.407074  0.296886  0.102677
    H   H3   0.645740  0.379167  0.296374  0.081179
    N   N3   0.564470  0.423897  0.354690  -0.227039
    C   C4   0.513882  0.749581  0.585881  -0.036654
    H   H4   0.478862  0.790502  0.589868  0.109192
    N   N4   0.507631  0.671934  0.571662  -0.079787
    C   C5   0.522685  0.427268  0.251218  0.013611
    H   H5   0.488371  0.424227  0.210495  0.092743
    N   N5   0.514423  0.438455  0.328139  -0.085143
    C   C6   0.596764  0.702797  0.602393  0.066538
    H   H6   0.638344  0.702544  0.627805  0.094313
    N   N6   0.558194  0.644450  0.583922  -0.240245
    C   C7   0.420875  0.686005  0.438457  -0.157103
    H   H7   0.407050  0.744708  0.486464  0.121521
    N   N7   0.438321  0.623557  0.451460  -0.045417
    C   C8   0.696328  0.444087  0.446725  -0.243472
    H   H8   0.711294  0.387745  0.396202  0.142670
    N   N8   0.640014  0.461317  0.471207  -0.057074
    C   C9   0.731682  0.503683  0.503496  0.169520
    C   C10  0.408943  0.656328  0.357061  0.045625
    C   C11  0.579515  0.406802  0.229976  -0.182282
    C   C12  0.570104  0.770135  0.604884  -0.096583
    C   C13  0.479474  0.573275  0.746314  -0.005933
    H   H9   0.514115  0.576397  0.786557  0.101174
    N   N9   0.486973  0.562287  0.669432  -0.069976
    C   C14  0.403965  0.299049  0.395378  0.083151
    H   H10  0.362788  0.299923  0.369271  0.086909
    N   N10  0.442955  0.356660  0.413841  -0.237641
    C   C15  0.582833  0.315237  0.560456  -0.219545
    H   H11  0.597145  0.256356  0.513284  0.139311
    N   N11  0.563935  0.376364  0.545973  -0.002611
    C   C16  0.305093  0.555888  0.551264  -0.254230
    H   H12  0.290343  0.611931  0.602370  0.144764
    N   N12  0.361320  0.538654  0.526300  -0.043998
    C   C17  0.308767  0.445081  0.434486  -0.281519
    H   H13  0.297664  0.397110  0.375204  0.137696
    N   N13  0.363461  0.471465  0.455816  0.008376
    C   C18  0.576521  0.427241  0.676454  -0.160329
    H   H14  0.587038  0.473223  0.737106  0.125929
    N   N14  0.560656  0.444015  0.615906  -0.058105
    C   C19  0.397095  0.594050  0.702305  0.093777
    H   H15  0.355653  0.621760  0.703679  0.085425
    N   N15  0.436690  0.576989  0.643623  -0.236361
    C   C20  0.486241  0.251121  0.412344  -0.018067
    H   H16  0.520917  0.209845  0.408783  0.102411
    N   N16  0.493252  0.328679  0.426383  -0.088781
    Ni  Ni1  0.560132  0.545248  0.601756  0.317437
    Ni  Ni2  0.440861  0.455276  0.395297  0.318354
    Ni  Ni3  0.564822  0.397862  0.448886  0.323948
    Ni  Ni4  0.436535  0.602182  0.548771  0.331032
    C   C21  0.422964  0.593685  0.768582  -0.160168
    C   C22  0.429775  0.231368  0.392911  -0.123549
    C   C23  0.591781  0.346247  0.642965  0.045133
    C   C24  0.269497  0.496890  0.494214  0.175362
    C   C25  0.672618  0.070944  0.799694  0.083418
    C   C26  0.706464  0.192430  0.803070  -0.045296
    C   C27  0.680774  0.191099  0.926543  0.082400
    C   C28  0.694808  0.110981  0.759827  -0.128367
    H   H17  0.691409  0.082285  0.694103  0.109009
    C   C29  0.707890  0.228031  0.886934  -0.158323
    H   H18  0.716722  0.292104  0.920577  0.085552
    C   C30  0.663216  0.112058  0.882861  -0.238973
    H   H19  0.639737  0.083781  0.913065  0.087978
    C   C31  0.677466  0.931379  0.689198  -0.210856
    C   C32  0.651707  0.859540  0.639287  -0.066217
    C   C33  0.594040  0.850569  0.648263  0.036166
    C   C34  0.562040  0.913758  0.707340  -0.105599
    C   C35  0.588220  0.984926  0.758816  -0.190513
    C   C36  0.646092  0.993357  0.750303  0.143332
    H   H20  0.677114  0.809960  0.593548  0.085184
    H   H21  0.517155  0.906724  0.716302  0.095436
    H   H22  0.722595  0.938303  0.681461  0.106711
    H   H23  0.562907  0.034359  0.804887  0.126227
    C   C37  0.596937  0.244792  0.016654  -0.156686
    C   C38  0.571127  0.302000  0.087516  -0.155578
    C   C39  0.604034  0.358270  0.148787  0.111778
    C   C40  0.662631  0.357830  0.138145  -0.101983
    C   C41  0.688298  0.301497  0.066734  -0.212201
    C   C42  0.655649  0.243781  0.006424  0.133857
    H   H24  0.525444  0.299897  0.095541  0.105898
    H   H25  0.688899  0.401151  0.186161  0.094445
    H   H26  0.570424  0.202216  0.968462  0.122509
    H   H27  0.734115  0.302408  0.058589  0.122907
    C   C43  0.700025  0.218619  0.683734  -0.244153
    C   C44  0.668330  0.251770  0.642853  -0.098335
    C   C45  0.626791  0.311005  0.684251  0.087962
    C   C46  0.619556  0.340458  0.766925  -0.182165
    C   C47  0.650303  0.306917  0.807417  -0.139655
    C   C48  0.689716  0.244034  0.765742  0.176878
    H   H28  0.675988  0.229971  0.578320  0.104983
    H   H29  0.586937  0.386353  0.800002  0.114481
    H   H30  0.730636  0.169746  0.650014  0.129360
    H   H31  0.638297  0.326502  0.870327  0.128228
    C   C49  0.323128  0.934426  0.194928  0.085357
    C   C50  0.326818  0.805001  0.076884  0.078865
    C   C51  0.294835  0.817109  0.204452  -0.040188
    C   C52  0.338646  0.886666  0.114361  -0.236964
    H   H32  0.362235  0.912379  0.081778  0.086481
    C   C53  0.304669  0.770212  0.121858  -0.130110
    H   H33  0.306329  0.704647  0.094723  0.109440
    C   C54  0.295543  0.900429  0.237035  -0.160889
    H   H34  0.287364  0.937237  0.301647  0.087544
    C   C55  0.408696  0.017691  0.237828  -0.156216
    C   C56  0.435947  0.087290  0.290784  -0.148877
    C   C57  0.404370  0.151951  0.348536  0.072325
    C   C58  0.345803  0.146110  0.354035  -0.077333
    C   C59  0.318735  0.076273  0.301954  -0.221156
    C   C60  0.349931  0.012364  0.242721  0.137664
    H   H35  0.481589  0.091715  0.284400  0.105873
    H   H36  0.320576  0.196677  0.398803  0.085450
    H   H37  0.434089  0.966720  0.193975  0.121043
    H   H38  0.272937  0.072158  0.307480  0.123562
    C   C61  0.348802  0.821879  0.320296  -0.146079
    C   C62  0.379256  0.780963  0.353793  -0.171589
    C   C63  0.373086  0.698827  0.324095  0.083714
    C   C64  0.331920  0.658792  0.266472  -0.087323
    C   C65  0.299977  0.700242  0.234162  -0.246773
    C   C66  0.310306  0.781180  0.257906  0.170672
    H   H39  0.411278  0.812797  0.399148  0.112633
    H   H40  0.324870  0.594792  0.245238  0.099520
    H   H41  0.360600  0.883962  0.339311  0.129893
    H   H42  0.269527  0.667366  0.186644  0.130089
    C   C67  0.409251  0.752940  0.983609  -0.197994
    C   C68  0.433718  0.697595  0.910761  -0.110427
    C   C69  0.400068  0.640903  0.850882  0.072445
    C   C70  0.342287  0.638422  0.864961  -0.078574
    C   C71  0.318176  0.692311  0.938734  -0.218815
    C   C72  0.351367  0.750908  0.997255  0.153160
    H   H43  0.478702  0.701906  0.899950  0.095070
    H   H44  0.315571  0.594791  0.817915  0.092360
    H   H45  0.435938  0.797031  0.030290  0.129903
    H   H46  0.272961  0.689737  0.949823  0.109249
    C   C73  0.203201  0.493461  0.491072  -0.058623
    C   C74  0.166565  0.552469  0.550218  -0.162506
    C   C75  0.105825  0.547821  0.545850  -0.139408
    C   C76  0.078479  0.483314  0.481668  0.459358
    C   C77  0.115100  0.424898  0.423377  -0.335298
    C   C78  0.175223  0.429532  0.427699  -0.031091
    C   C79  0.895403  0.452946  0.452382  -0.137225
    C   C80  0.834678  0.448197  0.447921  -0.163323
    C   C81  0.922673  0.517625  0.516471  0.457581
    N   N17  0.016315  0.473355  0.472071  -0.250974
    N   N18  0.984831  0.527634  0.526128  -0.250990
    C   C82  0.797967  0.507282  0.506855  -0.055500
    H   H47  0.816246  0.396816  0.396924  0.149461
    H   H48  0.920710  0.405016  0.404673  0.062192
    H   H49  0.096402  0.373596  0.372522  0.121009
    H   H50  0.200026  0.381161  0.379892  0.127756
    C   C83  0.825859  0.571394  0.570147  -0.033128
    C   C84  0.885983  0.576116  0.574581  -0.333603
    H   H51  0.800984  0.619805  0.617809  0.129062
    H   H52  0.080562  0.595672  0.593702  0.063245
    H   H53  0.904625  0.627542  0.625366  0.121070
    H   H54  0.185068  0.603711  0.601281  0.150766
