# Generated by REPEAT Assigner based on pymatgen
data_DB0-m2_o15_o17_f0_pcu.sym.23
_audit_creation_date              2022-05-24
_audit_creation_method            REPEAT_Assigner
_cell_length_a                    10.960984
_cell_length_b                    9.552069
_cell_length_c                    14.991515
_cell_angle_alpha                 90.000000
_cell_angle_beta                  90.006419
_cell_angle_gamma                 90.000000
_cell_volume                      1569.612766
_symmetry_space_group_name_H-M    P1
_symmetry_Int_Tables_number       1
loop_
    _symmetry_equiv_pos_site_id
    _symmetry_equiv_pos_as_xyz
    1  x,y,z
loop_
    _atom_site_type_symbol
    _atom_site_label
    _atom_site_fract_x
    _atom_site_fract_y
    _atom_site_fract_z
    _atom_type_partial_charge
    O   O1   0.314882  0.618780  0.500392  -0.530751
    O   O2   0.675963  0.392310  0.504433  -0.508162
    O   O3   0.669406  0.631116  0.499337  -0.414984
    O   O4   0.321488  0.380361  0.503251  -0.469488
    C   C1   0.259112  0.496489  0.505396  0.606299
    C   C2   0.731437  0.514439  0.497262  0.599873
    O   O5   0.489930  0.629108  0.373212  -0.515392
    O   O6   0.499566  0.382154  0.630857  -0.545424
    O   O7   0.486444  0.621490  0.632398  -0.587027
    O   O8   0.506283  0.389836  0.371596  -0.619031
    C   C3   0.501551  0.510643  0.330660  0.679904
    C   C4   0.491266  0.501098  0.673511  0.626277
    Cu  Cu1  0.491794  0.645897  0.503038  0.808424
    Cu  Cu2  0.499111  0.365377  0.500942  0.787865
    C   C5   0.587991  0.563208  0.815633  -0.377323
    C   C6   0.407707  0.451847  0.188130  -0.377285
    C   C7   0.492572  0.500555  0.771197  0.185143
    C   C8   0.503254  0.512860  0.233075  0.132906
    C   C9   0.396333  0.445098  0.819135  -0.504692
    C   C10  0.600180  0.570004  0.185780  -0.395943
    C   C11  0.398550  0.446876  0.911847  0.333060
    C   C12  0.597458  0.569698  0.092706  0.315883
    C   C13  0.496307  0.506941  0.955975  -0.067191
    C   C14  0.499935  0.509022  0.048377  -0.095924
    C   C15  0.589986  0.566124  0.907610  0.272117
    C   C16  0.405777  0.450097  0.096372  0.290899
    C   C17  0.304734  0.387660  0.961109  -0.291072
    C   C18  0.689220  0.632578  0.042981  -0.299610
    C   C19  0.308748  0.389553  0.052747  -0.227237
    C   C20  0.685606  0.629547  0.951229  -0.200711
    H   H1   0.661826  0.609279  0.777937  0.168148
    H   H2   0.333383  0.406155  0.225495  0.163248
    H   H3   0.227615  0.336891  0.930274  0.182270
    H   H4   0.763989  0.688120  0.073451  0.183969
    H   H5   0.235036  0.342757  0.090233  0.147373
    H   H6   0.758160  0.678510  0.913654  0.135360
    H   H7   0.069281  0.039051  0.414802  0.070367
    H   H8   0.921473  0.970761  0.584095  0.075124
    H   H9   0.870785  0.096952  0.349528  0.123400
    H   H10  0.115708  0.907504  0.655114  0.148972
    C   C21  0.119168  0.705560  0.596611  -0.040649
    C   C22  0.868630  0.301508  0.406133  0.003592
    C   C23  0.892127  0.765326  0.532411  -0.152502
    C   C24  0.098833  0.245322  0.465001  -0.362133
    C   C25  0.067229  0.832626  0.614768  -0.288007
    C   C26  0.920398  0.174211  0.387747  -0.277158
    C   C27  0.957433  0.866071  0.577222  0.024007
    C   C28  0.032527  0.143280  0.422174  0.109082
    C   C29  0.938201  0.630439  0.521593  0.055865
    C   C30  0.052086  0.379618  0.477516  0.287108
    C   C31  0.060522  0.609249  0.541978  0.154878
    C   C32  0.928910  0.399741  0.458744  0.023658
    C   C33  0.867944  0.519246  0.488117  -0.209803
    C   C34  0.122124  0.490718  0.512133  -0.291377
    H   H11  0.205143  0.682631  0.628507  0.122358
    H   H12  0.781295  0.323130  0.375926  0.099240
    H   H13  0.810551  0.800484  0.500048  0.124670
    H   H14  0.181946  0.210873  0.494998  0.133621
    H   H15  0.232748  0.138825  0.269690  0.101497
    H   H16  0.762234  0.872062  0.731558  0.111423
    H   H17  0.771945  0.127075  0.728386  0.088694
    H   H18  0.220540  0.884203  0.274484  0.109568
    C   C35  0.648953  0.143105  0.619212  -0.228203
    C   C36  0.341477  0.868194  0.384854  -0.172064
    C   C37  0.355656  0.149565  0.379150  -0.134642
    C   C38  0.637250  0.861525  0.623320  -0.142253
    C   C39  0.713180  0.071592  0.682518  -0.047743
    C   C40  0.279107  0.939522  0.320473  -0.080134
    C   C41  0.286196  0.080655  0.317633  -0.131238
    C   C42  0.707520  0.930330  0.684429  -0.126737
    C   C43  0.562676  0.930422  0.561404  0.162331
    C   C44  0.428410  0.080764  0.442200  0.172453
    C   C45  0.420696  0.933517  0.445134  0.225599
    C   C46  0.569702  0.077738  0.558920  0.255512
    N   N1   0.486699  0.856836  0.505449  -0.245034
    N   N2   0.503537  0.154413  0.498682  -0.241342
    H   H19  0.667133  0.251378  0.620877  0.146367
    H   H20  0.322124  0.760121  0.384001  0.119954
    H   H21  0.344070  0.258868  0.375394  0.161233
    H   H22  0.649042  0.752258  0.626897  0.130735
    C   C47  0.288007  0.396238  0.771609  0.953512
    O   O9   0.193135  0.462327  0.777535  -0.586310
    O   O10  0.291290  0.274880  0.725927  -0.497737
    C   C48  0.186620  0.212845  0.694935  0.466435
    C   C49  0.113150  0.153294  0.772030  -0.472403
    H   H23  0.212363  0.126178  0.649672  -0.001485
    H   H24  0.130852  0.289511  0.657402  -0.029453
    H   H25  0.171102  0.080549  0.811136  0.099241
    H   H26  0.033305  0.095649  0.745382  0.116140
    H   H27  0.079145  0.237802  0.816070  0.126323
    C   C50  0.709359  0.618110  0.233995  0.772251
    O   O11  0.700040  0.704042  0.293740  -0.514026
    O   O12  0.819663  0.565200  0.211476  -0.501147
    C   C51  0.928130  0.605640  0.249801  0.511496
    C   C52  0.011669  0.663011  0.178191  -0.341254
    H   H28  0.972244  0.512996  0.280449  -0.061152
    H   H29  0.915053  0.686551  0.301825  -0.046854
    H   H30  0.021847  0.584431  0.124251  0.098477
    H   H31  0.102370  0.685681  0.207484  0.065546
    H   H32  0.972224  0.760616  0.150410  0.080331
