# Generated by REPEAT Assigner based on pymatgen
data_DB0-m18_o22_o108_f0_fsc
_audit_creation_date              2022-05-24
_audit_creation_method            REPEAT_Assigner
_cell_length_a                    6.731452
_cell_length_b                    8.952387
_cell_length_c                    12.480534
_cell_angle_alpha                 90.000000
_cell_angle_beta                  80.212550
_cell_angle_gamma                 90.000000
_cell_volume                      741.162203
_symmetry_space_group_name_H-M    P1
_symmetry_Int_Tables_number       1
loop_
    _symmetry_equiv_pos_site_id
    _symmetry_equiv_pos_as_xyz
    1  x,y,z
loop_
    _atom_site_type_symbol
    _atom_site_label
    _atom_site_fract_x
    _atom_site_fract_y
    _atom_site_fract_z
    _atom_type_partial_charge
    O   O1   0.252186  0.124172  0.881747  -0.696255
    O   O2   0.237127  0.870202  0.878530  -0.709606
    C   C1   0.324626  0.995277  0.842464  0.768822
    Fe  Fe1  0.995193  0.842089  0.998509  1.006508
    Fe  Fe2  0.008848  0.161120  0.000400  1.028648
    O   O3   0.165500  0.867531  0.119145  -0.702625
    O   O4   0.178249  0.124080  0.120480  -0.732894
    C   C2   0.226638  0.993290  0.157171  0.801830
    O   O5   0.829959  0.136636  0.879903  -0.697154
    O   O6   0.813067  0.880371  0.879431  -0.740594
    C   C3   0.763551  0.011769  0.843804  0.756891
    O   O7   0.742710  0.878403  0.117290  -0.666951
    O   O8   0.754783  0.132350  0.119379  -0.666661
    C   C4   0.666494  0.006947  0.154553  0.720304
    C   C5   0.180518  0.586002  0.939232  -0.160653
    C   C6   0.153436  0.421984  0.915341  -0.102083
    H   H1   0.302618  0.598820  0.988036  0.087902
    H   H2   0.299789  0.363092  0.909684  0.075407
    H   H3   0.220483  0.648023  0.861672  0.093838
    H   H4   0.096011  0.410341  0.837571  0.063511
    H   H5   0.070049  0.650715  0.157392  0.065947
    H   H6   0.215621  0.420991  0.101915  0.056563
    C   C7   0.977260  0.583704  0.109740  -0.068526
    C   C8   0.050678  0.423459  0.102639  -0.111401
    C   C9   0.832111  0.578234  0.953687  0.010669
    C   C10  0.811984  0.415855  0.988250  -0.146911
    N   N1   0.993826  0.644345  0.000641  0.284143
    N   N2   0.008109  0.358777  0.002529  0.256596
    H   H7   0.688762  0.637967  0.982790  0.041589
    H   H8   0.706150  0.406977  0.066454  0.068080
    H   H9   0.869460  0.585201  0.863795  0.024993
    H   H10  0.753392  0.349799  0.925211  0.089867
    H   H11  0.817197  0.586995  0.149997  0.032823
    H   H12  0.971993  0.359279  0.173314  0.083036
    C   C11  0.676373  0.018932  0.744617  0.007101
    C   C12  0.803447  0.051531  0.649068  -0.207610
    C   C13  0.735193  0.047371  0.551303  -0.098709
    C   C14  0.474587  0.993644  0.743072  -0.196531
    C   C15  0.407243  0.984304  0.644662  0.222989
    C   C16  0.537310  0.008875  0.547934  -0.039093
    C   C17  0.465657  0.999673  0.449979  0.044969
    C   C18  0.592720  0.015908  0.351189  -0.232572
    C   C19  0.519381  0.008061  0.254755  -0.091554
    C   C20  0.207599  0.951198  0.643935  -0.286703
    C   C21  0.136433  0.943550  0.546942  -0.251613
    C   C22  0.264445  0.969756  0.450389  0.226725
    C   C23  0.189823  0.965991  0.354109  -0.235106
    C   C24  0.315594  0.988239  0.256067  -0.027704
    H   H13  0.958529  0.080963  0.650919  0.164178
    H   H14  0.107680  0.929208  0.719725  0.244088
    H   H15  0.980664  0.914945  0.546142  0.144426
    H   H16  0.030820  0.947007  0.355601  0.119479
    H   H17  0.840023  0.075863  0.479213  0.079426
    H   H18  0.752851  0.029012  0.346017  0.198160
