# Generated by REPEAT Assigner based on pymatgen
data_DB0-m2_o24_nou_sqe
_audit_creation_date              2022-05-24
_audit_creation_method            REPEAT_Assigner
_cell_length_a                    18.242868
_cell_length_b                    25.744702
_cell_length_c                    25.921695
_cell_angle_alpha                 90.001342
_cell_angle_beta                  89.963831
_cell_angle_gamma                 92.509417
_cell_volume                      12162.633502
_symmetry_space_group_name_H-M    P1
_symmetry_Int_Tables_number       1
loop_
    _symmetry_equiv_pos_site_id
    _symmetry_equiv_pos_as_xyz
    1  x,y,z
loop_
    _atom_site_type_symbol
    _atom_site_label
    _atom_site_fract_x
    _atom_site_fract_y
    _atom_site_fract_z
    _atom_type_partial_charge
    O   O1    0.006872  0.579576  0.475960  -0.613331
    O   O2    0.984770  0.519426  0.412801  -0.660626
    C   C1    0.994652  0.568383  0.427720  0.726994
    O   O3    0.110256  0.523511  0.525916  -0.666481
    O   O4    0.097765  0.468551  0.457324  -0.628701
    C   C2    0.139326  0.495241  0.489221  0.726188
    Cu  Cu1   0.001531  0.531952  0.531503  1.004057
    Cu  Cu2   0.995170  0.459120  0.461301  1.010181
    O   O5    0.995326  0.477262  0.580300  -0.617569
    O   O6    0.005072  0.411524  0.522205  -0.659692
    O   O7    0.891612  0.527737  0.524093  -0.666891
    O   O8    0.893370  0.456574  0.472008  -0.625656
    C   C3    0.000908  0.428062  0.570396  0.731652
    C   C4    0.856919  0.490291  0.497560  0.730700
    O   O9    0.421446  0.362486  0.298012  -0.614242
    O   O10   0.413210  0.301299  0.361643  -0.623040
    C   C5    0.394477  0.317892  0.315818  0.664200
    O   O11   0.569761  0.364677  0.301492  -0.627478
    O   O12   0.561329  0.299975  0.361628  -0.617702
    C   C6    0.587601  0.318690  0.317953  0.677154
    Cu  Cu3   0.495495  0.406736  0.333277  0.993712
    Cu  Cu4   0.489839  0.334134  0.404708  0.994262
    O   O13   0.568969  0.441302  0.377938  -0.614131
    O   O14   0.567405  0.376601  0.438118  -0.624012
    O   O15   0.420335  0.439017  0.374593  -0.626504
    O   O16   0.419009  0.377850  0.438317  -0.617593
    C   C7    0.591269  0.422677  0.422098  0.662238
    C   C8    0.397514  0.422165  0.419885  0.675508
    O   O17   0.913678  0.859081  0.445479  -0.642178
    O   O18   0.038692  0.864979  0.444935  -0.634509
    C   C9    0.976523  0.858655  0.470190  0.712007
    O   O19   0.914217  0.791234  0.362678  -0.643302
    O   O20   0.039258  0.796186  0.363542  -0.638130
    C   C10   0.977247  0.768572  0.359787  0.716099
    Cu  Cu5   0.903776  0.866433  0.370422  1.020118
    Cu  Cu6   0.047777  0.871898  0.370051  1.000668
    O   O21   0.912964  0.874552  0.295362  -0.646912
    O   O22   0.037991  0.878198  0.295192  -0.644492
    O   O23   0.912440  0.942346  0.378022  -0.644970
    O   O24   0.037434  0.946902  0.376727  -0.637389
    C   C11   0.975478  0.879961  0.270307  0.730900
    C   C12   0.974774  0.969770  0.380977  0.720399
    O   O25   0.946342  0.375159  0.944964  -0.634715
    O   O26   0.071358  0.381067  0.945366  -0.642433
    C   C13   0.008524  0.381491  0.970147  0.710216
    O   O27   0.947579  0.293235  0.876766  -0.638254
    O   O28   0.072574  0.297803  0.877920  -0.646376
    C   C14   0.010245  0.270374  0.880951  0.723785
    Cu  Cu7   0.937225  0.368237  0.870090  1.001250
    Cu  Cu8   0.081224  0.373713  0.870298  1.021473
    O   O29   0.946980  0.361936  0.795219  -0.644900
    O   O30   0.072005  0.365590  0.795248  -0.647910
    O   O31   0.945724  0.443950  0.863583  -0.637948
    O   O32   0.070765  0.448912  0.862579  -0.643174
    C   C15   0.009480  0.360179  0.770263  0.730945
    C   C16   0.007730  0.471570  0.859764  0.715148
    O   O33   0.999807  0.328768  0.218021  -0.664680
    O   O34   0.984284  0.263410  0.159234  -0.614169
    C   C17   0.993940  0.312645  0.169676  0.720899
    O   O35   0.091726  0.273037  0.277986  -0.619830
    O   O36   0.093923  0.215539  0.211241  -0.671690
    C   C18   0.128291  0.245284  0.246006  0.736449
    Cu  Cu9   0.989983  0.280207  0.278715  1.009830
    Cu  Cu10  0.983755  0.208144  0.207308  1.009813
    O   O37   0.980695  0.219188  0.327160  -0.664667
    O   O38   0.984103  0.159738  0.262162  -0.616517
    O   O39   0.887448  0.280616  0.272827  -0.623566
    O   O40   0.874808  0.213383  0.215898  -0.671010
    C   C19   0.980926  0.170401  0.311133  0.727405
    C   C20   0.845902  0.248793  0.245734  0.727183
    O   O41   0.000135  0.720709  0.912810  -0.660857
    O   O42   0.977979  0.660545  0.975969  -0.613808
    C   C21   0.990245  0.671749  0.927726  0.727743
    O   O43   0.091519  0.783491  0.972004  -0.626138
    O   O44   0.093142  0.712352  0.024125  -0.666646
    C   C22   0.127903  0.749774  0.997571  0.731488
    Cu  Cu11  0.989738  0.781009  0.961330  1.010384
    Cu  Cu12  0.983205  0.708163  0.031516  1.004727
    O   O45   0.979842  0.828602  0.022247  -0.660305
    O   O46   0.989354  0.762837  0.080330  -0.618691
    O   O47   0.887138  0.771645  0.957384  -0.628334
    O   O48   0.874495  0.716617  0.025922  -0.666448
    C   C23   0.983884  0.812047  0.070434  0.733863
    C   C24   0.845508  0.744932  0.989256  0.724248
    O   O49   0.001056  0.976692  0.659262  -0.613722
    O   O50   0.985283  0.911362  0.718062  -0.664289
    C   C25   0.991280  0.927467  0.669713  0.720757
    O   O51   0.110440  0.026701  0.715923  -0.670666
    O   O52   0.097651  0.959455  0.772835  -0.622748
    C   C26   0.139267  0.991269  0.745747  0.726019
    Cu  Cu13  0.001516  0.031965  0.707327  1.009846
    Cu  Cu14  0.995108  0.959920  0.778752  1.008544
    O   O53   0.001063  0.080382  0.762172  -0.616618
    O   O54   0.004401  0.020947  0.827181  -0.664274
    O   O55   0.891337  0.024581  0.711242  -0.671748
    O   O56   0.893382  0.967162  0.778054  -0.619256
    C   C27   0.004186  0.069730  0.811144  0.727517
    C   C28   0.856890  0.994887  0.746041  0.736589
    O   O57   0.423648  0.940091  0.861627  -0.617737
    O   O58   0.415337  0.875381  0.801498  -0.627363
    C   C29   0.397447  0.921364  0.817959  0.678079
    O   O59   0.571764  0.938807  0.861629  -0.622317
    O   O60   0.563674  0.877617  0.798001  -0.613715
    C   C30   0.590588  0.922219  0.815805  0.662773
    Cu  Cu15  0.495085  0.905957  0.904707  0.993711
    Cu  Cu16  0.489587  0.833349  0.833273  0.993823
    O   O61   0.565883  0.862260  0.938308  -0.617889
    O   O62   0.564689  0.801087  0.874590  -0.627089
    O   O63   0.417486  0.863469  0.938119  -0.623557
    O   O64   0.416059  0.798767  0.877945  -0.613887
    C   C31   0.587426  0.817949  0.919880  0.678443
    C   C32   0.393675  0.817386  0.922106  0.659676
    C   C33   0.688358  0.502344  0.437983  -0.053517
    C   C34   0.761161  0.477452  0.431319  -0.009205
    H   H1    0.800448  0.486833  0.399639  0.053796
    H   H2    0.665550  0.531506  0.411675  0.052298
    C   C35   0.776952  0.484376  0.488333  -0.016431
    C   C36   0.704534  0.509967  0.495460  -0.043315
    C   C37   0.667871  0.456289  0.506215  -0.038232
    C   C38   0.741228  0.431476  0.499322  -0.060114
    C   C39   0.726535  0.424463  0.442425  0.024468
    C   C40   0.654174  0.449152  0.449154  0.015784
    H   H3    0.696012  0.545744  0.518104  0.054464
    H   H4    0.627375  0.446890  0.537114  0.052369
    H   H5    0.763870  0.402059  0.525424  0.058690
    H   H6    0.735008  0.388689  0.419768  0.043319
    C   C41   0.262349  0.440383  0.422215  0.034375
    C   C42   0.249898  0.497560  0.428906  -0.059067
    H   H7    0.225528  0.523261  0.399830  0.056850
    H   H8    0.250361  0.417159  0.386965  0.037163
    C   C43   0.218245  0.486369  0.481814  -0.001945
    C   C44   0.231615  0.429120  0.475199  -0.023809
    C   C45   0.306701  0.437238  0.499126  -0.046431
    C   C46   0.292937  0.494968  0.506396  -0.050504
    C   C47   0.325539  0.505900  0.452737  -0.036292
    C   C48   0.336934  0.448563  0.445968  0.005770
    H   H9    0.192031  0.396729  0.485142  0.054765
    H   H10   0.331161  0.411352  0.527990  0.052100
    H   H11   0.304964  0.518220  0.541632  0.055908
    H   H12   0.366233  0.537563  0.442744  0.051834
    C   C49   0.999773  0.693722  0.419107  0.032224
    C   C50   0.050201  0.655325  0.395570  -0.051930
    H   H13   0.106695  0.648124  0.408706  0.055780
    H   H14   0.013393  0.720275  0.451742  0.025110
    C   C51   0.987383  0.615089  0.394700  -0.007933
    C   C52   0.936784  0.653920  0.417831  -0.039466
    C   C53   0.915560  0.671361  0.364376  -0.035005
    C   C54   0.966096  0.631654  0.340936  -0.044978
    C   C55   0.029397  0.672902  0.341815  -0.039821
    C   C56   0.978884  0.711062  0.365898  -0.000056
    H   H15   0.897643  0.645630  0.449848  0.058451
    H   H16   0.859088  0.678814  0.351377  0.049787
    H   H17   0.952349  0.605091  0.308345  0.051981
    H   H18   0.068126  0.681808  0.309708  0.055783
    C   C57   0.997314  0.420931  0.695074  0.052089
    C   C58   0.942846  0.399808  0.655794  -0.053802
    H   H19   0.888954  0.416088  0.647070  0.054267
    H   H20   0.989500  0.454530  0.720978  0.016201
    C   C59   0.004699  0.395311  0.617469  -0.009341
    C   C60   0.059263  0.416069  0.657138  -0.047675
    C   C61   0.071317  0.361222  0.675333  -0.029098
    C   C62   0.016651  0.340197  0.634747  -0.048040
    C   C63   0.954397  0.344772  0.674050  -0.024590
    C   C64   0.009059  0.366379  0.713102  -0.014786
    H   H21   0.103418  0.446105  0.649628  0.058730
    H   H22   0.125178  0.345042  0.684323  0.047963
    H   H23   0.024536  0.306595  0.608877  0.052312
    H   H24   0.910494  0.314701  0.682067  0.049222
    C   C65   0.304787  0.300929  0.234758  -0.038132
    C   C66   0.230182  0.310749  0.257124  -0.035427
    H   H25   0.195671  0.343152  0.245432  0.056390
    H   H26   0.333942  0.325381  0.205374  0.050668
    C   C67   0.208530  0.253495  0.252370  -0.013018
    C   C68   0.282733  0.243120  0.229364  -0.050470
    C   C69   0.312119  0.233914  0.283869  -0.029431
    C   C70   0.237136  0.243974  0.306102  -0.059416
    C   C71   0.257612  0.301143  0.310922  0.045315
    C   C72   0.331693  0.291290  0.288764  -0.000191
    H   H27   0.292497  0.218476  0.195172  0.055497
    H   H28   0.347758  0.202191  0.295634  0.050116
    H   H29   0.208222  0.219711  0.335755  0.057040
    H   H30   0.247909  0.325751  0.345140  0.036599
    C   C73   0.723853  0.315070  0.301418  0.049523
    C   C74   0.740435  0.309802  0.244682  -0.058667
    H   H31   0.769338  0.339572  0.220278  0.055537
    H   H32   0.736760  0.349823  0.325563  0.030906
    C   C75   0.766842  0.255887  0.254554  0.005948
    C   C76   0.749285  0.261079  0.311351  -0.039606
    C   C77   0.672910  0.237972  0.301901  -0.035236
    C   C78   0.690887  0.232149  0.244566  -0.060258
    C   C79   0.663651  0.286817  0.235001  -0.032247
    C   C80   0.648050  0.292145  0.291911  -0.002050
    H   H33   0.785426  0.249773  0.343474  0.054839
    H   H34   0.643854  0.208430  0.326477  0.050184
    H   H35   0.677914  0.197405  0.220421  0.058012
    H   H36   0.626488  0.298203  0.203523  0.051050
    C   C81   0.981667  0.045101  0.319311  0.077369
    C   C82   0.038301  0.086141  0.335817  -0.066474
    H   H37   0.090641  0.095967  0.315552  0.056948
    H   H38   0.986189  0.018808  0.285673  0.008662
    C   C83   0.977703  0.123393  0.344496  0.008248
    C   C84   0.920995  0.081942  0.328377  -0.060123
    C   C85   0.913620  0.063931  0.383850  -0.019805
    C   C86   0.970535  0.106344  0.400196  -0.061423
    C   C87   0.031466  0.068149  0.391360  -0.017033
    C   C88   0.974599  0.027281  0.374435  -0.029585
    H   H39   0.874545  0.088156  0.301827  0.057931
    H   H40   0.861347  0.053799  0.404059  0.047235
    H   H41   0.965978  0.132596  0.433849  0.055061
    H   H42   0.077746  0.061480  0.417913  0.050188
    C   C89   0.030617  0.895258  0.174055  -0.026425
    C   C90   0.968401  0.899947  0.134797  -0.046234
    H   H43   0.960649  0.933565  0.108932  0.052079
    H   H44   0.074625  0.925249  0.182038  0.049836
    C   C91   0.980149  0.844803  0.117512  -0.011872
    C   C92   0.041966  0.840194  0.155792  -0.051630
    C   C93   0.987413  0.819172  0.195112  0.052140
    C   C94   0.925502  0.824146  0.157219  -0.046106
    C   C95   0.913649  0.879023  0.175423  -0.030955
    C   C96   0.975869  0.873753  0.213147  -0.015163
    H   H45   0.095793  0.823811  0.147030  0.053749
    H   H46   0.995096  0.785557  0.221012  0.015928
    H   H47   0.881245  0.794187  0.149741  0.058434
    H   H48   0.859853  0.895309  0.184453  0.048403
    C   C97   0.029758  0.843826  0.566588  -0.034277
    C   C98   0.966840  0.838877  0.605802  -0.065125
    H   H49   0.955282  0.805264  0.631746  0.056351
    H   H50   0.070471  0.814069  0.558743  0.057267
    C   C99   0.984695  0.894174  0.622942  0.017679
    C   C100  0.047181  0.899050  0.584709  -0.060858
    C   C101  0.995095  0.919593  0.545258  0.058128
    C   C102  0.932461  0.914313  0.583070  -0.062057
    C   C103  0.914578  0.859308  0.565030  -0.016422
    C   C104  0.977540  0.864878  0.527355  -0.017282
    H   H51   0.102821  0.915800  0.593466  0.056052
    H   H52   0.006546  0.953229  0.519308  0.017959
    H   H53   0.891424  0.944001  0.590340  0.059292
    H   H54   0.858966  0.842672  0.556021  0.047165
    C   C105  0.955241  0.396217  0.066591  -0.034762
    C   C106  0.018142  0.401264  0.105755  -0.064539
    H   H55   0.029588  0.434888  0.131696  0.056037
    H   H56   0.914426  0.425904  0.058785  0.057052
    C   C107  0.000468  0.345940  0.122899  0.017800
    C   C108  0.937997  0.340968  0.084716  -0.060594
    C   C109  0.990162  0.320518  0.045220  0.058580
    C   C110  0.052778  0.325893  0.082983  -0.062000
    C   C111  0.070485  0.380926  0.064937  -0.017049
    C   C112  0.007539  0.375259  0.027312  -0.014190
    H   H57   0.882406  0.324126  0.093516  0.055952
    H   H58   0.978821  0.286870  0.019272  0.017270
    H   H59   0.093913  0.296274  0.090216  0.059195
    H   H60   0.126047  0.397655  0.055884  0.046886
    C   C113  0.018870  0.608489  0.840916  -0.042012
    C   C114  0.955576  0.567235  0.841831  -0.042544
    H   H61   0.916868  0.558326  0.809747  0.056647
    H   H62   0.032631  0.635055  0.808320  0.051253
    C   C115  0.006084  0.529079  0.865881  0.001612
    C   C116  0.069401  0.568786  0.864323  -0.036701
    C   C117  0.048143  0.586222  0.917792  -0.038669
    C   C118  0.985160  0.546414  0.919104  0.033365
    C   C119  0.934738  0.584807  0.895599  -0.052207
    C   C120  0.997549  0.625049  0.894695  -0.009348
    H   H63   0.125883  0.561339  0.851289  0.049971
    H   H64   0.087264  0.594515  0.949786  0.058158
    H   H65   0.971527  0.519858  0.951745  0.024590
    H   H66   0.878235  0.592002  0.908771  0.056037
    C   C121  0.953530  0.172001  0.891351  -0.012637
    C   C122  0.014442  0.133804  0.900193  -0.063311
    H   H67   0.018938  0.107557  0.933850  0.055293
    H   H68   0.907205  0.178676  0.917904  0.049151
    C   C123  0.007369  0.116745  0.844496  0.009326
    C   C124  0.946790  0.153999  0.835812  -0.070073
    C   C125  0.003457  0.195033  0.819297  0.083964
    C   C126  0.064110  0.158190  0.828368  -0.063437
    C   C127  0.071390  0.176210  0.883838  -0.017709
    C   C128  0.010431  0.212862  0.874417  -0.034902
    H   H69   0.894485  0.144173  0.815550  0.057451
    H   H70   0.998995  0.221321  0.785655  0.006697
    H   H71   0.110603  0.151968  0.801817  0.058495
    H   H72   0.123629  0.186344  0.904044  0.047237
    C   C129  0.691855  0.745147  0.006385  -0.052700
    C   C130  0.659395  0.734231  0.952710  -0.035064
    H   H73   0.618751  0.702557  0.942687  0.051612
    H   H74   0.679762  0.721873  0.041606  0.056418
    C   C131  0.647969  0.791565  0.945966  0.002029
    C   C132  0.678062  0.802875  0.999140  -0.044020
    C   C133  0.753203  0.811038  0.975241  -0.027011
    C   C134  0.722608  0.799790  0.922241  0.036300
    C   C135  0.735090  0.742616  0.928908  -0.059722
    C   C136  0.766603  0.753793  0.981831  0.001615
    H   H75   0.653506  0.828733  0.028009  0.051663
    H   H76   0.792739  0.843437  0.985213  0.055671
    H   H77   0.734662  0.823037  0.887006  0.036664
    H   H78   0.759555  0.716942  0.899828  0.056911
    C   C137  0.316928  0.783789  0.006228  -0.044783
    C   C138  0.280304  0.730100  0.995497  -0.037081
    H   H79   0.288795  0.694336  0.018160  0.053022
    H   H80   0.357359  0.793210  0.037128  0.053660
    C   C139  0.207889  0.755673  0.988350  -0.021068
    C   C140  0.243575  0.808584  0.999316  -0.054304
    C   C141  0.258377  0.815571  0.942417  0.021627
    C   C142  0.223791  0.762571  0.931334  -0.006516
    C   C143  0.296591  0.737696  0.938018  -0.058413
    C   C144  0.330735  0.790900  0.949166  0.021955
    H   H81   0.220873  0.838010  0.025401  0.057296
    H   H82   0.249935  0.851332  0.919742  0.043310
    H   H83   0.184569  0.753168  0.899655  0.053346
    H   H84   0.319463  0.708526  0.911728  0.053267
    C   C145  0.702480  0.996984  0.729335  -0.051740
    C   C146  0.672943  0.006216  0.783821  -0.027057
    H   H85   0.637241  0.037929  0.795547  0.049710
    H   H86   0.692779  0.021597  0.695122  0.055733
    C   C147  0.653410  0.948835  0.788753  -0.001472
    C   C148  0.680467  0.939170  0.734765  -0.037012
    C   C149  0.755025  0.929405  0.757170  -0.035429
    C   C150  0.727446  0.939037  0.810949  0.047111
    C   C151  0.747882  0.996211  0.806094  -0.061548
    C   C152  0.776637  0.986665  0.752382  -0.012839
    H   H87   0.651413  0.914682  0.705387  0.050454
    H   H88   0.789594  0.897009  0.745518  0.056100
    H   H89   0.737087  0.914459  0.845189  0.036157
    H   H90   0.776694  0.020509  0.835741  0.057429
    C   C153  0.235757  0.978951  0.811366  -0.038819
    C   C154  0.312146  0.002066  0.801922  -0.035156
    H   H91   0.341152  0.031603  0.826507  0.050038
    H   H92   0.199555  0.990246  0.843490  0.054806
    C   C155  0.337032  0.947897  0.791920  -0.001994
    C   C156  0.261215  0.924963  0.801421  0.047058
    C   C157  0.244736  0.930244  0.744685  -0.059381
    C   C158  0.321536  0.953239  0.735011  -0.033763
    C   C159  0.294275  0.007902  0.744589  -0.059249
    C   C160  0.218306  0.984155  0.754570  0.006747
    H   H93   0.248270  0.890204  0.825558  0.032158
    H   H94   0.215881  0.900480  0.720274  0.056111
    H   H95   0.358760  0.941863  0.703532  0.051710
    H   H96   0.307288  0.042653  0.720452  0.057727
