# Generated by REPEAT Assigner based on pymatgen
data_DB0-m2_o27_o29_f0_nbo.sym.9
_audit_creation_date              2022-05-24
_audit_creation_method            REPEAT_Assigner
_cell_length_a                    38.298031
_cell_length_b                    38.298030
_cell_length_c                    54.841103
_cell_angle_alpha                 90.000000
_cell_angle_beta                  90.000000
_cell_angle_gamma                 90.000000
_cell_volume                      80437.592324
_symmetry_space_group_name_H-M    P1
_symmetry_Int_Tables_number       1
loop_
    _symmetry_equiv_pos_site_id
    _symmetry_equiv_pos_as_xyz
    1  x,y,z
loop_
    _atom_site_type_symbol
    _atom_site_label
    _atom_site_fract_x
    _atom_site_fract_y
    _atom_site_fract_z
    _atom_type_partial_charge
    O   O1    0.528605  0.950336  0.507198  -0.627643
    O   O2    0.049664  0.528605  0.507198  -0.627675
    O   O3    0.471395  0.049664  0.507198  -0.627664
    O   O4    0.950336  0.471395  0.507198  -0.627658
    O   O5    0.528605  0.049664  0.492802  -0.627641
    O   O6    0.049664  0.471395  0.492802  -0.627647
    O   O7    0.471395  0.950336  0.492802  -0.627674
    O   O8    0.950336  0.528605  0.492802  -0.627686
    O   O9    0.028605  0.450336  0.007198  -0.627657
    O   O10   0.549664  0.028605  0.007198  -0.627656
    O   O11   0.971395  0.549664  0.007198  -0.627717
    O   O12   0.450336  0.971395  0.007198  -0.627675
    O   O13   0.028605  0.549664  0.992802  -0.627672
    O   O14   0.549664  0.971395  0.992802  -0.627689
    O   O15   0.971395  0.450336  0.992802  -0.627705
    O   O16   0.450336  0.028605  0.992802  -0.627641
    C   C1    0.500000  0.933941  0.500000  0.592238
    C   C2    0.066059  0.500000  0.500000  0.592317
    C   C3    0.500000  0.066059  0.500000  0.592302
    C   C4    0.933941  0.500000  0.500000  0.592291
    C   C5    0.000000  0.433941  0.000000  0.592393
    C   C6    0.566059  0.000000  0.000000  0.592353
    C   C7    0.000000  0.566059  0.000000  0.592419
    C   C8    0.433941  0.000000  0.000000  0.592302
    O   O17   0.528634  0.010302  0.534702  -0.679772
    O   O18   0.989698  0.528634  0.534702  -0.679786
    O   O19   0.471366  0.989698  0.534702  -0.679796
    O   O20   0.010302  0.471366  0.534702  -0.679788
    O   O21   0.528634  0.989698  0.465298  -0.679780
    O   O22   0.989698  0.471366  0.465298  -0.679804
    O   O23   0.471366  0.010302  0.465298  -0.679794
    O   O24   0.010302  0.528634  0.465298  -0.679784
    O   O25   0.028634  0.510302  0.034702  -0.679797
    O   O26   0.489698  0.028634  0.034702  -0.679776
    O   O27   0.971366  0.489698  0.034702  -0.679827
    O   O28   0.510302  0.971366  0.034702  -0.679794
    O   O29   0.028634  0.489698  0.965298  -0.679803
    O   O30   0.489698  0.971366  0.965298  -0.679793
    O   O31   0.971366  0.510302  0.965298  -0.679824
    O   O32   0.510302  0.028634  0.965298  -0.679772
    C   C9    0.500000  0.000000  0.546062  1.120079
    C   C10   0.000000  0.500000  0.546062  1.120129
    C   C11   0.500000  0.000000  0.453938  1.120117
    C   C12   0.000000  0.500000  0.453938  1.120164
    C   C13   0.000000  0.500000  0.046062  1.120127
    C   C14   0.500000  0.000000  0.046062  1.120044
    C   C15   0.000000  0.500000  0.953938  1.120137
    C   C16   0.500000  0.000000  0.953938  1.120035
    Cu  Cu1   0.533986  0.000000  0.500000  1.016531
    Cu  Cu2   0.000000  0.533986  0.500000  1.016480
    Cu  Cu3   0.466014  0.000000  0.500000  1.016498
    Cu  Cu4   0.000000  0.466014  0.500000  1.016572
    Cu  Cu5   0.033986  0.500000  0.000000  1.016499
    Cu  Cu6   0.500000  0.033986  0.000000  1.016531
    Cu  Cu7   0.966014  0.500000  0.000000  1.016539
    Cu  Cu8   0.500000  0.966014  0.000000  1.016516
    C   C17   0.476811  0.978821  0.737294  0.038949
    C   C18   0.021180  0.476812  0.737294  0.039199
    C   C19   0.523189  0.021179  0.737294  0.038924
    C   C20   0.978820  0.523188  0.737294  0.039064
    C   C21   0.476812  0.021180  0.262706  0.038990
    C   C22   0.021180  0.523188  0.262706  0.038987
    C   C23   0.523188  0.978820  0.262706  0.038955
    C   C24   0.978820  0.476812  0.262706  0.038992
    C   C25   0.976811  0.478822  0.237295  0.038960
    C   C26   0.521179  0.976811  0.237294  0.038977
    C   C27   0.023189  0.521178  0.237295  0.038941
    C   C28   0.478821  0.023189  0.237294  0.038938
    C   C29   0.976811  0.521178  0.762705  0.038913
    C   C30   0.521179  0.023189  0.762706  0.038976
    C   C31   0.023189  0.478822  0.762705  0.038873
    C   C32   0.478821  0.976811  0.762705  0.038971
    C   C33   0.500000  0.000000  0.724727  0.020283
    C   C34   0.000000  0.500000  0.724727  0.020010
    C   C35   0.500000  0.000000  0.275273  0.020213
    C   C36   0.000000  0.500000  0.275273  0.020162
    C   C37   0.000000  0.500000  0.224727  0.020272
    C   C38   0.500000  0.000000  0.224727  0.020274
    C   C39   0.000000  0.500000  0.775273  0.020295
    C   C40   0.500000  0.000000  0.775273  0.020245
    C   C41   0.451876  0.960396  0.724055  -0.195699
    C   C42   0.039606  0.451878  0.724055  -0.196031
    C   C43   0.548124  0.039604  0.724056  -0.195692
    C   C44   0.960394  0.548122  0.724055  -0.195740
    C   C45   0.451877  0.039605  0.275944  -0.195730
    C   C46   0.039606  0.548122  0.275945  -0.195720
    C   C47   0.548123  0.960395  0.275944  -0.195707
    C   C48   0.960394  0.451878  0.275945  -0.195729
    C   C49   0.951875  0.460398  0.224056  -0.195773
    C   C50   0.539603  0.951875  0.224056  -0.195752
    C   C51   0.048125  0.539602  0.224056  -0.195740
    C   C52   0.460397  0.048125  0.224056  -0.195725
    C   C53   0.951875  0.539602  0.775944  -0.195749
    C   C54   0.539604  0.048124  0.775944  -0.195728
    C   C55   0.048125  0.460398  0.775944  -0.195701
    C   C56   0.460396  0.951876  0.775944  -0.195748
    C   C57   0.451246  0.961713  0.699050  -0.018970
    C   C58   0.038289  0.451247  0.699050  -0.018501
    C   C59   0.548755  0.038287  0.699050  -0.018965
    C   C60   0.961711  0.548753  0.699050  -0.018883
    C   C61   0.451246  0.038288  0.300950  -0.018906
    C   C62   0.038289  0.548753  0.300950  -0.018844
    C   C63   0.548754  0.961712  0.300950  -0.018928
    C   C64   0.961711  0.451247  0.300950  -0.018852
    C   C65   0.951244  0.461715  0.199050  -0.018934
    C   C66   0.538286  0.951245  0.199050  -0.018947
    C   C67   0.048756  0.538285  0.199050  -0.018964
    C   C68   0.461714  0.048755  0.199050  -0.018951
    C   C69   0.951244  0.538285  0.800950  -0.018939
    C   C70   0.538287  0.048755  0.800950  -0.018946
    C   C71   0.048756  0.461715  0.800950  -0.018990
    C   C72   0.461713  0.951245  0.800950  -0.018942
    C   C73   0.475716  0.980969  0.686594  -0.129704
    C   C74   0.019032  0.475716  0.686594  -0.130138
    C   C75   0.524285  0.019031  0.686594  -0.129716
    C   C76   0.980968  0.524284  0.686594  -0.129928
    C   C77   0.475716  0.019032  0.313406  -0.129890
    C   C78   0.019032  0.524284  0.313406  -0.130010
    C   C79   0.524284  0.980968  0.313406  -0.129835
    C   C80   0.980968  0.475716  0.313406  -0.130003
    C   C81   0.975715  0.480969  0.186594  -0.129743
    C   C82   0.519031  0.975715  0.186594  -0.129721
    C   C83   0.024285  0.519030  0.186594  -0.129707
    C   C84   0.480969  0.024285  0.186594  -0.129712
    C   C85   0.975715  0.519031  0.813406  -0.129731
    C   C86   0.519031  0.024285  0.813406  -0.129737
    C   C87   0.024285  0.480970  0.813406  -0.129691
    C   C88   0.480969  0.975715  0.813406  -0.129732
    C   C89   0.500000  0.000000  0.699398  0.127218
    C   C90   0.000000  0.500000  0.699398  0.127544
    C   C91   0.500000  0.000000  0.300602  0.127364
    C   C92   0.000000  0.500000  0.300602  0.127496
    C   C93   0.000000  0.500000  0.199398  0.127230
    C   C94   0.500000  0.000000  0.199398  0.127211
    C   C95   0.000000  0.500000  0.800602  0.127226
    C   C96   0.500000  0.000000  0.800602  0.127236
    C   C97   0.475531  0.981748  0.661381  0.418414
    C   C98   0.018252  0.475532  0.661381  0.418597
    C   C99   0.524469  0.018252  0.661381  0.418387
    C   C100  0.981748  0.524468  0.661381  0.418566
    C   C101  0.475531  0.018252  0.338619  0.418573
    C   C102  0.018253  0.524468  0.338619  0.418638
    C   C103  0.524469  0.981748  0.338619  0.418500
    C   C104  0.981748  0.475532  0.338619  0.418632
    C   C105  0.975530  0.481749  0.161381  0.418422
    C   C106  0.518251  0.975530  0.161381  0.418405
    C   C107  0.024470  0.518250  0.161381  0.418379
    C   C108  0.481749  0.024470  0.161381  0.418392
    C   C109  0.975530  0.518251  0.838619  0.418404
    C   C110  0.518251  0.024469  0.838619  0.418403
    C   C111  0.024470  0.481749  0.838619  0.418389
    C   C112  0.481749  0.975531  0.838619  0.418425
    N   N1    0.500000  0.000000  0.649104  0.025643
    N   N2    0.000000  0.500000  0.649104  0.025665
    N   N3    0.500000  0.000000  0.350896  0.025584
    N   N4    0.000000  0.500000  0.350896  0.025639
    N   N5    0.000000  0.500000  0.149104  0.025655
    N   N6    0.500000  0.000000  0.149104  0.025651
    N   N7    0.000000  0.500000  0.850896  0.025643
    N   N8    0.500000  0.000000  0.850896  0.025669
    H   H1    0.431281  0.945552  0.732425  0.152966
    H   H2    0.054450  0.431283  0.732425  0.153018
    H   H3    0.568719  0.054448  0.732425  0.152965
    H   H4    0.945550  0.568718  0.732425  0.152960
    H   H5    0.431282  0.054449  0.267575  0.152973
    H   H6    0.054451  0.568717  0.267575  0.152960
    H   H7    0.568718  0.945551  0.267575  0.152958
    H   H8    0.945550  0.431283  0.267575  0.152959
    H   H9    0.931278  0.445555  0.232425  0.152994
    H   H10   0.554446  0.931279  0.232425  0.152998
    H   H11   0.068722  0.554445  0.232425  0.152980
    H   H12   0.445554  0.068721  0.232425  0.152983
    H   H13   0.931279  0.554445  0.767575  0.152985
    H   H14   0.554448  0.068720  0.767575  0.152978
    H   H15   0.068722  0.445555  0.767575  0.152974
    H   H16   0.445552  0.931280  0.767575  0.152979
    H   H17   0.431341  0.947086  0.689544  0.131952
    H   H18   0.052916  0.431343  0.689544  0.131837
    H   H19   0.568659  0.052913  0.689544  0.131959
    H   H20   0.947084  0.568657  0.689544  0.131937
    H   H21   0.431342  0.052915  0.310456  0.131944
    H   H22   0.052916  0.568657  0.310456  0.131915
    H   H23   0.568658  0.947085  0.310456  0.131951
    H   H24   0.947084  0.431343  0.310456  0.131929
    H   H25   0.931339  0.447089  0.189544  0.131952
    H   H26   0.552912  0.931340  0.189544  0.131950
    H   H27   0.068661  0.552911  0.189544  0.131961
    H   H28   0.447088  0.068660  0.189544  0.131950
    H   H29   0.931339  0.552911  0.810456  0.131952
    H   H30   0.552913  0.068659  0.810456  0.131954
    H   H31   0.068661  0.447089  0.810456  0.131964
    H   H32   0.447087  0.931341  0.810456  0.131956
    O   O33   0.450356  0.964818  0.649064  -0.546945
    O   O34   0.035183  0.450357  0.649064  -0.546951
    O   O35   0.549644  0.035182  0.649064  -0.546935
    O   O36   0.964817  0.549643  0.649064  -0.546948
    O   O37   0.450357  0.035183  0.350936  -0.546964
    O   O38   0.035184  0.549642  0.350936  -0.546945
    O   O39   0.549643  0.964817  0.350936  -0.546945
    O   O40   0.964817  0.450357  0.350936  -0.546958
    O   O41   0.950355  0.464820  0.149064  -0.546947
    O   O42   0.535180  0.950355  0.149064  -0.546943
    O   O43   0.049645  0.535179  0.149064  -0.546937
    O   O44   0.464820  0.049645  0.149064  -0.546939
    O   O45   0.950355  0.535180  0.850936  -0.546938
    O   O46   0.535181  0.049644  0.850936  -0.546940
    O   O47   0.049645  0.464820  0.850936  -0.546934
    O   O48   0.464819  0.950356  0.850936  -0.546954
    C   C113  0.499367  0.031172  0.610302  -0.509846
    C   C114  0.968828  0.499366  0.610302  -0.509507
    C   C115  0.500633  0.968828  0.610302  -0.509872
    C   C116  0.031172  0.500635  0.610302  -0.509769
    C   C117  0.499366  0.968828  0.389698  -0.509708
    C   C118  0.968828  0.500635  0.389698  -0.509648
    C   C119  0.500634  0.031172  0.389698  -0.509526
    C   C120  0.031172  0.499365  0.389698  -0.509186
    C   C121  0.999368  0.531172  0.110302  -0.509840
    C   C122  0.468828  0.999368  0.110302  -0.509844
    C   C123  0.000632  0.468828  0.110302  -0.509857
    C   C124  0.531172  0.000632  0.110302  -0.509845
    C   C125  0.999368  0.468828  0.889698  -0.509846
    C   C126  0.468828  0.000633  0.889698  -0.509842
    C   C127  0.000632  0.531172  0.889698  -0.509855
    C   C128  0.531172  0.999367  0.889698  -0.509832
    H   H33   0.498249  0.055766  0.619940  0.194339
    H   H34   0.944234  0.498247  0.619940  0.194231
    H   H35   0.501751  0.944234  0.619940  0.194325
    H   H36   0.055766  0.501754  0.619940  0.194300
    H   H37   0.498247  0.944234  0.380060  0.194307
    H   H38   0.944234  0.501754  0.380060  0.194291
    H   H39   0.501753  0.055766  0.380060  0.194235
    H   H40   0.055766  0.498246  0.380060  0.194144
    H   H41   0.998251  0.555766  0.119940  0.194349
    H   H42   0.444234  0.998250  0.119940  0.194355
    H   H43   0.001749  0.444234  0.119940  0.194354
    H   H44   0.555766  0.001750  0.119940  0.194351
    H   H45   0.998251  0.444234  0.880060  0.194350
    H   H46   0.444234  0.001751  0.880060  0.194332
    H   H47   0.001749  0.555766  0.880060  0.194351
    H   H48   0.555766  0.998249  0.880060  0.194341
    C   C129  0.499895  0.031156  0.585176  0.702607
    C   C130  0.968844  0.499894  0.585176  0.702570
    C   C131  0.500105  0.968844  0.585176  0.702658
    C   C132  0.031156  0.500106  0.585176  0.702836
    C   C133  0.499894  0.968844  0.414824  0.702585
    C   C134  0.968844  0.500106  0.414824  0.702763
    C   C135  0.500106  0.031156  0.414824  0.702557
    C   C136  0.031156  0.499893  0.414824  0.702451
    C   C137  0.999896  0.531156  0.085176  0.702581
    C   C138  0.468844  0.999896  0.085176  0.702564
    C   C139  0.000104  0.468844  0.085176  0.702600
    C   C140  0.531156  0.000104  0.085176  0.702595
    C   C141  0.999896  0.468844  0.914824  0.702570
    C   C142  0.468844  0.000105  0.914824  0.702639
    C   C143  0.000104  0.531156  0.914824  0.702606
    C   C144  0.531156  0.999895  0.914824  0.702604
    C   C145  0.500000  0.000000  0.572616  -0.759585
    C   C146  0.000000  0.500000  0.572616  -0.759694
    C   C147  0.500000  0.000000  0.427384  -0.759608
    C   C148  0.000000  0.500000  0.427384  -0.759662
    C   C149  0.000000  0.500000  0.072616  -0.759531
    C   C150  0.500000  0.000000  0.072616  -0.759497
    C   C151  0.000000  0.500000  0.927384  -0.759536
    C   C152  0.500000  0.000000  0.927384  -0.759544
    C   C153  0.500000  0.000000  0.623031  0.297370
    C   C154  0.000000  0.500000  0.623031  0.296886
    C   C155  0.500000  0.000000  0.376969  0.297082
    C   C156  0.000000  0.500000  0.376969  0.296648
    C   C157  0.000000  0.500000  0.123031  0.297368
    C   C158  0.500000  0.000000  0.123031  0.297366
    C   C159  0.000000  0.500000  0.876969  0.297374
    C   C160  0.500000  0.000000  0.876969  0.297326
    O   O49   0.450331  0.510030  0.520022  -0.603568
    O   O50   0.489970  0.450331  0.520022  -0.603570
    O   O51   0.549669  0.489970  0.520022  -0.603581
    O   O52   0.510030  0.549669  0.520022  -0.603584
    O   O53   0.450331  0.489970  0.479978  -0.603560
    O   O54   0.489970  0.549669  0.479978  -0.603573
    O   O55   0.549669  0.510030  0.479978  -0.603573
    O   O56   0.510030  0.450331  0.479978  -0.603560
    O   O57   0.950331  0.010030  0.020022  -0.603574
    O   O58   0.989970  0.950331  0.020022  -0.603576
    O   O59   0.049669  0.989970  0.020022  -0.603576
    O   O60   0.010030  0.049669  0.020022  -0.603581
    O   O61   0.950331  0.989970  0.979978  -0.603569
    O   O62   0.989970  0.049669  0.979978  -0.603567
    O   O63   0.049669  0.010030  0.979978  -0.603574
    O   O64   0.010030  0.950331  0.979978  -0.603576
    C   C161  0.433921  0.500000  0.500000  0.699576
    C   C162  0.500000  0.433921  0.500000  0.699586
    C   C163  0.566079  0.500000  0.500000  0.699608
    C   C164  0.500000  0.566079  0.500000  0.699613
    C   C165  0.933921  0.000000  0.000000  0.699560
    C   C166  0.000000  0.933921  0.000000  0.699568
    C   C167  0.066079  0.000000  0.000000  0.699642
    C   C168  0.000000  0.066079  0.000000  0.699642
    C   C169  0.474156  0.877503  0.487860  -0.193963
    C   C170  0.122497  0.474156  0.487860  -0.193958
    C   C171  0.525844  0.122497  0.487860  -0.193938
    C   C172  0.877503  0.525844  0.487860  -0.193933
    C   C173  0.474156  0.122497  0.512140  -0.193951
    C   C174  0.122497  0.525844  0.512140  -0.193945
    C   C175  0.525845  0.877503  0.512140  -0.193980
    C   C176  0.877503  0.474156  0.512140  -0.193948
    C   C177  0.974156  0.377503  0.987860  -0.193933
    C   C178  0.622497  0.974156  0.987860  -0.193947
    C   C179  0.025844  0.622497  0.987860  -0.193945
    C   C180  0.377503  0.025844  0.987860  -0.193946
    C   C181  0.974156  0.622497  0.012140  -0.193947
    C   C182  0.622497  0.025845  0.012140  -0.193955
    C   C183  0.025844  0.377503  0.012140  -0.193941
    C   C184  0.377503  0.974155  0.012140  -0.193961
    H   H49   0.453784  0.891141  0.478110  0.155309
    H   H50   0.108859  0.453784  0.478110  0.155309
    H   H51   0.546216  0.108859  0.478110  0.155303
    H   H52   0.891141  0.546216  0.478110  0.155298
    H   H53   0.453784  0.108859  0.521890  0.155309
    H   H54   0.108859  0.546216  0.521890  0.155308
    H   H55   0.546216  0.891141  0.521890  0.155321
    H   H56   0.891141  0.453784  0.521890  0.155302
    H   H57   0.953784  0.391141  0.978110  0.155304
    H   H58   0.608859  0.953784  0.978110  0.155318
    H   H59   0.046216  0.608859  0.978110  0.155313
    H   H60   0.391141  0.046216  0.978110  0.155307
    H   H61   0.953784  0.608859  0.021890  0.155313
    H   H62   0.608859  0.046216  0.021890  0.155326
    H   H63   0.046217  0.391141  0.021890  0.155303
    H   H64   0.391141  0.953783  0.021890  0.155325
    C   C185  0.474321  0.841506  0.487677  0.143625
    C   C186  0.158494  0.474321  0.487677  0.143631
    C   C187  0.525679  0.158494  0.487677  0.143601
    C   C188  0.841506  0.525679  0.487677  0.143592
    C   C189  0.474321  0.158494  0.512323  0.143612
    C   C190  0.158494  0.525679  0.512323  0.143608
    C   C191  0.525679  0.841506  0.512323  0.143625
    C   C192  0.841506  0.474321  0.512323  0.143608
    C   C193  0.974321  0.341506  0.987677  0.143609
    C   C194  0.658494  0.974321  0.987677  0.143608
    C   C195  0.025679  0.658494  0.987677  0.143630
    C   C196  0.341506  0.025679  0.987677  0.143612
    C   C197  0.974321  0.658494  0.012323  0.143638
    C   C198  0.658494  0.025679  0.012323  0.143601
    C   C199  0.025679  0.341506  0.012323  0.143609
    C   C200  0.341506  0.974321  0.012323  0.143620
    H   H65   0.453839  0.827963  0.477980  0.037628
    H   H66   0.172037  0.453839  0.477980  0.037623
    H   H67   0.546161  0.172037  0.477980  0.037632
    H   H68   0.827963  0.546161  0.477980  0.037632
    H   H69   0.453839  0.172037  0.522020  0.037628
    H   H70   0.172037  0.546161  0.522020  0.037625
    H   H71   0.546161  0.827963  0.522020  0.037630
    H   H72   0.827963  0.453839  0.522020  0.037627
    H   H73   0.953839  0.327963  0.977980  0.037624
    H   H74   0.672037  0.953839  0.977980  0.037631
    H   H75   0.046161  0.672037  0.977980  0.037618
    H   H76   0.327963  0.046161  0.977980  0.037636
    H   H77   0.953839  0.672037  0.022020  0.037611
    H   H78   0.672037  0.046161  0.022020  0.037635
    H   H79   0.046161  0.327963  0.022020  0.037632
    H   H80   0.327963  0.953839  0.022020  0.037624
    C   C201  0.500000  0.823273  0.500000  -0.578403
    C   C202  0.176727  0.500000  0.500000  -0.578404
    C   C203  0.500000  0.176727  0.500000  -0.578364
    C   C204  0.823273  0.500000  0.500000  -0.578387
    C   C205  0.000000  0.323273  0.000000  -0.578362
    C   C206  0.676727  0.000000  0.000000  -0.578341
    C   C207  0.000000  0.676727  0.000000  -0.578409
    C   C208  0.323273  0.000000  0.000000  -0.578371
    C   C209  0.500000  0.895693  0.500000  0.145353
    C   C210  0.104308  0.500000  0.500000  0.145312
    C   C211  0.500000  0.104307  0.500000  0.145288
    C   C212  0.895693  0.500000  0.500000  0.145324
    C   C213  0.000000  0.395693  0.000000  0.145253
    C   C214  0.604307  0.000000  0.000000  0.145259
    C   C215  0.000000  0.604307  0.000000  0.145241
    C   C216  0.395693  0.000000  0.000000  0.145300
    N   N9    0.520988  0.767287  0.515316  -0.378174
    N   N10   0.232713  0.520988  0.515316  -0.378138
    N   N11   0.479012  0.232713  0.515316  -0.378163
    N   N12   0.767287  0.479012  0.515316  -0.378183
    N   N13   0.520988  0.232713  0.484684  -0.378149
    N   N14   0.232713  0.479012  0.484684  -0.378174
    N   N15   0.479012  0.767287  0.484684  -0.378176
    N   N16   0.767287  0.520988  0.484684  -0.378184
    N   N17   0.020988  0.267287  0.015316  -0.378175
    N   N18   0.732713  0.020988  0.015316  -0.378142
    N   N19   0.979012  0.732713  0.015316  -0.378177
    N   N20   0.267287  0.979012  0.015316  -0.378164
    N   N21   0.020988  0.732713  0.984684  -0.378171
    N   N22   0.732713  0.979012  0.984684  -0.378158
    N   N23   0.979012  0.267287  0.984684  -0.378156
    N   N24   0.267287  0.020988  0.984684  -0.378178
    N   N25   0.520912  0.732773  0.515366  -0.380655
    N   N26   0.267227  0.520912  0.515366  -0.380683
    N   N27   0.479088  0.267227  0.515366  -0.380629
    N   N28   0.732773  0.479088  0.515366  -0.380647
    N   N29   0.520912  0.267227  0.484634  -0.380647
    N   N30   0.267227  0.479088  0.484634  -0.380644
    N   N31   0.479088  0.732773  0.484634  -0.380653
    N   N32   0.732773  0.520912  0.484634  -0.380643
    N   N33   0.020912  0.232773  0.015366  -0.380621
    N   N34   0.767227  0.020912  0.015366  -0.380623
    N   N35   0.979088  0.767227  0.015366  -0.380653
    N   N36   0.232773  0.979088  0.015366  -0.380661
    N   N37   0.020912  0.767227  0.984634  -0.380646
    N   N38   0.767227  0.979088  0.984634  -0.380614
    N   N39   0.979088  0.232773  0.984634  -0.380663
    N   N40   0.232773  0.020912  0.984634  -0.380633
    C   C217  0.500000  0.715097  0.500000  1.033470
    C   C218  0.284904  0.500000  0.500000  1.033424
    C   C219  0.500000  0.284903  0.500000  1.033410
    C   C220  0.715097  0.500000  0.500000  1.033468
    C   C221  0.000000  0.215097  0.000000  1.033477
    C   C222  0.784903  0.000000  0.000000  1.033337
    C   C223  0.000000  0.784903  0.000000  1.033466
    C   C224  0.215097  0.000000  0.000000  1.033448
    C   C225  0.500000  0.784963  0.500000  1.018571
    C   C226  0.215037  0.500000  0.500000  1.018560
    C   C227  0.500000  0.215037  0.500000  1.018542
    C   C228  0.784963  0.500000  0.500000  1.018585
    C   C229  0.000000  0.284963  0.000000  1.018541
    C   C230  0.715037  0.000000  0.000000  1.018496
    C   C231  0.000000  0.715037  0.000000  1.018605
    C   C232  0.284963  0.000000  0.000000  1.018527
    C   C233  0.483591  0.658552  0.481506  0.165364
    C   C234  0.341448  0.483591  0.481506  0.165346
    C   C235  0.516409  0.341448  0.481506  0.165343
    C   C236  0.658552  0.516409  0.481506  0.165371
    C   C237  0.483591  0.341448  0.518494  0.165346
    C   C238  0.341448  0.516409  0.518494  0.165340
    C   C239  0.516409  0.658552  0.518494  0.165362
    C   C240  0.658552  0.483591  0.518494  0.165373
    C   C241  0.983591  0.158552  0.981506  0.165426
    C   C242  0.841448  0.983591  0.981506  0.165331
    C   C243  0.016409  0.841448  0.981506  0.165365
    C   C244  0.158552  0.016409  0.981506  0.165367
    C   C245  0.983591  0.841448  0.018494  0.165378
    C   C246  0.841448  0.016409  0.018494  0.165318
    C   C247  0.016409  0.158552  0.018494  0.165385
    C   C248  0.158552  0.983591  0.018494  0.165404
    H   H81   0.470701  0.672095  0.466756  0.021790
    H   H82   0.327905  0.470701  0.466756  0.021800
    H   H83   0.529299  0.327904  0.466756  0.021809
    H   H84   0.672096  0.529299  0.466756  0.021784
    H   H85   0.470701  0.327905  0.533244  0.021802
    H   H86   0.327905  0.529299  0.533244  0.021813
    H   H87   0.529299  0.672095  0.533244  0.021792
    H   H88   0.672096  0.470701  0.533244  0.021784
    H   H89   0.970701  0.172095  0.966756  0.021783
    H   H90   0.827904  0.970701  0.966756  0.021816
    H   H91   0.029299  0.827904  0.966756  0.021799
    H   H92   0.172095  0.029299  0.966756  0.021796
    H   H93   0.970701  0.827905  0.033244  0.021799
    H   H94   0.827904  0.029299  0.033244  0.021822
    H   H95   0.029299  0.172095  0.033244  0.021788
    H   H96   0.172095  0.970701  0.033244  0.021787
    C   C249  0.483849  0.622553  0.481402  -0.159889
    C   C250  0.377447  0.483849  0.481402  -0.159883
    C   C251  0.516151  0.377447  0.481402  -0.159894
    C   C252  0.622553  0.516151  0.481402  -0.159903
    C   C253  0.483849  0.377447  0.518598  -0.159891
    C   C254  0.377447  0.516151  0.518598  -0.159890
    C   C255  0.516151  0.622553  0.518598  -0.159890
    C   C256  0.622553  0.483849  0.518598  -0.159900
    C   C257  0.983849  0.122553  0.981402  -0.159874
    C   C258  0.877447  0.983849  0.981402  -0.159903
    C   C259  0.016151  0.877447  0.981402  -0.159910
    C   C260  0.122553  0.016151  0.981402  -0.159866
    C   C261  0.983849  0.877447  0.018598  -0.159916
    C   C262  0.877447  0.016151  0.018598  -0.159899
    C   C263  0.016151  0.122553  0.018598  -0.159877
    C   C264  0.122553  0.983849  0.018598  -0.159856
    H   H97   0.470894  0.608939  0.466708  0.137633
    H   H98   0.391061  0.470894  0.466708  0.137627
    H   H99   0.529106  0.391061  0.466708  0.137625
    H   H100  0.608939  0.529106  0.466708  0.137635
    H   H101  0.470894  0.391061  0.533292  0.137628
    H   H102  0.391061  0.529106  0.533292  0.137628
    H   H103  0.529106  0.608939  0.533292  0.137635
    H   H104  0.608939  0.470894  0.533292  0.137634
    H   H105  0.970894  0.108939  0.966708  0.137617
    H   H106  0.891061  0.970894  0.966708  0.137627
    H   H107  0.029106  0.891061  0.966708  0.137631
    H   H108  0.108939  0.029106  0.966708  0.137627
    H   H109  0.970894  0.891061  0.033292  0.137632
    H   H110  0.891061  0.029106  0.033292  0.137629
    H   H111  0.029106  0.108939  0.033292  0.137630
    H   H112  0.108939  0.970894  0.033292  0.137616
    C   C265  0.500000  0.604348  0.500000  0.002205
    C   C266  0.395652  0.500000  0.500000  0.002224
    C   C267  0.500000  0.395652  0.500000  0.002217
    C   C268  0.604348  0.500000  0.500000  0.002220
    C   C269  0.000000  0.104348  0.000000  0.002151
    C   C270  0.895652  0.000000  0.000000  0.002259
    C   C271  0.000000  0.895652  0.000000  0.002248
    C   C272  0.104348  0.000000  0.000000  0.002155
    C   C273  0.500000  0.676787  0.500000  -0.578478
    C   C274  0.323213  0.500000  0.500000  -0.578439
    C   C275  0.500000  0.323213  0.500000  -0.578425
    C   C276  0.676787  0.500000  0.500000  -0.578480
    C   C277  0.000000  0.176787  0.000000  -0.578540
    C   C278  0.823213  0.000000  0.000000  -0.578392
    C   C279  0.000000  0.823213  0.000000  -0.578481
    C   C280  0.176787  0.000000  0.000000  -0.578520
    Cu  Cu9   0.500000  0.500000  0.523771  0.953897
    Cu  Cu10  0.500000  0.500000  0.476229  0.953953
    Cu  Cu11  0.000000  0.000000  0.023771  0.953917
    Cu  Cu12  0.000000  0.000000  0.976229  0.953936
    O   O65   0.499272  0.062058  0.572735  -0.613728
    H   H113  0.524103  0.069015  0.571475  0.408483
    O   O66   0.937942  0.499270  0.572735  -0.613721
    H   H114  0.930985  0.524100  0.571475  0.408479
    O   O67   0.500728  0.937942  0.572735  -0.613741
    H   H115  0.475897  0.930985  0.571475  0.408492
    O   O68   0.062058  0.500730  0.572735  -0.613782
    H   H116  0.069015  0.475900  0.571475  0.408477
    O   O69   0.499271  0.937942  0.427265  -0.613735
    H   H117  0.524101  0.930985  0.428525  0.408491
    O   O70   0.937942  0.500730  0.427265  -0.613788
    H   H118  0.930984  0.475900  0.428525  0.408484
    O   O71   0.500729  0.062058  0.427265  -0.613756
    H   H119  0.475899  0.069015  0.428525  0.408499
    O   O72   0.062058  0.499269  0.427265  -0.613719
    H   H120  0.069016  0.524100  0.428525  0.408473
    O   O73   0.999275  0.562058  0.072735  -0.613777
    H   H121  0.024106  0.569014  0.071475  0.408515
    O   O74   0.437942  0.999274  0.072735  -0.613755
    H   H122  0.430986  0.024105  0.071475  0.408508
    O   O75   0.000725  0.437942  0.072735  -0.613790
    H   H123  0.975894  0.430986  0.071475  0.408525
    O   O76   0.562058  0.000726  0.072735  -0.613773
    H   H124  0.569014  0.975895  0.071475  0.408513
    O   O77   0.999275  0.437942  0.927265  -0.613770
    H   H125  0.024106  0.430986  0.928525  0.408515
    O   O78   0.437942  0.000727  0.927265  -0.613781
    H   H126  0.430985  0.975897  0.928525  0.408522
    O   O79   0.000725  0.562058  0.927265  -0.613794
    H   H127  0.975894  0.569014  0.928525  0.408523
    O   O80   0.562058  0.999272  0.927265  -0.613744
    H   H128  0.569015  0.024103  0.928525  0.408497
