data_DB0-m3_o16_o29_f0_pcu.sym.107_repeat
_audit_creation_date              2024-02-23
_audit_creation_method            'Materials Studio'
_symmetry_space_group_name_H-M    'P1'
_symmetry_Int_Tables_number       1
_symmetry_cell_setting            triclinic
loop_
_symmetry_equiv_pos_as_xyz
  x,y,z
_cell_length_a                    12.5874
_cell_length_b                    13.7245
_cell_length_c                    27.6302
_cell_angle_alpha                 89.9929
_cell_angle_beta                  102.2197
_cell_angle_gamma                 86.6418
loop_
_atom_site_label
_atom_site_type_symbol
_atom_site_fract_x
_atom_site_fract_y
_atom_site_fract_z
_atom_site_U_iso_or_equiv
_atom_site_adp_type
_atom_site_occupancy
O1     O     0.36861   0.62387   0.49658   0.00000  Uiso   1.00
O2     O     0.55130   0.65207   0.51424   0.00000  Uiso   1.00
C1     C     0.44830   0.68348   0.50510   0.00000  Uiso   1.00
O3     O     0.41005   0.47127   0.56767   0.00000  Uiso   1.00
O4     O     0.59311   0.49918   0.58430   0.00000  Uiso   1.00
C2     C     0.50297   0.48215   0.59874   0.00000  Uiso   1.00
Zn1    Zn    0.37572   0.47627   0.49266   0.00000  Uiso   1.00
Zn2    Zn    0.61688   0.51366   0.51441   0.00000  Uiso   1.00
O5     O     0.44118   0.33762   0.49382   0.00000  Uiso   1.00
O6     O     0.62387   0.36609   0.51023   0.00000  Uiso   1.00
O7     O     0.39972   0.48998   0.42277   0.00000  Uiso   1.00
O8     O     0.58171   0.52050   0.43940   0.00000  Uiso   1.00
C3     C     0.54410   0.30692   0.50133   0.00000  Uiso   1.00
C4     C     0.48934   0.50820   0.40830   0.00000  Uiso   1.00
C5     C     0.53612   0.56235   0.83010   0.00000  Uiso   1.00
O9     O     0.56413   0.63991   0.80693   0.00000  Uiso   1.00
N1     N     0.50722   0.48132   0.80426   0.00000  Uiso   1.00
C6     C     0.47629   0.40394   0.82675   0.00000  Uiso   1.00
C7     C     0.60215   0.48908   0.73618   0.00000  Uiso   1.00
C8     C     0.60126   0.48915   0.68617   0.00000  Uiso   1.00
C9     C     0.41035   0.46633   0.66854   0.00000  Uiso   1.00
C10    C     0.41144   0.46644   0.71854   0.00000  Uiso   1.00
C11    C     0.50714   0.47832   0.75258   0.00000  Uiso   1.00
C12    C     0.50201   0.48919   0.90353   0.00000  Uiso   1.00
C13    C     0.53396   0.56715   0.87992   0.00000  Uiso   1.00
C14    C     0.56413   0.64958   0.90626   0.00000  Uiso   1.00
C15    C     0.47336   0.40699   0.87653   0.00000  Uiso   1.00
C16    C     0.50516   0.47829   0.65202   0.00000  Uiso   1.00
H1     H     0.33398   0.45813   0.64274   0.00000  Uiso   1.00
H2     H     0.33631   0.45901   0.73088   0.00000  Uiso   1.00
H3     H     0.59233   0.71103   0.88914   0.00000  Uiso   1.00
C17    C     0.48689   0.51267   0.35501   0.00000  Uiso   1.00
C18    C     0.51224   0.58502   0.02881   0.00000  Uiso   1.00
C19    C     0.47237   0.41564   0.02796   0.00000  Uiso   1.00
C20    C     0.49030   0.50277   0.05322   0.00000  Uiso   1.00
C21    C     0.52043   0.67267   0.05415   0.00000  Uiso   1.00
C22    C     0.51304   0.67823   0.10299   0.00000  Uiso   1.00
C23    C     0.50012   0.59434   0.12879   0.00000  Uiso   1.00
C24    C     0.48683   0.50750   0.10330   0.00000  Uiso   1.00
C25    C     0.47030   0.42483   0.12840   0.00000  Uiso   1.00
C26    C     0.46870   0.42860   0.17817   0.00000  Uiso   1.00
N2     N     0.48392   0.51284   0.20277   0.00000  Uiso   1.00
C27    C     0.49990   0.59506   0.17935   0.00000  Uiso   1.00
C28    C     0.39132   0.49627   0.27099   0.00000  Uiso   1.00
C29    C     0.39237   0.49548   0.32100   0.00000  Uiso   1.00
C30    C     0.57986   0.53173   0.33834   0.00000  Uiso   1.00
C31    C     0.57843   0.53282   0.28830   0.00000  Uiso   1.00
C32    C     0.48436   0.51464   0.25445   0.00000  Uiso   1.00
O10    O     0.51521   0.67719   0.20572   0.00000  Uiso   1.00
C33    C     0.52315   0.57866   0.97947   0.00000  Uiso   1.00
C34    C     0.49841   0.49352   0.95349   0.00000  Uiso   1.00
C35    C     0.46987   0.41277   0.97704   0.00000  Uiso   1.00
C36    C     0.55935   0.65532   0.95535   0.00000  Uiso   1.00
H4     H     0.31860   0.48028   0.33295   0.00000  Uiso   1.00
H5     H     0.31713   0.48235   0.24474   0.00000  Uiso   1.00
H6     H     0.52730   0.74120   0.03660   0.00000  Uiso   1.00
H7     H     0.58845   0.72083   0.97352   0.00000  Uiso   1.00
O11    O     0.45007   0.32280   0.80079   0.00000  Uiso   1.00
C37    C     0.44060   0.32848   0.89925   0.00000  Uiso   1.00
H8     H     0.67657   0.49845   0.67432   0.00000  Uiso   1.00
H9     H     0.67778   0.49763   0.76249   0.00000  Uiso   1.00
H10    H     0.41538   0.26367   0.87886   0.00000  Uiso   1.00
C38    C     0.45839   0.33291   0.05454   0.00000  Uiso   1.00
C39    C     0.45733   0.33776   0.10396   0.00000  Uiso   1.00
O12    O     0.45496   0.34727   0.20267   0.00000  Uiso   1.00
C40    C     0.43855   0.33115   0.94871   0.00000  Uiso   1.00
H11    H     0.45152   0.26122   0.03901   0.00000  Uiso   1.00
H12    H     0.65492   0.54513   0.36405   0.00000  Uiso   1.00
H13    H     0.44650   0.27145   0.12296   0.00000  Uiso   1.00
H14    H     0.65198   0.54639   0.27573   0.00000  Uiso   1.00
H15    H     0.40810   0.26799   0.96288   0.00000  Uiso   1.00
C41    C     0.68928   0.07645   0.47480   0.00000  Uiso   1.00
H16    H     0.72462   0.22560   0.47780   0.00000  Uiso   1.00
H17    H     0.71036   0.89358   0.45406   0.00000  Uiso   1.00
H18    H     0.76317   0.05460   0.46261   0.00000  Uiso   1.00
C42    C     0.57137   0.20248   0.49671   0.00000  Uiso   1.00
C43    C     0.32499   0.81369   0.52417   0.00000  Uiso   1.00
C44    C     0.29609   0.90926   0.53169   0.00000  Uiso   1.00
C45    C     0.36066   0.98203   0.52350   0.00000  Uiso   1.00
C46    C     0.45502   0.96083   0.50573   0.00000  Uiso   1.00
C47    C     0.48282   0.86318   0.49683   0.00000  Uiso   1.00
C48    C     0.52269   0.03439   0.49698   0.00000  Uiso   1.00
C49    C     0.61715   0.00794   0.48083   0.00000  Uiso   1.00
C50    C     0.63957   0.91297   0.46916   0.00000  Uiso   1.00
C51    C     0.57174   0.84193   0.47553   0.00000  Uiso   1.00
C52    C     0.49935   0.13386   0.50348   0.00000  Uiso   1.00
C53    C     0.66772   0.17312   0.48361   0.00000  Uiso   1.00
C54    C     0.41915   0.78890   0.50788   0.00000  Uiso   1.00
H19    H     0.42596   0.16157   0.51384   0.00000  Uiso   1.00
H20    H     0.27447   0.75812   0.53297   0.00000  Uiso   1.00
H21    H     0.33320   0.05435   0.53190   0.00000  Uiso   1.00
H22    H     0.22313   0.92738   0.54539   0.00000  Uiso   1.00
H23    H     0.59051   0.77052   0.46244   0.00000  Uiso   1.00
C55    C     0.07476   0.36739   0.43045   0.00000  Uiso   1.00
H24    H     0.23903   0.35345   0.42236   0.00000  Uiso   1.00
H25    H     0.86909   0.33777   0.41405   0.00000  Uiso   1.00
H26    H     0.04774   0.31625   0.40131   0.00000  Uiso   1.00
N3     N     0.21665   0.45154   0.47835   0.00000  Uiso   1.00
C56    C     0.80406   0.60217   0.56495   0.00000  Uiso   1.00
C57    C     0.90988   0.62730   0.57910   0.00000  Uiso   1.00
C58    C     0.98808   0.58709   0.55601   0.00000  Uiso   1.00
C59    C     0.96004   0.52060   0.51814   0.00000  Uiso   1.00
C60    C     0.85124   0.49705   0.50492   0.00000  Uiso   1.00
C61    C     0.03686   0.47694   0.49307   0.00000  Uiso   1.00
C62    C     0.00230   0.41146   0.45574   0.00000  Uiso   1.00
C63    C     0.89539   0.38906   0.44320   0.00000  Uiso   1.00
C64    C     0.82090   0.43128   0.46750   0.00000  Uiso   1.00
C65    C     0.14740   0.49590   0.50375   0.00000  Uiso   1.00
C66    C     0.18214   0.38822   0.44222   0.00000  Uiso   1.00
N4     N     0.77536   0.53800   0.52841   0.00000  Uiso   1.00
H27    H     0.18168   0.54550   0.53207   0.00000  Uiso   1.00
H28    H     0.74346   0.63458   0.58347   0.00000  Uiso   1.00
H29    H     0.06918   0.61019   0.56899   0.00000  Uiso   1.00
H30    H     0.93177   0.67900   0.60852   0.00000  Uiso   1.00
H31    H     0.73863   0.41112   0.45635   0.00000  Uiso   1.00
N5     N     0.51946   0.77088   0.12527   0.00000  Uiso   1.00
C67    C     0.42166   0.81991   0.12108   0.00000  Uiso   1.00
O13    O     0.33845   0.77592   0.11234   0.00000  Uiso   1.00
C68    C     0.41435   0.92797   0.12720   0.00000  Uiso   1.00
H32    H     0.57929   0.81300   0.11791   0.00000  Uiso   1.00
H33    H     0.49666   0.95666   0.13641   0.00000  Uiso   1.00
H34    H     0.37159   0.94594   0.15756   0.00000  Uiso   1.00
H35    H     0.36773   0.96277   0.09230   0.00000  Uiso   1.00
