# Generated by REPEAT Assigner based on pymatgen
data_DB0-m3_o11_o17_f0_nbo.sym.122
_audit_creation_date              2022-05-24
_audit_creation_method            REPEAT_Assigner
_cell_length_a                    30.084660
_cell_length_b                    31.255584
_cell_length_c                    21.701428
_cell_angle_alpha                 90.000000
_cell_angle_beta                  133.870381
_cell_angle_gamma                 90.000000
_cell_volume                      14710.985412
_symmetry_space_group_name_H-M    P1
_symmetry_Int_Tables_number       1
loop_
    _symmetry_equiv_pos_site_id
    _symmetry_equiv_pos_as_xyz
    1  x,y,z
loop_
    _atom_site_type_symbol
    _atom_site_label
    _atom_site_fract_x
    _atom_site_fract_y
    _atom_site_fract_z
    _atom_type_partial_charge
    O   O1    0.677693  0.774205  0.866639  -0.691411
    O   O2    0.322307  0.774205  0.133360  -0.691399
    O   O3    0.177693  0.274205  0.866639  -0.691394
    O   O4    0.822307  0.274205  0.133360  -0.691383
    O   O5    0.736338  0.822893  0.977618  -0.691126
    O   O6    0.263662  0.822893  0.022382  -0.691135
    O   O7    0.236338  0.322893  0.977618  -0.691139
    O   O8    0.763662  0.322893  0.022382  -0.691132
    C   C1    0.692496  0.813537  0.896066  0.716783
    C   C2    0.307504  0.813537  0.103934  0.716754
    C   C3    0.192496  0.313537  0.896066  0.716762
    C   C4    0.807504  0.313537  0.103934  0.716733
    O   O9    0.659995  0.720289  0.952090  -0.685249
    O   O10   0.340005  0.720289  0.047909  -0.685230
    O   O11   0.159995  0.220289  0.952090  -0.685250
    O   O12   0.840005  0.220289  0.047909  -0.685228
    O   O13   0.713133  0.771134  0.059172  -0.721148
    O   O14   0.286867  0.771134  0.940827  -0.721128
    O   O15   0.213133  0.271134  0.059172  -0.721141
    O   O16   0.786867  0.271134  0.940827  -0.721131
    C   C5    0.666485  0.744925  0.006782  0.668457
    C   C6    0.333515  0.744925  0.993217  0.668484
    C   C7    0.166485  0.244925  0.006782  0.668475
    C   C8    0.833515  0.244925  0.993217  0.668494
    Zn  Zn1   0.715562  0.718054  0.930470  1.306005
    Zn  Zn2   0.284438  0.718054  0.069530  1.305996
    Zn  Zn3   0.215562  0.218054  0.930470  1.305990
    Zn  Zn4   0.784438  0.218054  0.069530  1.305988
    Zn  Zn5   0.787907  0.781320  0.076987  1.315548
    Zn  Zn6   0.212093  0.781320  0.923013  1.315553
    Zn  Zn7   0.287907  0.281320  0.076987  1.315580
    Zn  Zn8   0.712093  0.281320  0.923013  1.315567
    O   O17   0.768212  0.676490  0.029722  -0.660444
    O   O18   0.231788  0.676490  0.970278  -0.660459
    O   O19   0.268212  0.176490  0.029722  -0.660438
    O   O20   0.731788  0.176490  0.970278  -0.660466
    O   O21   0.824455  0.725054  0.140885  -0.655165
    O   O22   0.175545  0.725054  0.859114  -0.655208
    O   O23   0.324455  0.225054  0.140885  -0.655199
    O   O24   0.675545  0.225054  0.859114  -0.655232
    O   O25   0.789408  0.729250  0.946468  -0.703179
    O   O26   0.210592  0.729250  0.053531  -0.703173
    O   O27   0.289408  0.229250  0.946468  -0.703175
    O   O28   0.710592  0.229250  0.053531  -0.703172
    O   O29   0.844426  0.778160  0.057095  -0.668617
    O   O30   0.155574  0.778160  0.942905  -0.668587
    O   O31   0.344426  0.278160  0.057095  -0.668616
    O   O32   0.655574  0.278160  0.942905  -0.668594
    C   C9    0.811307  0.685722  0.111368  0.678181
    C   C10   0.188693  0.685722  0.888631  0.678193
    C   C11   0.311307  0.185722  0.111368  0.678159
    C   C12   0.688693  0.185722  0.888631  0.678198
    C   C13   0.837010  0.754591  0.000578  0.667711
    C   C14   0.162990  0.754591  0.999421  0.667695
    C   C15   0.337010  0.254591  0.000578  0.667711
    C   C16   0.662990  0.254591  0.999421  0.667709
    C   C17   0.403443  0.782570  0.989929  -0.361268
    C   C18   0.596557  0.782570  0.010071  -0.361266
    C   C19   0.903443  0.282570  0.989929  -0.361268
    C   C20   0.096557  0.282570  0.010071  -0.361273
    C   C21   0.381981  0.744478  0.993135  0.209639
    C   C22   0.618019  0.744478  0.006865  0.209666
    C   C23   0.881981  0.244478  0.993135  0.209627
    C   C24   0.118019  0.244478  0.006865  0.209647
    C   C25   0.407602  0.706290  0.998758  -0.382191
    C   C26   0.592398  0.706290  0.001242  -0.382181
    C   C27   0.907602  0.206290  0.998758  -0.382183
    C   C28   0.092398  0.206290  0.001242  -0.382166
    C   C29   0.453620  0.706199  0.999016  0.234811
    C   C30   0.546380  0.706199  0.000984  0.234769
    C   C31   0.953620  0.206199  0.999016  0.234804
    C   C32   0.046380  0.206199  0.000984  0.234761
    C   C33   0.476311  0.744380  0.998445  -0.033537
    C   C34   0.523689  0.744380  0.001555  -0.033496
    C   C35   0.976311  0.244380  0.998445  -0.033534
    C   C36   0.023689  0.244380  0.001555  -0.033503
    C   C37   0.451704  0.782582  0.994926  0.215170
    C   C38   0.548297  0.782582  0.005074  0.215141
    C   C39   0.951704  0.282582  0.994926  0.215175
    C   C40   0.048297  0.282582  0.005074  0.215163
    C   C41   0.477151  0.667995  0.000129  -0.224294
    C   C42   0.522849  0.667995  0.999871  -0.224270
    C   C43   0.977151  0.167995  0.000129  -0.224289
    C   C44   0.022849  0.167995  0.999871  -0.224265
    C   C45   0.524386  0.820788  0.003095  -0.212744
    C   C46   0.475614  0.820788  0.996904  -0.212765
    C   C47   0.024386  0.320788  0.003095  -0.212756
    C   C48   0.975614  0.320788  0.996904  -0.212770
    H   H1    0.384119  0.812512  0.987111  0.175113
    H   H2    0.615881  0.812512  0.012889  0.175123
    H   H3    0.884119  0.312512  0.987111  0.175113
    H   H4    0.115881  0.312512  0.012889  0.175119
    H   H5    0.390427  0.676428  0.000602  0.173751
    H   H6    0.609573  0.676428  0.999397  0.173758
    H   H7    0.890427  0.176428  0.000602  0.173750
    H   H8    0.109573  0.176428  0.999397  0.173755
    H   H9    0.459452  0.637932  0.000243  0.140359
    H   H10   0.540548  0.637932  0.999757  0.140351
    H   H11   0.959452  0.137932  0.000243  0.140356
    H   H12   0.040548  0.137932  0.999757  0.140349
    H   H13   0.543259  0.850851  0.005411  0.134828
    H   H14   0.456741  0.850851  0.994589  0.134837
    H   H15   0.043259  0.350851  0.005411  0.134833
    H   H16   0.956741  0.350851  0.994589  0.134839
    C   C49   0.567945  0.878249  0.695954  -0.092986
    C   C50   0.432055  0.878249  0.304046  -0.092976
    C   C51   0.067945  0.378249  0.695954  -0.092990
    C   C52   0.932055  0.378249  0.304046  -0.092980
    C   C53   0.596051  0.905082  0.684320  -0.151662
    C   C54   0.403949  0.905082  0.315680  -0.151670
    C   C55   0.096051  0.405082  0.684320  -0.151666
    C   C56   0.903949  0.405082  0.315680  -0.151680
    H   H17   0.518298  0.879494  0.653608  0.140476
    H   H18   0.481702  0.879494  0.346392  0.140480
    H   H19   0.018298  0.379494  0.653608  0.140487
    H   H20   0.981702  0.379494  0.346392  0.140489
    H   H21   0.644418  0.900782  0.719900  0.123258
    H   H22   0.355582  0.900783  0.280100  0.123258
    H   H23   0.144418  0.400782  0.719900  0.123258
    H   H24   0.855582  0.400783  0.280100  0.123264
    C   C57   0.602125  0.843177  0.758320  -0.096001
    C   C58   0.397875  0.843177  0.241680  -0.096016
    C   C59   0.102125  0.343177  0.758320  -0.096011
    C   C60   0.897875  0.343177  0.241680  -0.096018
    C   C61   0.659019  0.848902  0.834953  -0.158818
    C   C62   0.340981  0.848902  0.165047  -0.158792
    C   C63   0.159019  0.348902  0.834953  -0.158799
    C   C64   0.840981  0.348902  0.165047  -0.158782
    H   H25   0.578819  0.812889  0.742889  0.140399
    H   H26   0.421181  0.812889  0.257111  0.140394
    H   H27   0.078819  0.312889  0.742889  0.140396
    H   H28   0.921181  0.312889  0.257111  0.140389
    H   H29   0.680087  0.880342  0.854487  0.126090
    H   H30   0.319914  0.880342  0.145513  0.126087
    H   H31   0.180087  0.380342  0.854487  0.126089
    H   H32   0.819914  0.380342  0.145513  0.126084
    C   C65   0.129924  0.753687  0.076422  -0.345089
    C   C66   0.870076  0.753687  0.923577  -0.345083
    C   C67   0.629924  0.253687  0.076422  -0.345070
    C   C68   0.370076  0.253687  0.923577  -0.345070
    C   C69   0.114819  0.755789  0.000224  0.170395
    C   C70   0.885181  0.755789  0.999775  0.170385
    C   C71   0.614819  0.255789  0.000224  0.170376
    C   C72   0.385181  0.255789  0.999775  0.170380
    C   C73   0.053751  0.758786  0.924151  -0.307557
    C   C74   0.946249  0.758786  0.075849  -0.307535
    C   C75   0.553751  0.258786  0.924151  -0.307540
    C   C76   0.446249  0.258786  0.075849  -0.307538
    C   C77   0.007816  0.757738  0.923913  0.205910
    C   C78   0.992184  0.757738  0.076087  0.205881
    C   C79   0.507816  0.257738  0.923913  0.205896
    C   C80   0.492184  0.257738  0.076087  0.205888
    C   C81   0.022972  0.756597  0.000093  -0.036546
    C   C82   0.977028  0.756597  0.999906  -0.036528
    C   C83   0.522972  0.256597  0.000093  -0.036536
    C   C84   0.477028  0.256597  0.999906  -0.036538
    C   C85   0.084057  0.755394  0.076426  0.223812
    C   C86   0.915943  0.755394  0.923573  0.223788
    C   C87   0.584057  0.255394  0.076426  0.223802
    C   C88   0.415943  0.255394  0.923573  0.223788
    C   C89   0.946707  0.757637  0.847505  -0.197588
    C   C90   0.053293  0.757637  0.152495  -0.197585
    C   C91   0.446707  0.257637  0.847505  -0.197574
    C   C92   0.553293  0.257637  0.152495  -0.197571
    C   C93   0.900844  0.755772  0.847323  -0.234030
    C   C94   0.099156  0.755772  0.152676  -0.234047
    C   C95   0.400844  0.255772  0.847323  -0.234036
    C   C96   0.599156  0.255772  0.152676  -0.234054
    H   H33   0.177744  0.752069  0.136192  0.162044
    H   H34   0.822256  0.752069  0.863807  0.162048
    H   H35   0.677744  0.252069  0.136192  0.162038
    H   H36   0.322256  0.252069  0.863807  0.162043
    H   H37   0.041648  0.760347  0.864322  0.138245
    H   H38   0.958352  0.760347  0.135677  0.138254
    H   H39   0.541648  0.260347  0.864322  0.138238
    H   H40   0.458352  0.260347  0.135677  0.138245
    H   H41   0.934500  0.758318  0.787497  0.130232
    H   H42   0.065500  0.758318  0.212502  0.130238
    H   H43   0.434500  0.258318  0.787497  0.130225
    H   H44   0.565500  0.258318  0.212502  0.130230
    H   H45   0.853103  0.755060  0.787204  0.134855
    H   H46   0.146897  0.755060  0.212795  0.134860
    H   H47   0.353103  0.255060  0.787204  0.134857
    H   H48   0.646897  0.255060  0.212795  0.134862
    C   C97   0.934687  0.614049  0.302738  -0.160421
    C   C98   0.065313  0.614049  0.697261  -0.160362
    C   C99   0.434687  0.114049  0.302738  -0.160269
    C   C100  0.565313  0.114049  0.697261  -0.160327
    C   C101  0.905938  0.591047  0.318305  -0.151375
    C   C102  0.094062  0.591047  0.681695  -0.151414
    C   C103  0.405938  0.091047  0.318305  -0.151437
    C   C104  0.594062  0.091047  0.681695  -0.151414
    H   H49   0.982975  0.608162  0.339600  0.158262
    H   H50   0.017025  0.608162  0.660400  0.158244
    H   H51   0.482975  0.108162  0.339600  0.158218
    H   H52   0.517025  0.108162  0.660400  0.158224
    H   H53   0.859483  0.598953  0.288055  0.116702
    H   H54   0.140517  0.598953  0.711945  0.116714
    H   H55   0.359483  0.098953  0.288055  0.116721
    H   H56   0.640517  0.098953  0.711945  0.116713
    C   C105  0.905427  0.650379  0.242878  0.017995
    C   C106  0.094573  0.650379  0.757122  0.018019
    C   C107  0.405427  0.150379  0.242878  0.017911
    C   C108  0.594573  0.150379  0.757122  0.017932
    C   C109  0.844726  0.649925  0.171960  -0.147596
    C   C110  0.155274  0.649925  0.828039  -0.147580
    C   C111  0.344726  0.149925  0.171960  -0.147477
    C   C112  0.655274  0.149925  0.828039  -0.147521
    H   H57   0.818357  0.621184  0.155743  0.144430
    H   H58   0.181643  0.621184  0.844257  0.144425
    H   H59   0.318357  0.121184  0.155743  0.144392
    H   H60   0.681643  0.121184  0.844257  0.144412
    O   O33   0.008662  0.543155  0.589386  -0.695355
    O   O34   0.991338  0.543155  0.410613  -0.695351
    O   O35   0.508662  0.043155  0.589386  -0.695355
    O   O36   0.491338  0.043155  0.410613  -0.695363
    O   O37   0.085896  0.541864  0.590404  -0.676562
    O   O38   0.914104  0.541864  0.409596  -0.676567
    O   O39   0.585896  0.041864  0.590404  -0.676578
    O   O40   0.414104  0.041864  0.409596  -0.676579
    C   C113  0.061377  0.556805  0.617725  0.716660
    C   C114  0.938623  0.556805  0.382275  0.716661
    C   C115  0.561377  0.056805  0.617725  0.716659
    C   C116  0.438623  0.056805  0.382275  0.716659
    O   O41   0.508605  0.951397  0.589220  -0.694811
    O   O42   0.491395  0.951397  0.410780  -0.694818
    O   O43   0.008605  0.451397  0.589220  -0.694829
    O   O44   0.991395  0.451397  0.410780  -0.694840
    O   O45   0.586144  0.953170  0.590834  -0.678048
    O   O46   0.413856  0.953170  0.409166  -0.678042
    O   O47   0.086144  0.453170  0.590834  -0.678058
    O   O48   0.913856  0.453170  0.409166  -0.678071
    C   C117  0.561625  0.938095  0.617990  0.708492
    C   C118  0.438375  0.938095  0.382010  0.708503
    C   C119  0.061625  0.438095  0.617990  0.708515
    C   C120  0.938375  0.438095  0.382010  0.708538
    Zn  Zn9   0.450686  0.997361  0.501917  1.296166
    Zn  Zn10  0.549314  0.997361  0.498083  1.296172
    Zn  Zn11  0.950686  0.497361  0.501917  1.296164
    Zn  Zn12  0.049314  0.497361  0.498083  1.296156
    C   C121  0.947516  0.683822  0.260513  0.339640
    H   H61   0.992527  0.687105  0.324941  0.004297
    O   O49   0.935948  0.704305  0.203058  -0.319915
    C   C122  0.052484  0.683822  0.739486  0.339480
    H   H62   0.007473  0.687105  0.675058  0.004357
    O   O50   0.064052  0.704305  0.796941  -0.319847
    C   C123  0.447516  0.183822  0.260513  0.339400
    H   H63   0.492527  0.187105  0.324941  0.004412
    O   O51   0.435948  0.204305  0.203058  -0.319819
    C   C124  0.552484  0.183822  0.739486  0.339536
    H   H64   0.507473  0.187105  0.675058  0.004358
    O   O52   0.564052  0.204305  0.796941  -0.319861
