# Generated by REPEAT Assigner based on pymatgen
data_DB0-m3_o12_o22_f0_pcu.sym.7
_audit_creation_date              2022-05-24
_audit_creation_method            REPEAT_Assigner
_cell_length_a                    10.136908
_cell_length_b                    10.916328
_cell_length_c                    11.330773
_cell_angle_alpha                 89.996893
_cell_angle_beta                  92.460718
_cell_angle_gamma                 80.897469
_cell_volume                      1236.877291
_symmetry_space_group_name_H-M    P1
_symmetry_Int_Tables_number       1
loop_
    _symmetry_equiv_pos_site_id
    _symmetry_equiv_pos_as_xyz
    1  x,y,z
loop_
    _atom_site_type_symbol
    _atom_site_label
    _atom_site_fract_x
    _atom_site_fract_y
    _atom_site_fract_z
    _atom_type_partial_charge
    O   O1    0.576369  0.494281  0.313426  -0.625391
    O   O2    0.350141  0.531333  0.336120  -0.642664
    C   C1    0.453558  0.512763  0.269334  0.667241
    O   O3    0.622050  0.305836  0.487969  -0.660550
    O   O4    0.394876  0.340255  0.508107  -0.638603
    C   C2    0.507512  0.263959  0.498517  0.702622
    Zn  Zn1   0.648675  0.486245  0.483144  1.087077
    Zn  Zn2   0.349775  0.527583  0.514901  1.085738
    O   O5    0.648894  0.484264  0.662012  -0.663207
    O   O6    0.421268  0.519174  0.684860  -0.587748
    O   O7    0.603653  0.673341  0.489772  -0.693154
    O   O8    0.377294  0.707661  0.511457  -0.711898
    C   C3    0.544657  0.498748  0.728554  0.671962
    C   C4    0.491592  0.748913  0.499738  0.805071
    C   C5    0.594394  0.059453  0.404205  0.391476
    H   H1    0.569479  0.104234  0.316707  -0.036645
    C   C6    0.582735  0.922591  0.394954  -0.330219
    H   H2    0.676679  0.895792  0.610486  0.180813
    C   C7    0.543217  0.066198  0.621788  0.037986
    C   C8    0.359174  0.097344  0.468782  0.001601
    C   C9    0.502795  0.124433  0.498975  0.000146
    C   C10   0.497184  0.886765  0.497100  0.542841
    C   C11   0.567581  0.925315  0.611472  -0.381521
    C   C12   0.353717  0.961186  0.484790  -0.481331
    H   H3    0.462276  0.092941  0.683516  0.096132
    C   C13   0.427487  0.517826  0.140344  -0.055920
    C   C14   0.516997  0.468735  0.061799  0.089601
    H   H4    0.663493  0.520907  0.891012  0.103717
    C   C15   0.568796  0.497827  0.857562  -0.106429
    C   C16   0.480184  0.471062  0.934444  -0.008310
    N   N1    0.152933  0.547826  0.539051  -0.057066
    C   C17   0.077948  0.476693  0.487916  0.063295
    N   N2    0.844815  0.467731  0.457105  -0.060929
    C   C18   0.945358  0.462712  0.531349  -0.008167
    Cl  Cl1   0.767621  0.066774  0.431819  -0.137406
    Cl  Cl2   0.257989  0.948497  0.611560  0.104142
    Cl  Cl3   0.522691  0.852257  0.741410  -0.064664
    Cl  Cl4   0.336266  0.409599  0.886690  -0.094327
    Cl  Cl5   0.677040  0.389798  0.105109  -0.056216
    Cl  Cl6   0.270552  0.597235  0.090595  0.019007
    Cl  Cl7   0.935657  0.406329  0.675627  0.191727
    Cl  Cl8   0.136140  0.387560  0.366699  0.029546
    Cl  Cl9   0.863674  0.544413  0.327031  0.142311
    Cl  Cl10  0.086794  0.635633  0.655339  0.077956
    Cl  Cl11  0.520010  0.890295  0.250914  -0.023379
    Cl  Cl12  0.752072  0.844252  0.400775  -0.017627
    Cl  Cl13  0.686034  0.118130  0.689986  -0.092215
    Cl  Cl14  0.233375  0.171522  0.563021  0.015892
    Cl  Cl15  0.308524  0.135241  0.319042  0.080714
    Cl  Cl16  0.254118  0.914687  0.363914  0.046972
