# Generated by REPEAT Assigner based on pymatgen
data_DB0-m3_o4_o19_f0_nbo.sym.17_sqe
_audit_creation_date              2022-05-24
_audit_creation_method            REPEAT_Assigner
_cell_length_a                    23.818140
_cell_length_b                    30.660078
_cell_length_c                    31.298170
_cell_angle_alpha                 90.000000
_cell_angle_beta                  90.000000
_cell_angle_gamma                 90.000000
_cell_volume                      22855.990335
_symmetry_space_group_name_H-M    P1
_symmetry_Int_Tables_number       1
loop_
    _symmetry_equiv_pos_site_id
    _symmetry_equiv_pos_as_xyz
    1  x,y,z
loop_
    _atom_site_type_symbol
    _atom_site_label
    _atom_site_fract_x
    _atom_site_fract_y
    _atom_site_fract_z
    _atom_type_partial_charge
    O   O1    0.484537  0.733711  0.319603  -0.635690
    O   O2    0.504762  0.735208  0.680073  -0.624950
    O   O3    0.996180  0.234892  0.320202  -0.635907
    O   O4    0.010346  0.234182  0.681105  -0.627314
    O   O5    0.005679  0.734581  0.819531  -0.631631
    O   O6    0.986481  0.735377  0.179378  -0.634344
    O   O7    0.508386  0.234988  0.821337  -0.630736
    O   O8    0.495169  0.234317  0.180851  -0.635345
    O   O9    0.495619  0.679403  0.269091  -0.645868
    O   O10   0.515111  0.680747  0.730499  -0.639289
    O   O11   0.984931  0.180711  0.269544  -0.644222
    O   O12   0.000569  0.179683  0.731565  -0.642311
    O   O13   0.994754  0.680397  0.768865  -0.642473
    O   O14   0.976398  0.680892  0.229834  -0.640879
    O   O15   0.518834  0.180542  0.770883  -0.642086
    O   O16   0.501884  0.180489  0.232264  -0.640380
    C   C1    0.491118  0.692631  0.308782  0.580044
    C   C2    0.511544  0.694125  0.690776  0.559806
    C   C3    0.989700  0.193860  0.309259  0.578084
    C   C4    0.004070  0.193055  0.691852  0.568163
    C   C5    0.998796  0.693567  0.808599  0.570677
    C   C6    0.979931  0.694289  0.190115  0.569535
    C   C7    0.514702  0.193887  0.810587  0.570307
    C   C8    0.500129  0.193317  0.192298  0.576065
    O   O17   0.398933  0.775522  0.273108  -0.638231
    O   O18   0.417717  0.776456  0.725477  -0.636417
    O   O19   0.565940  0.784505  0.273942  -0.670298
    O   O20   0.584650  0.786254  0.726941  -0.669220
    O   O21   0.913672  0.285357  0.275456  -0.668256
    O   O22   0.929672  0.284622  0.727807  -0.670226
    O   O23   0.080732  0.277366  0.273240  -0.643296
    O   O24   0.096714  0.276176  0.726661  -0.640213
    O   O25   0.925156  0.785839  0.773542  -0.670537
    O   O26   0.906486  0.786232  0.226379  -0.671388
    O   O27   0.092104  0.776161  0.773714  -0.639893
    O   O28   0.073458  0.776826  0.224588  -0.638003
    O   O29   0.422774  0.276972  0.775084  -0.637065
    O   O30   0.408115  0.277929  0.224323  -0.647080
    O   O31   0.589845  0.285297  0.775285  -0.672181
    O   O32   0.575230  0.284087  0.228385  -0.660554
    O   O33   0.406803  0.719657  0.223991  -0.682564
    O   O34   0.424948  0.720468  0.774504  -0.686556
    O   O35   0.573825  0.728705  0.224743  -0.649487
    O   O36   0.591892  0.730290  0.776017  -0.649956
    O   O37   0.905664  0.229736  0.226058  -0.652209
    O   O38   0.923023  0.228613  0.776913  -0.649546
    O   O39   0.072734  0.221705  0.223904  -0.681912
    O   O40   0.090080  0.220143  0.775684  -0.684629
    O   O41   0.917369  0.730134  0.724212  -0.650240
    O   O42   0.899585  0.730291  0.275488  -0.649855
    O   O43   0.084335  0.720443  0.724446  -0.686193
    O   O44   0.066540  0.720810  0.273631  -0.685677
    O   O45   0.430029  0.221044  0.725988  -0.685989
    O   O46   0.411221  0.221934  0.273682  -0.670637
    O   O47   0.597098  0.229414  0.726119  -0.652250
    O   O48   0.578186  0.229518  0.279234  -0.662591
    C   C9    0.376840  0.745781  0.248225  0.769494
    C   C10   0.395287  0.746512  0.749964  0.776874
    C   C11   0.595929  0.758435  0.249684  0.741415
    C   C12   0.614298  0.760215  0.751471  0.742187
    C   C13   0.883645  0.259119  0.251406  0.742726
    C   C14   0.900335  0.258362  0.752314  0.740694
    C   C15   0.102760  0.247928  0.247984  0.776324
    C   C16   0.119437  0.246416  0.751187  0.771482
    C   C17   0.895243  0.759900  0.749098  0.742029
    C   C18   0.876984  0.760122  0.250953  0.742841
    C   C19   0.114264  0.746374  0.748911  0.776611
    C   C20   0.096018  0.746898  0.249026  0.773962
    C   C21   0.400353  0.247276  0.750307  0.771973
    C   C22   0.383639  0.248521  0.248379  0.750174
    C   C23   0.619503  0.259051  0.750979  0.745697
    C   C24   0.602750  0.258193  0.254375  0.765257
    Zn  Zn1   0.481617  0.787697  0.282228  1.289833
    Zn  Zn2   0.500511  0.789071  0.717527  1.283833
    Zn  Zn3   0.998069  0.289046  0.283056  1.290783
    Zn  Zn4   0.013789  0.288104  0.718539  1.287867
    Zn  Zn5   0.009406  0.788667  0.782348  1.290399
    Zn  Zn6   0.990591  0.789256  0.216807  1.291274
    Zn  Zn7   0.505598  0.288874  0.783849  1.287277
    Zn  Zn8   0.491552  0.288702  0.217593  1.288531
    Zn  Zn9   0.491126  0.716488  0.215648  1.294810
    Zn  Zn10  0.509092  0.717681  0.783976  1.294145
    Zn  Zn11  0.988336  0.218071  0.216228  1.295209
    Zn  Zn12  0.005960  0.216685  0.785023  1.294356
    Zn  Zn13  0.000080  0.717639  0.715571  1.296126
    Zn  Zn14  0.982452  0.717865  0.283285  1.295470
    Zn  Zn15  0.514274  0.217518  0.717349  1.296332
    Zn  Zn16  0.494793  0.218052  0.285248  1.292794
    O   O49   0.477259  0.824804  0.228748  -0.602464
    O   O50   0.494573  0.826003  0.771028  -0.599412
    O   O51   0.001392  0.326400  0.229714  -0.606627
    O   O52   0.018998  0.325119  0.772035  -0.597849
    O   O53   0.014590  0.825920  0.729010  -0.607385
    O   O54   0.996624  0.826224  0.270275  -0.604593
    O   O55   0.501112  0.325837  0.730298  -0.601181
    O   O56   0.485992  0.326347  0.270618  -0.594483
    O   O57   0.488195  0.770426  0.178329  -0.668976
    O   O58   0.504857  0.771514  0.821397  -0.667443
    O   O59   0.990248  0.272203  0.179122  -0.668463
    O   O60   0.009328  0.270570  0.822409  -0.668833
    O   O61   0.003729  0.771683  0.678438  -0.670665
    O   O62   0.986676  0.771729  0.320670  -0.667390
    O   O63   0.511447  0.271384  0.679890  -0.666768
    O   O64   0.489675  0.272345  0.321975  -0.660368
    C   C25   0.481750  0.811502  0.189027  0.560768
    C   C26   0.498254  0.812613  0.810756  0.557100
    C   C27   0.996593  0.313251  0.189989  0.562182
    C   C28   0.015296  0.311719  0.811768  0.556455
    C   C29   0.010365  0.812700  0.689255  0.567067
    C   C30   0.993218  0.812832  0.310011  0.557588
    C   C31   0.505280  0.312507  0.690588  0.556806
    C   C32   0.486137  0.313459  0.310584  0.540352
    C   C33   0.316698  0.742299  0.247440  -0.106606
    C   C34   0.335110  0.742781  0.750104  -0.109520
    C   C35   0.656093  0.762142  0.250518  -0.102041
    C   C36   0.674470  0.763654  0.750815  -0.103309
    C   C37   0.823505  0.261751  0.253403  -0.103434
    C   C38   0.840202  0.261687  0.751906  -0.101569
    C   C39   0.162903  0.244943  0.246548  -0.106091
    C   C40   0.179606  0.243144  0.751407  -0.106006
    C   C41   0.835088  0.763418  0.750086  -0.102591
    C   C42   0.816764  0.763333  0.250418  -0.102461
    C   C43   0.174440  0.742628  0.748449  -0.109716
    C   C44   0.156142  0.743101  0.248969  -0.102363
    C   C45   0.340190  0.243750  0.749870  -0.104445
    C   C46   0.323450  0.245835  0.247390  -0.100603
    C   C47   0.679663  0.262177  0.751908  -0.101858
    C   C48   0.662969  0.260628  0.254880  -0.114124
    C   C49   0.266084  0.741037  0.247644  0.023648
    C   C50   0.284482  0.741222  0.749607  0.021374
    C   C51   0.706709  0.763917  0.250623  0.008421
    C   C52   0.725091  0.765017  0.750600  0.010254
    C   C53   0.772905  0.262496  0.254397  0.006345
    C   C54   0.789613  0.263155  0.751948  0.009700
    C   C55   0.213516  0.244006  0.246262  0.023325
    C   C56   0.230221  0.241933  0.750968  0.020420
    C   C57   0.784474  0.764919  0.750442  0.008687
    C   C58   0.766113  0.764396  0.250443  0.009823
    C   C59   0.225076  0.741145  0.748815  0.023868
    C   C60   0.206729  0.741365  0.248401  0.019030
    C   C61   0.289583  0.242181  0.750219  0.021304
    C   C62   0.272859  0.244427  0.246684  0.014793
    C   C63   0.730272  0.263351  0.752078  0.008508
    C   C64   0.713570  0.261979  0.254899  0.020073
    C   C65   0.457530  0.660048  0.376389  -0.272028
    C   C66   0.480069  0.664699  0.621496  -0.245117
    C   C67   0.026952  0.161263  0.375359  -0.249658
    C   C68   0.033798  0.162809  0.622273  -0.253215
    C   C69   0.030888  0.662078  0.876865  -0.257941
    C   C70   0.016249  0.663288  0.123034  -0.253519
    C   C71   0.479284  0.163429  0.878281  -0.249364
    C   C72   0.466059  0.161007  0.124992  -0.235116
    C   C73   0.494000  0.659878  0.342570  0.227427
    C   C74   0.513811  0.661541  0.656746  0.220367
    C   C75   0.988289  0.161125  0.343058  0.211310
    C   C76   0.000627  0.160462  0.657911  0.218161
    C   C77   0.995695  0.660825  0.842351  0.219846
    C   C78   0.978797  0.661680  0.156128  0.220343
    C   C79   0.515714  0.161249  0.844544  0.216121
    C   C80   0.502512  0.160245  0.158779  0.196789
    C   C81   0.533180  0.626399  0.341436  -0.295830
    C   C82   0.548532  0.625173  0.659046  -0.285619
    C   C83   0.948673  0.127905  0.343627  -0.286195
    C   C84   0.964326  0.125102  0.660526  -0.286537
    C   C85   0.957962  0.626342  0.840556  -0.289568
    C   C86   0.941613  0.626775  0.156429  -0.291213
    C   C87   0.552130  0.125870  0.843679  -0.291198
    C   C88   0.540759  0.126085  0.159909  -0.278405
    H   H1    0.563034  0.624614  0.315484  0.176644
    H   H2    0.576231  0.620954  0.686084  0.176240
    H   H3    0.917030  0.126285  0.318920  0.176954
    H   H4    0.936949  0.121614  0.687854  0.175718
    H   H5    0.929045  0.623756  0.814054  0.176751
    H   H6    0.911106  0.623817  0.181828  0.176684
    H   H7    0.581912  0.122510  0.817825  0.177333
    H   H8    0.570582  0.123865  0.185851  0.172876
    C   C89   0.535444  0.595566  0.374213  -0.099649
    C   C90   0.548479  0.594056  0.626358  -0.113286
    C   C91   0.948697  0.096937  0.376401  -0.112049
    C   C92   0.961923  0.094337  0.627631  -0.103157
    C   C93   0.956199  0.595332  0.873251  -0.104331
    C   C94   0.942736  0.595687  0.123722  -0.107386
    C   C95   0.551285  0.094844  0.876424  -0.103730
    C   C96   0.541942  0.095049  0.127177  -0.118269
    H   H9    0.566779  0.570098  0.372927  0.148245
    H   H10   0.575576  0.565879  0.628740  0.153258
    H   H11   0.917374  0.071425  0.376402  0.154683
    H   H12   0.933202  0.067175  0.630183  0.152919
    H   H13   0.926339  0.568846  0.871385  0.153968
    H   H14   0.913377  0.568805  0.124423  0.154016
    H   H15   0.580063  0.067605  0.875265  0.152974
    H   H16   0.572377  0.068936  0.128459  0.157486
    C   C97   0.496668  0.596502  0.407366  -0.062897
    C   C98   0.511659  0.597881  0.592159  -0.049347
    C   C99   0.990101  0.097630  0.407666  -0.043937
    C   C100  0.997848  0.097369  0.592813  -0.061415
    C   C101  0.994067  0.597284  0.906954  -0.054040
    C   C102  0.983057  0.597934  0.091701  -0.054519
    C   C103  0.511980  0.097668  0.909113  -0.058196
    C   C104  0.502915  0.096553  0.094190  -0.036425
    C   C105  0.457700  0.629394  0.406396  0.232323
    C   C106  0.477922  0.634044  0.591620  0.197550
    C   C107  0.028832  0.130583  0.405207  0.210870
    C   C108  0.033606  0.132366  0.592101  0.212816
    C   C109  0.031192  0.631429  0.906802  0.216938
    C   C110  0.019401  0.632528  0.093318  0.215832
    C   C111  0.476382  0.132742  0.908089  0.213862
    C   C112  0.465113  0.130236  0.095169  0.204882
    C   C113  0.408687  0.647534  0.429728  -0.428951
    C   C114  0.432714  0.655616  0.566740  -0.415175
    C   C115  0.079898  0.148275  0.426218  -0.456881
    C   C116  0.078680  0.153117  0.566417  -0.439252
    C   C117  0.078661  0.650830  0.930992  -0.449811
    C   C118  0.068610  0.652131  0.071402  -0.452320
    C   C119  0.428478  0.153091  0.930986  -0.445237
    C   C120  0.416401  0.149065  0.071984  -0.475956
    C   C121  0.408404  0.683240  0.394279  0.740137
    C   C122  0.434969  0.691348  0.602107  0.702490
    C   C123  0.077745  0.184059  0.390897  0.748346
    C   C124  0.079097  0.188601  0.602069  0.727071
    C   C125  0.078490  0.686517  0.895542  0.740931
    C   C126  0.065025  0.687995  0.106574  0.735577
    C   C127  0.431728  0.188877  0.895720  0.730233
    C   C128  0.417464  0.184976  0.107208  0.745897
    H   H17   0.371643  0.625674  0.428385  0.136450
    H   H18   0.393075  0.636655  0.566913  0.133978
    H   H19   0.420327  0.660427  0.461554  0.134127
    H   H20   0.447863  0.667386  0.535327  0.148970
    H   H21   0.071011  0.161142  0.458573  0.148385
    H   H22   0.062924  0.165491  0.535415  0.152205
    H   H23   0.116467  0.126132  0.423075  0.141961
    H   H24   0.117536  0.133229  0.565602  0.137173
    H   H25   0.065373  0.663399  0.962580  0.149511
    H   H26   0.057879  0.664417  0.039156  0.152602
    H   H27   0.116674  0.629973  0.930351  0.139483
    H   H28   0.106724  0.631538  0.074051  0.140483
    H   H29   0.389775  0.133084  0.929123  0.139198
    H   H30   0.378748  0.127869  0.073693  0.143755
    H   H31   0.440664  0.165216  0.963004  0.151103
    H   H32   0.428123  0.161528  0.039999  0.158390
    C   C129  0.450291  0.881107  0.156168  -0.291737
    C   C130  0.464037  0.881818  0.842669  -0.287474
    C   C131  0.032254  0.381344  0.157025  -0.278343
    C   C132  0.044784  0.382297  0.843730  -0.292198
    C   C133  0.044063  0.881344  0.655833  -0.286472
    C   C134  0.030087  0.881073  0.342184  -0.290274
    C   C135  0.470148  0.381307  0.659017  -0.278529
    C   C136  0.506645  0.387156  0.338246  -0.247207
    C   C137  0.482532  0.844055  0.154939  0.241090
    C   C138  0.496855  0.845123  0.844918  0.238737
    C   C139  0.997114  0.345936  0.156063  0.234588
    C   C140  0.014518  0.344287  0.845892  0.242321
    C   C141  0.009988  0.845296  0.655248  0.234930
    C   C142  0.995586  0.845300  0.344183  0.244257
    C   C143  0.503782  0.345128  0.656563  0.236892
    C   C144  0.483545  0.346663  0.344057  0.241681
    C   C145  0.517554  0.839131  0.119831  -0.268820
    C   C146  0.529963  0.840594  0.881136  -0.266096
    C   C147  0.961501  0.342573  0.121149  -0.268467
    C   C148  0.981030  0.338640  0.881777  -0.268683
    C   C149  0.973630  0.841385  0.620831  -0.265403
    C   C150  0.962141  0.841518  0.380293  -0.272251
    C   C151  0.536891  0.341187  0.620247  -0.279426
    C   C152  0.459263  0.338524  0.383674  -0.291824
    H   H33   0.544344  0.810796  0.117272  0.175291
    H   H34   0.557159  0.812595  0.884555  0.174240
    H   H35   0.932547  0.315537  0.118815  0.176111
    H   H36   0.955684  0.309600  0.885114  0.175265
    H   H37   0.945339  0.813902  0.618877  0.174629
    H   H38   0.933761  0.814214  0.383540  0.175560
    H   H39   0.564618  0.313517  0.616669  0.178623
    H   H40   0.440201  0.307218  0.390137  0.180619
    C   C153  0.520813  0.871591  0.088727  -0.151966
    C   C154  0.530598  0.872984  0.912442  -0.153317
    C   C155  0.960969  0.374846  0.089750  -0.151896
    C   C156  0.977349  0.371228  0.912750  -0.150266
    C   C157  0.971201  0.873748  0.589603  -0.154911
    C   C158  0.962801  0.873794  0.411716  -0.150866
    C   C159  0.536386  0.373603  0.588889  -0.132936
    C   C160  0.458820  0.370692  0.415362  -0.118172
    H   H41   0.549686  0.867725  0.062356  0.162259
    H   H42   0.557832  0.869312  0.939831  0.162661
    H   H43   0.931899  0.372071  0.063380  0.162116
    H   H44   0.949641  0.366781  0.939753  0.161472
    H   H45   0.941423  0.870643  0.563724  0.163431
    H   H46   0.935237  0.870780  0.438989  0.162799
    H   H47   0.563334  0.370340  0.561286  0.153808
    H   H48   0.439962  0.363807  0.446044  0.151387
    C   C161  0.486892  0.908311  0.091058  -0.046169
    C   C162  0.495988  0.909262  0.909096  -0.043766
    C   C163  0.998080  0.409724  0.091662  -0.037751
    C   C164  0.009366  0.408883  0.909480  -0.052768
    C   C165  0.007180  0.909305  0.591121  -0.041227
    C   C166  0.999077  0.909109  0.408634  -0.047808
    C   C167  0.500629  0.409211  0.592389  -0.033932
    C   C168  0.485029  0.410505  0.408443  -0.059372
    C   C169  0.451148  0.910883  0.125271  0.235221
    C   C170  0.462428  0.911539  0.873604  0.232800
    C   C171  0.033830  0.410886  0.125951  0.224808
    C   C172  0.043590  0.412263  0.874450  0.237792
    C   C173  0.043868  0.910996  0.624819  0.230314
    C   C174  0.032910  0.910604  0.373247  0.234728
    C   C175  0.467504  0.410964  0.628127  0.215784
    C   C176  0.508652  0.416815  0.369079  0.207230
    C   C177  0.409540  0.939984  0.146105  -0.394610
    C   C178  0.421267  0.940032  0.851477  -0.389254
    C   C179  0.078650  0.437463  0.146190  -0.402786
    C   C180  0.082684  0.442540  0.852443  -0.385548
    C   C181  0.087756  0.938730  0.644740  -0.397127
    C   C182  0.075599  0.937949  0.351406  -0.392059
    C   C183  0.425133  0.438446  0.650162  -0.392160
    C   C184  0.541114  0.449001  0.343691  -0.330930
    C   C185  0.408296  0.904859  0.182134  0.718164
    C   C186  0.422883  0.904951  0.815423  0.711529
    C   C187  0.077038  0.402547  0.182395  0.723754
    C   C188  0.084364  0.407208  0.816628  0.709545
    C   C189  0.088208  0.903721  0.680887  0.722623
    C   C190  0.072572  0.903069  0.315218  0.716043
    C   C191  0.427989  0.403404  0.686194  0.717611
    C   C192  0.539017  0.414008  0.307589  0.630153
    H   H49   0.428430  0.971286  0.156514  0.127181
    H   H50   0.439924  0.971623  0.841668  0.126716
    H   H51   0.369723  0.942045  0.127857  0.131247
    H   H52   0.380412  0.941462  0.868406  0.129610
    H   H53   0.118218  0.436972  0.127534  0.133504
    H   H54   0.123105  0.446078  0.869671  0.128108
    H   H55   0.063206  0.469881  0.156618  0.131952
    H   H56   0.061654  0.473087  0.842271  0.124081
    H   H57   0.127057  0.939376  0.625754  0.131413
    H   H58   0.116364  0.938119  0.368523  0.130920
    H   H59   0.070994  0.970677  0.655378  0.127578
    H   H60   0.058572  0.970098  0.341630  0.126906
    H   H61   0.442501  0.470467  0.659998  0.128923
    H   H62   0.583910  0.454240  0.356648  0.115535
    H   H63   0.384324  0.438900  0.633115  0.129220
    H   H64   0.516266  0.478646  0.336313  0.116782
    O   O65   0.450308  0.962293  0.953240  -0.678246
    O   O66   0.445653  0.961731  0.045016  -0.684383
    O   O67   0.546482  0.953745  0.957697  -0.671658
    O   O68   0.542016  0.953219  0.045924  -0.673866
    O   O69   0.953836  0.453851  0.954356  -0.676469
    O   O70   0.948398  0.454131  0.042571  -0.668404
    O   O71   0.050215  0.462152  0.955863  -0.686319
    O   O72   0.044555  0.462364  0.047619  -0.672322
    O   O73   0.950038  0.954796  0.457021  -0.674987
    O   O74   0.953913  0.954822  0.545281  -0.672416
    O   O75   0.046506  0.961189  0.452868  -0.684301
    O   O76   0.050541  0.961286  0.544686  -0.676412
    O   O77   0.444386  0.458667  0.459853  -0.701013
    O   O78   0.450690  0.461059  0.550061  -0.646700
    O   O79   0.540751  0.456763  0.451868  -0.671707
    O   O80   0.546717  0.454541  0.541635  -0.685149
    C   C193  0.497539  0.943746  0.941308  0.689582
    C   C194  0.491596  0.943060  0.059365  0.698842
    C   C195  0.004360  0.443646  0.941153  0.708134
    C   C196  0.997109  0.443950  0.059218  0.679434
    C   C197  0.998686  0.943613  0.440864  0.698008
    C   C198  0.003871  0.943736  0.559013  0.688546
    C   C199  0.490188  0.443367  0.441933  0.720918
    C   C200  0.499221  0.443364  0.559837  0.669493
    O   O81   0.449890  0.552010  0.458898  -0.650566
    O   O82   0.456010  0.551579  0.548610  -0.654770
    O   O83   0.546284  0.547043  0.452087  -0.673792
    O   O84   0.552461  0.547857  0.542410  -0.712113
    O   O85   0.946973  0.046750  0.455294  -0.699897
    O   O86   0.950971  0.046739  0.547143  -0.705467
    O   O87   0.043557  0.053166  0.454601  -0.632375
    O   O88   0.047404  0.053256  0.542964  -0.642893
    O   O89   0.947999  0.545707  0.952099  -0.700909
    O   O90   0.942349  0.545980  0.043894  -0.702333
    O   O91   0.044121  0.554030  0.957152  -0.631381
    O   O92   0.038683  0.554253  0.045469  -0.636875
    O   O93   0.456662  0.054169  0.955704  -0.639990
    O   O94   0.452201  0.053587  0.044068  -0.627791
    O   O95   0.552968  0.045593  0.956604  -0.702168
    O   O96   0.548327  0.045043  0.048447  -0.700749
    C   C201  0.497625  0.563799  0.441331  0.673243
    C   C202  0.506614  0.564084  0.559478  0.715272
    C   C203  0.993604  0.064226  0.440835  0.678049
    C   C204  0.998704  0.064280  0.559216  0.700422
    C   C205  0.995380  0.564078  0.940409  0.681145
    C   C206  0.988163  0.564414  0.058727  0.689136
    C   C207  0.507084  0.064218  0.942149  0.692889
    C   C208  0.501154  0.063471  0.060560  0.673809
    Zn  Zn17  0.436140  0.007751  0.999056  1.269093
    Zn  Zn18  0.562523  0.999601  0.002611  1.303435
    Zn  Zn19  0.933075  0.500158  0.997688  1.304058
    Zn  Zn20  0.059452  0.507952  0.002067  1.265384
    Zn  Zn21  0.935407  0.001312  0.501559  1.305494
    Zn  Zn22  0.062054  0.006680  0.498397  1.269317
    Zn  Zn23  0.435123  0.506229  0.504298  1.276730
    Zn  Zn24  0.561673  0.501082  0.497114  1.303732
    F   F1    0.361825  0.681498  0.368008  -0.279017
    F   F2    0.387051  0.693189  0.626942  -0.267654
    F   F3    0.421263  0.724454  0.409230  -0.285552
    F   F4    0.453581  0.731342  0.587485  -0.278869
    F   F5    0.066679  0.225342  0.406488  -0.288768
    F   F6    0.061372  0.229098  0.588156  -0.284599
    F   F7    0.122051  0.182008  0.362457  -0.280261
    F   F8    0.127998  0.189208  0.625830  -0.274361
    F   F9    0.063512  0.727385  0.910262  -0.286398
    F   F10   0.050783  0.728670  0.090942  -0.285607
    F   F11   0.125869  0.685935  0.870052  -0.277583
    F   F12   0.110165  0.687915  0.134320  -0.274787
    F   F13   0.385624  0.189466  0.868915  -0.274108
    F   F14   0.371046  0.184243  0.133692  -0.270191
    F   F15   0.447516  0.229331  0.911039  -0.284702
    F   F16   0.431399  0.225851  0.091922  -0.287607
    F   F17   0.429464  0.919554  0.220640  -0.281043
    F   F18   0.445728  0.920022  0.777619  -0.280048
    F   F19   0.357638  0.883121  0.185245  -0.272597
    F   F20   0.373016  0.882416  0.810718  -0.270478
    F   F21   0.125364  0.377749  0.185034  -0.275616
    F   F22   0.136012  0.387124  0.812445  -0.270206
    F   F23   0.058221  0.418644  0.221068  -0.283212
    F   F24   0.060851  0.420904  0.778558  -0.279732
    F   F25   0.137674  0.880280  0.683114  -0.273186
    F   F26   0.121356  0.879108  0.310683  -0.271888
    F   F27   0.069170  0.919227  0.719730  -0.281994
    F   F28   0.050798  0.918935  0.277358  -0.280476
    F   F29   0.450095  0.418957  0.724067  -0.282071
    F   F30   0.590902  0.396442  0.297879  -0.250977
    F   F31   0.379011  0.379688  0.690748  -0.270989
    F   F32   0.507895  0.426723  0.272470  -0.265955
