# Generated by REPEAT Assigner based on pymatgen
data_DB0-m3_o2_o27_f0_nbo.sym.118
_audit_creation_date              2022-05-24
_audit_creation_method            REPEAT_Assigner
_cell_length_a                    30.331387
_cell_length_b                    30.331386
_cell_length_c                    38.588863
_cell_angle_alpha                 90.000000
_cell_angle_beta                  90.000000
_cell_angle_gamma                 90.000000
_cell_volume                      35501.484577
_symmetry_space_group_name_H-M    P1
_symmetry_Int_Tables_number       1
loop_
    _symmetry_equiv_pos_site_id
    _symmetry_equiv_pos_as_xyz
    1  x,y,z
loop_
    _atom_site_type_symbol
    _atom_site_label
    _atom_site_fract_x
    _atom_site_fract_y
    _atom_site_fract_z
    _atom_type_partial_charge
    O   O1    0.065722  0.460938  0.499166  -0.671773
    O   O2    0.460920  0.934305  0.500691  -0.672697
    O   O3    0.934361  0.539224  0.500740  -0.671927
    O   O4    0.539116  0.065721  0.499211  -0.672020
    O   O5    0.065630  0.536972  0.500779  -0.687004
    O   O6    0.463081  0.065575  0.500803  -0.687198
    O   O7    0.934453  0.463191  0.499244  -0.687875
    O   O8    0.536955  0.934451  0.499217  -0.688288
    O   O9    0.565554  0.963051  0.000783  -0.688546
    O   O10   0.963034  0.434374  0.999219  -0.686688
    O   O11   0.434429  0.036924  0.999197  -0.687320
    O   O12   0.036815  0.565552  0.000757  -0.687737
    O   O13   0.565700  0.039085  0.999308  -0.672781
    O   O14   0.960782  0.565643  0.999260  -0.672189
    O   O15   0.434283  0.960889  0.000790  -0.672066
    O   O16   0.039069  0.434283  0.000834  -0.671599
    C   C1    0.086287  0.498968  0.499987  0.677025
    C   C2    0.498965  0.913766  0.499919  0.677907
    C   C3    0.913795  0.501195  0.499974  0.677691
    C   C4    0.501072  0.086259  0.500038  0.677169
    C   C5    0.586238  0.001041  0.000080  0.678366
    C   C6    0.001038  0.413717  0.000012  0.676854
    C   C7    0.413745  0.998933  0.999964  0.677480
    C   C8    0.998811  0.586209  0.000027  0.678022
    O   O17   0.000694  0.461040  0.448299  -0.687512
    O   O18   0.463022  0.999317  0.448463  -0.703964
    O   O19   0.999328  0.537109  0.448477  -0.704838
    O   O20   0.539091  0.000737  0.448311  -0.687600
    O   O21   0.998920  0.539107  0.551661  -0.689946
    O   O22   0.460962  0.998821  0.551647  -0.689610
    O   O23   0.001220  0.463070  0.551484  -0.706201
    O   O24   0.536997  0.001175  0.551493  -0.706410
    O   O25   0.498829  0.963008  0.948507  -0.706359
    O   O26   0.960900  0.501085  0.948339  -0.690211
    O   O27   0.501183  0.039043  0.948353  -0.689492
    O   O28   0.036937  0.498785  0.948516  -0.706080
    O   O29   0.500689  0.036984  0.051537  -0.703882
    O   O30   0.962896  0.500675  0.051522  -0.705075
    O   O31   0.499269  0.960915  0.051690  -0.687676
    O   O32   0.038965  0.499310  0.051701  -0.687349
    C   C9    0.999987  0.499123  0.432214  0.617993
    C   C10   0.501017  0.000010  0.432213  0.618731
    C   C11   0.000112  0.501042  0.567751  0.622887
    C   C12   0.499019  0.000033  0.567749  0.623297
    C   C13   0.499970  0.000985  0.932251  0.622640
    C   C14   0.998966  0.499894  0.932249  0.622624
    C   C15   0.499996  0.998989  0.067787  0.617851
    C   C16   0.000882  0.500016  0.067786  0.617897
    Zn  Zn1   0.999893  0.450162  0.500032  1.315462
    Zn  Zn2   0.450099  0.000128  0.499919  1.315321
    Zn  Zn3   0.000191  0.550000  0.499936  1.315406
    Zn  Zn4   0.549937  0.999899  0.500046  1.315604
    Zn  Zn5   0.500106  0.950068  0.999954  1.315920
    Zn  Zn6   0.950006  0.499813  0.000063  1.315829
    Zn  Zn7   0.499876  0.049906  0.000081  1.315392
    Zn  Zn8   0.049844  0.500112  0.999968  1.315096
    C   C17   0.014215  0.536018  0.376395  -0.181296
    C   C18   0.537545  0.985725  0.376255  -0.184564
    C   C19   0.985813  0.462635  0.376217  -0.184751
    C   C20   0.464151  0.014100  0.376356  -0.180561
    C   C21   0.015214  0.464531  0.623605  -0.190330
    C   C22   0.535497  0.015291  0.623584  -0.189303
    C   C23   0.984931  0.537156  0.623740  -0.192619
    C   C24   0.462885  0.984981  0.623759  -0.193880
    C   C25   0.515022  0.037119  0.876241  -0.193803
    C   C26   0.035477  0.484793  0.876395  -0.190709
    C   C27   0.484712  0.964506  0.876417  -0.189401
    C   C28   0.962853  0.515076  0.876260  -0.193045
    C   C29   0.514281  0.962462  0.123745  -0.184656
    C   C30   0.037368  0.514190  0.123783  -0.184953
    C   C31   0.485906  0.035855  0.123644  -0.180830
    C   C32   0.963985  0.485788  0.123604  -0.181150
    H   H1    0.025721  0.564879  0.390099  0.131726
    H   H2    0.566499  0.974244  0.389849  0.131782
    H   H3    0.974283  0.433678  0.389781  0.131971
    H   H4    0.435279  0.025635  0.390030  0.131127
    H   H5    0.027488  0.435965  0.609933  0.135424
    H   H6    0.564066  0.027531  0.609897  0.135173
    H   H7    0.972692  0.565821  0.610178  0.135833
    H   H8    0.434231  0.972687  0.610212  0.136054
    H   H9    0.527316  0.065772  0.889788  0.136004
    H   H10   0.064043  0.472519  0.890067  0.135475
    H   H11   0.472472  0.935937  0.890103  0.135222
    H   H12   0.934187  0.527314  0.889822  0.135861
    H   H13   0.525762  0.933507  0.110152  0.131790
    H   H14   0.066326  0.525720  0.110220  0.131985
    H   H15   0.474372  0.064727  0.109970  0.131186
    H   H16   0.935125  0.474282  0.109900  0.131632
    C   C33   0.014953  0.535875  0.340680  0.099657
    C   C34   0.537168  0.984953  0.340542  0.103274
    C   C35   0.985176  0.463023  0.340501  0.102134
    C   C36   0.464305  0.014705  0.340639  0.099012
    C   C37   0.015777  0.464657  0.659324  0.109744
    C   C38   0.535340  0.016007  0.659299  0.109466
    C   C39   0.984218  0.536753  0.659453  0.108975
    C   C40   0.463256  0.984422  0.659475  0.110366
    C   C41   0.515581  0.036747  0.840525  0.110427
    C   C42   0.035351  0.484230  0.840676  0.110524
    C   C43   0.483995  0.964663  0.840702  0.109227
    C   C44   0.963255  0.515790  0.840547  0.110224
    C   C45   0.515054  0.962839  0.159458  0.103509
    C   C46   0.036980  0.514827  0.159499  0.102359
    C   C47   0.485302  0.035702  0.159362  0.098979
    C   C48   0.964128  0.485049  0.159319  0.099753
    H   H17   0.026455  0.564883  0.327173  0.045265
    H   H18   0.566093  0.973451  0.326925  0.044780
    H   H19   0.973724  0.434103  0.326852  0.045080
    H   H20   0.435294  0.026136  0.327098  0.046251
    H   H21   0.027940  0.435922  0.672831  0.041303
    H   H22   0.564057  0.028250  0.672787  0.041163
    H   H23   0.971982  0.565381  0.673061  0.042229
    H   H24   0.434619  0.972244  0.673103  0.042168
    H   H25   0.527758  0.065384  0.826897  0.042106
    H   H26   0.064087  0.472067  0.827169  0.041147
    H   H27   0.471753  0.935946  0.827214  0.041322
    H   H28   0.934628  0.528026  0.826938  0.041905
    H   H29   0.526556  0.933914  0.173075  0.044692
    H   H30   0.065900  0.526278  0.173149  0.045070
    H   H31   0.473871  0.064713  0.172902  0.046334
    H   H32   0.935120  0.473548  0.172826  0.045291
    C   C49   0.000096  0.499508  0.322566  -0.539855
    C   C50   0.500679  0.999783  0.322566  -0.541095
    C   C51   0.999949  0.500633  0.677421  -0.540172
    C   C52   0.499352  0.000257  0.677420  -0.541515
    C   C53   0.499746  0.000651  0.822580  -0.541541
    C   C54   0.999376  0.500059  0.822579  -0.542168
    C   C55   0.500224  0.999328  0.177435  -0.541860
    C   C56   0.000495  0.499906  0.177434  -0.540207
    C   C57   0.999994  0.499264  0.394307  0.176174
    C   C58   0.500904  0.999952  0.394307  0.174851
    C   C59   0.000102  0.500910  0.605665  0.176549
    C   C60   0.499137  0.000098  0.605663  0.176352
    C   C61   0.499905  0.000867  0.894337  0.176817
    C   C62   0.999098  0.499905  0.894335  0.177144
    C   C63   0.500055  0.999103  0.105694  0.175920
    C   C64   0.000740  0.500009  0.105692  0.176294
    N   N1    0.973208  0.472461  0.267032  -0.374460
    N   N2    0.473287  0.026639  0.267125  -0.374687
    N   N3    0.027257  0.526889  0.267217  -0.373547
    N   N4    0.527716  0.972589  0.267124  -0.374434
    N   N5    0.972713  0.527610  0.732876  -0.371395
    N   N6    0.472303  0.973372  0.732967  -0.371840
    N   N7    0.026771  0.473199  0.732874  -0.371607
    N   N8    0.526714  0.027430  0.732784  -0.370427
    N   N9    0.472573  0.973289  0.767216  -0.370645
    N   N10   0.972399  0.527295  0.767124  -0.371445
    N   N11   0.526631  0.027699  0.767033  -0.371969
    N   N12   0.026810  0.473237  0.767125  -0.371392
    N   N13   0.473369  0.026720  0.232875  -0.374838
    N   N14   0.973113  0.472745  0.232783  -0.373918
    N   N15   0.527418  0.972292  0.232876  -0.374575
    N   N16   0.027541  0.526794  0.232968  -0.374776
    C   C65   0.000376  0.499817  0.215372  1.005742
    C   C66   0.500338  0.999450  0.215373  1.007253
    C   C67   0.999532  0.500196  0.784631  0.998638
    C   C68   0.499649  0.000542  0.784632  0.997871
    C   C69   0.499461  0.000353  0.715368  0.997715
    C   C70   0.999812  0.500476  0.715368  0.997589
    C   C71   0.500557  0.999669  0.284627  1.006519
    C   C72   0.000185  0.499626  0.284627  1.005277
    C   C73   0.203005  0.460664  0.506252  -0.177985
    C   C74   0.461244  0.797015  0.507747  -0.181879
    C   C75   0.797102  0.538967  0.508162  -0.181347
    C   C76   0.539290  0.202969  0.506654  -0.182201
    C   C77   0.202863  0.537582  0.493423  -0.183012
    C   C78   0.462371  0.202843  0.493828  -0.186197
    C   C79   0.797198  0.463047  0.492071  -0.186342
    C   C80   0.537163  0.797229  0.491654  -0.186037
    C   C81   0.702776  0.962842  0.008344  -0.185973
    C   C82   0.962423  0.297142  0.006573  -0.183004
    C   C83   0.297162  0.037633  0.006174  -0.185943
    C   C84   0.036957  0.702807  0.007933  -0.185812
    C   C85   0.702989  0.038761  0.992250  -0.181703
    C   C86   0.961040  0.702902  0.991836  -0.181319
    C   C87   0.297035  0.960714  0.993348  -0.181692
    C   C88   0.039343  0.297000  0.993750  -0.178844
    H   H33   0.220778  0.430386  0.511043  0.142963
    H   H34   0.431360  0.779213  0.513828  0.144321
    H   H35   0.779345  0.568852  0.514320  0.143615
    H   H36   0.569551  0.220739  0.511523  0.143344
    H   H37   0.220526  0.567904  0.488551  0.143509
    H   H38   0.432031  0.220510  0.489036  0.144327
    H   H39   0.779518  0.433089  0.485994  0.145038
    H   H40   0.567121  0.779594  0.485497  0.144806
    H   H41   0.720411  0.932884  0.014502  0.144790
    H   H42   0.932100  0.279479  0.011443  0.143486
    H   H43   0.279495  0.067974  0.010966  0.144302
    H   H44   0.066914  0.720486  0.014014  0.144936
    H   H45   0.720792  0.068644  0.986169  0.144245
    H   H46   0.931155  0.720660  0.985675  0.143663
    H   H47   0.279266  0.930453  0.988479  0.143311
    H   H48   0.069622  0.279226  0.988961  0.143111
    C   C89   0.157583  0.460461  0.506024  -0.258714
    C   C90   0.460984  0.842436  0.507534  -0.260172
    C   C91   0.842521  0.539217  0.507774  -0.259180
    C   C92   0.539533  0.157551  0.506253  -0.256178
    C   C93   0.157446  0.537665  0.493818  -0.253907
    C   C94   0.462328  0.157423  0.494049  -0.252407
    C   C95   0.842617  0.462968  0.492295  -0.255741
    C   C96   0.537232  0.842646  0.492054  -0.257963
    C   C97   0.657359  0.962773  0.007945  -0.258008
    C   C98   0.962340  0.342558  0.006178  -0.253938
    C   C99   0.342582  0.037677  0.005953  -0.252547
    C   C100  0.037036  0.657387  0.007710  -0.256022
    C   C101  0.657568  0.039021  0.992464  -0.260326
    C   C102  0.960790  0.657483  0.992224  -0.258951
    C   C103  0.342454  0.960472  0.993749  -0.256480
    C   C104  0.039546  0.342421  0.993977  -0.258224
    H   H49   0.140449  0.429893  0.511041  0.152927
    H   H50   0.430795  0.859543  0.513857  0.154529
    H   H51   0.859672  0.569399  0.514042  0.154271
    H   H52   0.570114  0.140415  0.511215  0.152838
    H   H53   0.140209  0.568187  0.488848  0.152673
    H   H54   0.431818  0.140188  0.489026  0.152398
    H   H55   0.859843  0.432843  0.485982  0.154262
    H   H56   0.567350  0.859916  0.485794  0.155232
    H   H57   0.640089  0.932656  0.014206  0.155259
    H   H58   0.931818  0.359796  0.011146  0.152609
    H   H59   0.359816  0.068186  0.010976  0.152408
    H   H60   0.067160  0.640162  0.014026  0.154280
    H   H61   0.640462  0.069210  0.986140  0.154576
    H   H62   0.930608  0.640332  0.985953  0.154216
    H   H63   0.359590  0.929891  0.988787  0.152819
    H   H64   0.070115  0.359555  0.988962  0.152897
    C   C105  0.134566  0.499032  0.499955  0.110705
    C   C106  0.499060  0.865488  0.499839  0.113760
    C   C107  0.865517  0.501132  0.500001  0.111900
    C   C108  0.500979  0.134539  0.500108  0.109270
    C   C109  0.634516  0.000945  0.000160  0.113648
    C   C110  0.000975  0.365438  0.000044  0.110402
    C   C111  0.365466  0.999026  0.999893  0.109324
    C   C112  0.998873  0.634488  0.000000  0.111730
    C   C113  0.225760  0.499152  0.499784  0.554332
    C   C114  0.499252  0.774295  0.499651  0.557739
    C   C115  0.774323  0.500961  0.500166  0.558399
    C   C116  0.500780  0.225733  0.500289  0.558541
    C   C117  0.725709  0.000753  0.000347  0.557743
    C   C118  0.000854  0.274244  0.000214  0.554799
    C   C119  0.274272  0.999225  0.999713  0.558381
    C   C120  0.999044  0.725681  0.999835  0.557813
    C   C121  0.296806  0.509273  0.469574  0.568671
    C   C122  0.507320  0.703223  0.469096  0.568578
    C   C123  0.703003  0.492863  0.469972  0.565195
    C   C124  0.490587  0.297032  0.470457  0.563238
    C   C125  0.297132  0.489263  0.529579  0.562266
    C   C126  0.510618  0.296852  0.530457  0.564952
    C   C127  0.703226  0.508687  0.530744  0.569438
    C   C128  0.491517  0.702952  0.529871  0.562305
    C   C129  0.797053  0.008487  0.970127  0.562305
    C   C130  0.010747  0.202872  0.970421  0.561796
    C   C131  0.203153  0.989387  0.969544  0.565483
    C   C132  0.991324  0.796778  0.969256  0.568031
    C   C133  0.796782  0.992686  0.030902  0.568540
    C   C134  0.007136  0.797002  0.030030  0.564890
    C   C135  0.202973  0.009416  0.029545  0.564604
    C   C136  0.990728  0.203199  0.030424  0.568344
    C   C137  0.342254  0.509780  0.469618  -0.422860
    C   C138  0.507841  0.657773  0.469146  -0.421474
    C   C139  0.657555  0.492316  0.470256  -0.418911
    C   C140  0.490083  0.342480  0.470738  -0.419781
    C   C141  0.342584  0.489004  0.529279  -0.419144
    C   C142  0.510880  0.342304  0.530394  -0.421209
    C   C143  0.657774  0.508928  0.530717  -0.419982
    C   C144  0.491251  0.657501  0.529611  -0.415972
    C   C145  0.842504  0.008754  0.970387  -0.415827
    C   C146  0.011005  0.157420  0.970721  -0.418939
    C   C147  0.157701  0.989125  0.969607  -0.421349
    C   C148  0.991083  0.842230  0.969283  -0.418990
    C   C149  0.842231  0.992165  0.030853  -0.421366
    C   C150  0.007683  0.842450  0.029746  -0.418608
    C   C151  0.157525  0.009921  0.029264  -0.420533
    C   C152  0.990221  0.157750  0.030380  -0.422700
    H   H65   0.359467  0.518082  0.445990  0.171368
    H   H66   0.514482  0.640538  0.445206  0.170078
    H   H67   0.640125  0.485654  0.446406  0.171689
    H   H68   0.481780  0.359894  0.447201  0.173299
    H   H69   0.360061  0.480811  0.552811  0.173328
    H   H70   0.519089  0.359579  0.554015  0.171688
    H   H71   0.640517  0.515464  0.554666  0.169398
    H   H72   0.484710  0.640049  0.553472  0.170886
    H   H73   0.859956  0.015294  0.946527  0.170861
    H   H74   0.019203  0.139943  0.947190  0.173315
    H   H75   0.140426  0.980916  0.945987  0.171667
    H   H76   0.984551  0.859487  0.945333  0.169218
    H   H77   0.859466  0.985524  0.054793  0.170069
    H   H78   0.014340  0.859879  0.053597  0.171600
    H   H79   0.140110  0.018224  0.052800  0.173340
    H   H80   0.981915  0.140538  0.054007  0.171367
    C   C153  0.365332  0.499465  0.499386  0.184355
    C   C154  0.499613  0.634723  0.499326  0.181098
    C   C155  0.634751  0.500539  0.500552  0.182154
    C   C156  0.500420  0.365306  0.500621  0.182132
    C   C157  0.865281  0.000392  0.000673  0.180884
    C   C158  0.000541  0.134672  0.000614  0.184105
    C   C159  0.134699  0.999584  0.999380  0.182490
    C   C160  0.999465  0.865254  0.999449  0.181792
    C   C161  0.274023  0.499217  0.499643  -0.490046
    C   C162  0.499357  0.726034  0.499537  -0.492338
    C   C163  0.726061  0.500848  0.500294  -0.495196
    C   C164  0.500665  0.273995  0.500402  -0.488903
    C   C165  0.773971  0.000648  0.000461  -0.492377
    C   C166  0.000789  0.225982  0.000356  -0.489702
    C   C167  0.226009  0.999339  0.999600  -0.490215
    C   C168  0.999157  0.773943  0.999708  -0.494136
    O   O33   0.499167  0.565931  0.469295  -0.674609
    O   O34   0.565700  0.500874  0.470860  -0.692032
    O   O35   0.498857  0.434325  0.470908  -0.693432
    O   O36   0.434093  0.501152  0.469342  -0.674756
    O   O37   0.501672  0.434098  0.530638  -0.676598
    O   O38   0.565985  0.499634  0.530620  -0.675283
    O   O39   0.500451  0.565700  0.529055  -0.692579
    O   O40   0.434382  0.498382  0.529073  -0.694105
    O   O41   0.001624  0.065622  0.970927  -0.694191
    O   O42   0.065907  0.998332  0.969363  -0.676619
    O   O43   0.000371  0.934019  0.969381  -0.675239
    O   O44   0.934306  0.999553  0.970945  -0.692585
    O   O45   0.999130  0.934305  0.029141  -0.691710
    O   O46   0.065680  0.001148  0.029092  -0.693122
    O   O47   0.998852  0.065912  0.030658  -0.674743
    O   O48   0.934074  0.000838  0.030705  -0.674472
    C   C169  0.499755  0.586437  0.499215  0.678380
    C   C170  0.586464  0.500349  0.500690  0.677615
    C   C171  0.500297  0.413592  0.500734  0.678614
    C   C172  0.413618  0.499652  0.499255  0.675921
    C   C173  0.000353  0.086386  0.000744  0.676136
    C   C174  0.086413  0.999707  0.999267  0.678420
    C   C175  0.999656  0.913540  0.999311  0.677337
    C   C176  0.913568  0.000249  0.000785  0.678374
    Zn  Zn9   0.500059  0.499949  0.460745  1.286991
    Zn  Zn10  0.500005  0.500062  0.539202  1.289161
    Zn  Zn11  0.999943  0.999999  0.960798  1.289248
    Zn  Zn12  0.000055  0.999945  0.039255  1.286562
    N   N17   0.273965  0.519432  0.438744  -0.772754
    C   C177  0.260853  0.483699  0.420600  0.821012
    O   O49   0.259783  0.447548  0.434387  -0.600137
    C   C178  0.247974  0.488010  0.383461  -0.516533
    H   H81   0.287288  0.544102  0.423743  0.353380
    H   H82   0.249614  0.522926  0.375056  0.107678
    H   H83   0.213760  0.475856  0.380099  0.154166
    H   H84   0.270567  0.467944  0.367287  0.149665
    N   N18   0.515306  0.726035  0.437861  -0.771439
    C   C179  0.478355  0.739089  0.421264  0.823807
    O   O50   0.443214  0.740149  0.436581  -0.600504
    C   C180  0.480070  0.751916  0.383984  -0.520561
    H   H85   0.538910  0.712714  0.421835  0.352755
    H   H86   0.514352  0.750295  0.374097  0.108090
    H   H87   0.467668  0.786114  0.381118  0.155422
    H   H88   0.458933  0.729281  0.368716  0.150252
    N   N19   0.725560  0.484875  0.438623  -0.768126
    C   C181  0.738468  0.521827  0.421955  0.820512
    O   O51   0.739647  0.556970  0.437261  -0.598527
    C   C182  0.750984  0.520107  0.384610  -0.519795
    H   H89   0.712113  0.461265  0.422668  0.350865
    H   H90   0.749288  0.485823  0.374735  0.108422
    H   H91   0.785154  0.532517  0.381566  0.155135
    H   H92   0.728217  0.541236  0.369456  0.150161
    N   N20   0.480424  0.274452  0.439509  -0.770875
    C   C183  0.516155  0.261521  0.421283  0.819712
    O   O52   0.552313  0.260347  0.435053  -0.598757
    C   C184  0.511833  0.248970  0.384075  -0.515241
    H   H93   0.455740  0.287892  0.424588  0.352054
    H   H94   0.476913  0.250665  0.375690  0.107710
    H   H95   0.524005  0.214793  0.380522  0.153781
    H   H96   0.531879  0.271717  0.368020  0.149089
    N   N21   0.274627  0.478999  0.560540  -0.771310
    C   C185  0.261559  0.514675  0.578774  0.821235
    O   O53   0.260212  0.550826  0.565003  -0.598885
    C   C186  0.249066  0.510299  0.615990  -0.518405
    H   H97   0.288193  0.454377  0.575453  0.352198
    H   H98   0.250923  0.475386  0.624374  0.108744
    H   H99   0.214840  0.522321  0.619565  0.154199
    H   H100  0.271742  0.530444  0.632029  0.149890
    N   N22   0.520897  0.274087  0.561297  -0.771079
    C   C187  0.485232  0.260835  0.579462  0.820190
    O   O54   0.449080  0.259588  0.565687  -0.599490
    C   C188  0.489621  0.248013  0.616608  -0.517172
    H   H101  0.545513  0.287536  0.576282  0.353211
    H   H102  0.524533  0.249817  0.624999  0.108047
    H   H103  0.477620  0.213749  0.619995  0.154126
    H   H104  0.469463  0.270533  0.632774  0.149874
    N   N23   0.726016  0.516807  0.561968  -0.773845
    C   C189  0.739264  0.479930  0.578573  0.825540
    O   O55   0.740495  0.444788  0.563267  -0.601206
    C   C190  0.752101  0.481730  0.615848  -0.519302
    H   H105  0.712580  0.540349  0.577991  0.353306
    H   H106  0.750311  0.516008  0.625725  0.107711
    H   H107  0.786363  0.469502  0.618707  0.154994
    H   H108  0.729581  0.460487  0.631131  0.149787
    N   N24   0.483415  0.725487  0.561212  -0.770327
    C   C191  0.520302  0.738586  0.577876  0.824578
    O   O56   0.555438  0.739934  0.562568  -0.599569
    C   C192  0.518521  0.751112  0.615217  -0.521810
    H   H109  0.459874  0.711927  0.577172  0.351477
    H   H110  0.484246  0.749250  0.625093  0.108926
    H   H111  0.530760  0.785345  0.618250  0.155580
    H   H112  0.539763  0.728458  0.630378  0.150093
    N   N25   0.774519  0.016589  0.938786  -0.770340
    C   C193  0.761419  0.979702  0.922123  0.824538
    O   O57   0.760071  0.944565  0.937431  -0.599566
    C   C194  0.748894  0.981482  0.884781  -0.521874
    H   H113  0.788079  0.040130  0.922826  0.351500
    H   H114  0.750757  0.015757  0.874905  0.108955
    H   H115  0.714660  0.969243  0.881748  0.155585
    H   H116  0.771548  0.960239  0.869621  0.150127
    N   N26   0.021016  0.225377  0.939461  -0.770853
    C   C195  0.985344  0.238445  0.921224  0.821246
    O   O58   0.949190  0.239793  0.934991  -0.598952
    C   C196  0.989725  0.250938  0.884008  -0.518613
    H   H117  0.045640  0.211810  0.924550  0.352046
    H   H118  0.024639  0.249081  0.875627  0.108807
    H   H119  0.977704  0.285164  0.880431  0.154245
    H   H120  0.969582  0.228261  0.867966  0.149931
    N   N27   0.225919  0.979108  0.938704  -0.771146
    C   C197  0.239170  0.014774  0.920540  0.820177
    O   O59   0.240417  0.050926  0.934315  -0.599421
    C   C198  0.251993  0.010386  0.883394  -0.517445
    H   H121  0.212470  0.954492  0.923719  0.353225
    H   H122  0.250189  0.975473  0.875002  0.108126
    H   H123  0.286257  0.022386  0.880007  0.154208
    H   H124  0.229472  0.030543  0.867228  0.149943
    N   N28   0.983210  0.773988  0.938031  -0.773542
    C   C199  0.020090  0.760741  0.921431  0.825327
    O   O60   0.055230  0.759511  0.936741  -0.601156
    C   C200  0.018298  0.747903  0.884155  -0.518841
    H   H125  0.959671  0.787423  0.922005  0.353345
    H   H126  0.984022  0.749692  0.874274  0.107614
    H   H127  0.030527  0.713641  0.881298  0.154862
    H   H128  0.039544  0.770423  0.868875  0.149670
    N   N29   0.773969  0.984700  0.062138  -0.771434
    C   C201  0.760915  0.021652  0.078734  0.823782
    O   O61   0.759856  0.056792  0.063417  -0.600448
    C   C202  0.748087  0.019937  0.116013  -0.520440
    H   H129  0.787290  0.961096  0.078164  0.352731
    H   H130  0.749709  0.985656  0.125902  0.108083
    H   H131  0.713889  0.032339  0.118879  0.155375
    H   H132  0.770723  0.041074  0.131282  0.150191
    N   N30   0.015117  0.774445  0.061381  -0.768450
    C   C203  0.978162  0.761538  0.078043  0.820628
    O   O62   0.943021  0.760358  0.062733  -0.598580
    C   C204  0.979874  0.749021  0.115389  -0.519489
    H   H133  0.038724  0.787892  0.077338  0.351001
    H   H134  0.014156  0.750717  0.125268  0.108368
    H   H135  0.967463  0.714851  0.118431  0.155052
    H   H136  0.958742  0.771789  0.130541  0.150021
    N   N31   0.225552  0.019580  0.060493  -0.771147
    C   C205  0.238483  0.983848  0.078719  0.819692
    O   O63   0.239657  0.947690  0.064948  -0.598784
    C   C206  0.251034  0.988169  0.115927  -0.515133
    H   H137  0.212112  0.044263  0.075415  0.352055
    H   H138  0.249339  0.023090  0.124312  0.107697
    H   H139  0.285211  0.975997  0.119480  0.153755
    H   H140  0.228286  0.968124  0.131981  0.149068
    N   N32   0.980564  0.226040  0.061253  -0.772712
    C   C207  0.016294  0.239152  0.079401  0.821417
    O   O64   0.052447  0.240223  0.065617  -0.600182
    C   C208  0.011977  0.252032  0.116539  -0.517442
    H   H141  0.955892  0.212718  0.076252  0.353351
    H   H142  0.977060  0.250392  0.124940  0.107897
    H   H143  0.024131  0.286246  0.119902  0.154379
    H   H144  0.032040  0.229439  0.132715  0.149886
