# Generated by REPEAT Assigner based on pymatgen
data_DB0-m3_o24_o1480_f0_fsc.sym.29
_audit_creation_date              2022-05-24
_audit_creation_method            REPEAT_Assigner
_cell_length_a                    8.542069
_cell_length_b                    9.155211
_cell_length_c                    10.645471
_cell_angle_alpha                 97.993477
_cell_angle_beta                  90.008460
_cell_angle_gamma                 90.112633
_cell_volume                      824.432580
_symmetry_space_group_name_H-M    P1
_symmetry_Int_Tables_number       1
loop_
    _symmetry_equiv_pos_site_id
    _symmetry_equiv_pos_as_xyz
    1  x,y,z
loop_
    _atom_site_type_symbol
    _atom_site_label
    _atom_site_fract_x
    _atom_site_fract_y
    _atom_site_fract_z
    _atom_type_partial_charge
    C   C1   0.007744  0.909434  0.304893  0.517111
    C   C2   0.865230  0.944047  0.253874  -0.307688
    C   C3   0.861724  0.987455  0.135276  -0.134299
    C   C4   0.144144  0.941689  0.244965  -0.355319
    C   C5   0.140237  0.974981  0.122061  0.006667
    C   C6   0.997757  0.989777  0.063818  0.139114
    C   C7   0.995668  0.015494  0.937973  -0.199327
    C   C8   0.856684  0.017853  0.870720  -0.118719
    C   C9   0.857284  0.056801  0.750984  -0.134333
    C   C10  0.277564  0.989012  0.055870  0.216664
    N   N1   0.273188  0.013978  0.934298  -0.622358
    C   C11  0.136274  0.028302  0.874836  0.650403
    C   C12  0.136310  0.058076  0.750726  -0.375711
    C   C13  0.996287  0.087429  0.694925  0.012429
    H   H1   0.389913  0.976477  0.099701  0.065028
    H   H2   0.994405  0.116763  0.600211  0.049856
    H   H3   0.749811  0.021031  0.102983  0.150815
    H   H4   0.745623  0.986512  0.906489  0.102272
    O   O1   0.671859  0.096504  0.366207  -0.617414
    O   O2   0.664414  0.845604  0.374185  -0.682901
    C   C14  0.723083  0.961676  0.331360  0.783444
    O   O3   0.665707  0.904402  0.637037  -0.673714
    O   O4   0.661588  0.155241  0.628410  -0.650442
    C   C15  0.716113  0.039306  0.673497  0.757662
    O   O5   0.327844  0.904218  0.633853  -0.661297
    O   O6   0.333472  0.154098  0.624359  -0.617537
    C   C16  0.277611  0.039216  0.670833  0.777563
    O   O7   0.334733  0.094879  0.360625  -0.705444
    O   O8   0.337578  0.844979  0.370387  -0.600521
    C   C17  0.285969  0.959785  0.322277  0.781297
    Zn  Zn1  0.498577  0.838615  0.507768  0.954549
    Zn  Zn2  0.500177  0.161503  0.491277  0.946172
    C   C18  0.497361  0.549575  0.394273  -0.070656
    C   C19  0.379303  0.445731  0.439214  -0.136047
    H   H5   0.275441  0.397459  0.386202  0.114741
    H   H6   0.499612  0.593127  0.302159  0.065938
    N   N2   0.500180  0.351933  0.483629  0.225601
    C   C20  0.614836  0.450486  0.440506  0.316223
    C   C21  0.619198  0.555046  0.560117  -0.055068
    C   C22  0.500649  0.451169  0.604435  -0.078503
    C   C23  0.379768  0.552020  0.560421  0.011250
    N   N3   0.497929  0.648200  0.515350  0.154639
    H   H7   0.724279  0.603040  0.611541  0.087502
    H   H8   0.500675  0.407258  0.696405  0.085451
    H   H9   0.276489  0.598481  0.615011  0.075631
    N   N4   0.019538  0.850254  0.422227  -0.829819
    H   H10  0.085085  0.921526  0.486043  0.385056
    H   H11  0.911399  0.837088  0.463560  0.347830
    N   N5   0.751084  0.392742  0.368936  -0.733837
    H   H12  0.824122  0.481970  0.358959  0.297013
    H   H13  0.712662  0.348516  0.278469  0.283035
