data_DB0-m3_o96_o25_f0_fsc.sym.1_repeat
_audit_creation_date              2024-02-23
_audit_creation_method            'Materials Studio'
_symmetry_space_group_name_H-M    'P1'
_symmetry_Int_Tables_number       1
_symmetry_cell_setting            triclinic
loop_
_symmetry_equiv_pos_as_xyz
  x,y,z
_cell_length_a                    13.1052
_cell_length_b                    13.6367
_cell_length_c                    15.9472
_cell_angle_alpha                 94.5473
_cell_angle_beta                  90.0463
_cell_angle_gamma                 90.6232
loop_
_atom_site_label
_atom_site_type_symbol
_atom_site_fract_x
_atom_site_fract_y
_atom_site_fract_z
_atom_site_U_iso_or_equiv
_atom_site_adp_type
_atom_site_occupancy
C1     C     0.82762   0.06439   0.22179   0.00000  Uiso   1.00
C2     C     0.17238   0.93561   0.77821   0.00000  Uiso   1.00
C3     C     0.77339   0.11593   0.16793   0.00000  Uiso   1.00
C4     C     0.22661   0.88407   0.83207   0.00000  Uiso   1.00
C5     C     0.82435   0.10942   0.09224   0.00000  Uiso   1.00
C6     C     0.17565   0.89058   0.90776   0.00000  Uiso   1.00
N1     N     0.91147   0.05842   0.09951   0.00000  Uiso   1.00
N2     N     0.08853   0.94157   0.90049   0.00000  Uiso   1.00
C7     C     0.91429   0.03246   0.17976   0.00000  Uiso   1.00
C8     C     0.08571   0.96754   0.82024   0.00000  Uiso   1.00
C9     C     0.78630   0.13967   0.02083   0.00000  Uiso   1.00
C10    C     0.21370   0.86033   0.97917   0.00000  Uiso   1.00
C11    C     0.82329   0.10745   0.93610   0.00000  Uiso   1.00
C12    C     0.17671   0.89255   0.06390   0.00000  Uiso   1.00
C13    C     0.76288   0.09820   0.86481   0.00000  Uiso   1.00
C14    C     0.23712   0.90180   0.13520   0.00000  Uiso   1.00
C15    C     0.82104   0.05862   0.80040   0.00000  Uiso   1.00
C16    C     0.17896   0.94138   0.19960   0.00000  Uiso   1.00
C17    C     0.91758   0.04614   0.83348   0.00000  Uiso   1.00
C18    C     0.08243   0.95386   0.16652   0.00000  Uiso   1.00
N3     N     0.91827   0.07687   0.91623   0.00000  Uiso   1.00
N4     N     0.08173   0.92313   0.08377   0.00000  Uiso   1.00
C19    C     0.00826   0.01321   0.78580   0.00000  Uiso   1.00
C20    C     0.99174   0.98679   0.21420   0.00000  Uiso   1.00
H1     H     0.71438   0.17757   0.02379   0.00000  Uiso   1.00
H2     H     0.28562   0.82243   0.97621   0.00000  Uiso   1.00
H3     H     0.00953   0.02291   0.71909   0.00000  Uiso   1.00
H4     H     0.99047   0.97709   0.28091   0.00000  Uiso   1.00
H5     H     0.98148   0.08220   0.95595   0.00000  Uiso   1.00
H6     H     0.01853   0.91780   0.04405   0.00000  Uiso   1.00
C21    C     0.33764   0.87892   0.14651   0.00000  Uiso   1.00
C22    C     0.66236   0.12108   0.85349   0.00000  Uiso   1.00
C23    C     0.37889   0.89717   0.22601   0.00000  Uiso   1.00
C24    C     0.62112   0.10283   0.77399   0.00000  Uiso   1.00
C25    C     0.32190   0.94109   0.29210   0.00000  Uiso   1.00
C26    C     0.67810   0.05891   0.70790   0.00000  Uiso   1.00
C27    C     0.21985   0.96411   0.27919   0.00000  Uiso   1.00
C28    C     0.78015   0.03588   0.72081   0.00000  Uiso   1.00
C29    C     0.78847   0.04212   0.29820   0.00000  Uiso   1.00
C30    C     0.21153   0.95788   0.70180   0.00000  Uiso   1.00
C31    C     0.69306   0.07839   0.31969   0.00000  Uiso   1.00
C32    C     0.30694   0.92161   0.68031   0.00000  Uiso   1.00
C33    C     0.64215   0.13881   0.26746   0.00000  Uiso   1.00
C34    C     0.35785   0.86119   0.73254   0.00000  Uiso   1.00
C35    C     0.68103   0.15653   0.18994   0.00000  Uiso   1.00
C36    C     0.31897   0.84346   0.81006   0.00000  Uiso   1.00
H7     H     0.38406   0.84722   0.09563   0.00000  Uiso   1.00
H8     H     0.61594   0.15278   0.90437   0.00000  Uiso   1.00
H9     H     0.17428   0.99792   0.32980   0.00000  Uiso   1.00
H10    H     0.82572   0.00208   0.67020   0.00000  Uiso   1.00
H11    H     0.82748   0.99421   0.33816   0.00000  Uiso   1.00
H12    H     0.17252   0.00579   0.66184   0.00000  Uiso   1.00
H13    H     0.56717   0.16635   0.28386   0.00000  Uiso   1.00
H14    H     0.43283   0.83365   0.71614   0.00000  Uiso   1.00
H15    H     0.63727   0.19832   0.14812   0.00000  Uiso   1.00
H16    H     0.36274   0.80168   0.85188   0.00000  Uiso   1.00
H17    H     0.45815   0.88008   0.23578   0.00000  Uiso   1.00
H18    H     0.54185   0.11992   0.76422   0.00000  Uiso   1.00
O1     O     0.37265   0.05174   0.41083   0.00000  Uiso   1.00
O2     O     0.62735   0.94826   0.58918   0.00000  Uiso   1.00
O3     O     0.43517   0.89406   0.39769   0.00000  Uiso   1.00
O4     O     0.56484   0.10594   0.60231   0.00000  Uiso   1.00
C37    C     0.37467   0.96234   0.37320   0.00000  Uiso   1.00
C38    C     0.62533   0.03766   0.62680   0.00000  Uiso   1.00
O5     O     0.63755   0.95504   0.40896   0.00000  Uiso   1.00
O6     O     0.36245   0.04495   0.59104   0.00000  Uiso   1.00
O7     O     0.57527   0.11272   0.42767   0.00000  Uiso   1.00
O8     O     0.42473   0.88728   0.57233   0.00000  Uiso   1.00
C39    C     0.63779   0.04805   0.39246   0.00000  Uiso   1.00
C40    C     0.36221   0.95195   0.60754   0.00000  Uiso   1.00
Zn1    Zn    0.54010   0.89780   0.49034   0.00000  Uiso   1.00
Zn2    Zn    0.45991   0.10220   0.50966   0.00000  Uiso   1.00
C41    C     0.44812   0.49822   0.57119   0.00000  Uiso   1.00
C42    C     0.55188   0.50178   0.42881   0.00000  Uiso   1.00
C43    C     0.55970   0.52874   0.56442   0.00000  Uiso   1.00
C44    C     0.44030   0.47126   0.43558   0.00000  Uiso   1.00
H19    H     0.61090   0.55429   0.61728   0.00000  Uiso   1.00
H20    H     0.38910   0.44570   0.38272   0.00000  Uiso   1.00
H21    H     0.40369   0.49501   0.63008   0.00000  Uiso   1.00
H22    H     0.59631   0.50499   0.36992   0.00000  Uiso   1.00
H23    H     0.64278   0.38908   0.50339   0.00000  Uiso   1.00
H24    H     0.35723   0.61092   0.49661   0.00000  Uiso   1.00
N5     N     0.57734   0.77408   0.48045   0.00000  Uiso   1.00
N6     N     0.42266   0.22592   0.51955   0.00000  Uiso   1.00
C45    C     0.42164   0.55905   0.49839   0.00000  Uiso   1.00
C46    C     0.57836   0.44095   0.50161   0.00000  Uiso   1.00
C47    C     0.53282   0.58782   0.49173   0.00000  Uiso   1.00
C48    C     0.46718   0.41218   0.50827   0.00000  Uiso   1.00
C49    C     0.56283   0.69062   0.48409   0.00000  Uiso   1.00
C50    C     0.43718   0.30938   0.51591   0.00000  Uiso   1.00
