# Generated by REPEAT Assigner based on pymatgen
data_DB0-m29_o90_o51_f0_pts.sym.3
_audit_creation_date              2022-05-24
_audit_creation_method            REPEAT_Assigner
_cell_length_a                    9.405735
_cell_length_b                    17.228163
_cell_length_c                    17.366505
_cell_angle_alpha                 106.030238
_cell_angle_beta                  89.052527
_cell_angle_gamma                 76.279430
_cell_volume                      2617.362946
_symmetry_space_group_name_H-M    P1
_symmetry_Int_Tables_number       1
loop_
    _symmetry_equiv_pos_site_id
    _symmetry_equiv_pos_as_xyz
    1  x,y,z
loop_
    _atom_site_type_symbol
    _atom_site_label
    _atom_site_fract_x
    _atom_site_fract_y
    _atom_site_fract_z
    _atom_type_partial_charge
    C   C1   0.112758  0.013418  0.762933  0.112001
    C   C2   0.134327  0.005366  0.839280  -0.253659
    H   H1   0.240595  0.004064  0.862358  0.170386
    C   C3   0.020098  0.999530  0.887008  0.244380
    C   C4   0.886053  0.997201  0.856029  -0.247835
    H   H2   0.798060  0.987011  0.889486  0.154814
    C   C5   0.863514  0.006697  0.780627  0.125237
    C   C6   0.975518  0.016570  0.734902  -0.214248
    C   C7   0.047348  0.991869  0.968239  -0.174565
    C   C8   0.939569  0.012490  0.027482  -0.187407
    C   C9   0.854021  0.999665  0.157281  -0.258209
    H   H3   0.747394  0.000822  0.134699  0.177845
    C   C10  0.876732  0.992275  0.233821  0.104290
    C   C11  0.014403  0.989185  0.261032  -0.229189
    C   C12  0.126092  0.997971  0.214297  0.153143
    C   C13  0.102274  0.007571  0.139108  -0.284967
    H   H4   0.190234  0.017115  0.105107  0.155872
    C   C14  0.967547  0.005387  0.108869  0.268144
    H   H5   0.957326  0.021867  0.675113  0.192298
    H   H6   0.033814  0.983441  0.320567  0.215449
    H   H7   0.160520  0.969177  0.978780  0.137403
    H   H8   0.826350  0.035015  0.016855  0.134157
    O   O1   0.625316  0.989283  0.262462  -0.544066
    C   C15  0.756485  0.989252  0.287223  0.569539
    O   O2   0.682894  0.831576  0.293327  -0.526274
    O   O3   0.779377  0.987381  0.361108  -0.472057
    O   O4   0.540052  0.901886  0.408977  -0.540658
    C   C16  0.633446  0.833897  0.365211  0.640410
    Fe  Fe1  0.490939  0.986838  0.350196  1.463650
    O   O5   0.308875  0.962320  0.301303  -0.609989
    O   O6   0.348714  0.044117  0.224341  -0.488920
    C   C17  0.268022  0.000089  0.246287  0.586605
    O   O7   0.480233  0.097723  0.430113  -0.570685
    O   O8   0.235551  0.112340  0.417513  -0.472522
    C   C18  0.343122  0.140002  0.452992  0.569260
    O   O9   0.523945  0.890284  0.568383  -0.549885
    O   O10  0.759042  0.900700  0.554144  -0.477204
    C   C19  0.660053  0.857852  0.535763  0.623641
    O   O11  0.680106  0.037799  0.691572  -0.492417
    O   O12  0.648318  0.953844  0.767665  -0.498700
    C   C20  0.723949  0.000893  0.746889  0.549115
    O   O13  0.210454  0.024492  0.638513  -0.492069
    O   O14  0.447852  0.084353  0.578104  -0.491595
    C   C21  0.428903  0.162250  0.621790  0.549680
    O   O15  0.369313  0.004859  0.731944  -0.517380
    C   C22  0.234593  0.015687  0.710199  0.517245
    O   O16  0.451704  0.177661  0.698251  -0.535024
    Fe  Fe2  0.502991  0.005336  0.642895  1.400661
    C   C23  0.310138  0.221051  0.513913  0.066461
    C   C24  0.220769  0.287653  0.494456  -0.087496
    H   H9   0.177817  0.277230  0.436163  0.101173
    C   C25  0.191670  0.367121  0.546693  -0.280361
    C   C26  0.253775  0.380000  0.619002  -0.008585
    H   H10  0.232604  0.441831  0.660753  0.080843
    C   C27  0.335755  0.313050  0.641074  -0.125332
    H   H11  0.375782  0.324698  0.700082  0.146517
    C   C28  0.362262  0.232562  0.589896  0.040208
    N   N1   0.108740  0.515032  0.555256  -0.301644
    N   N2   0.024159  0.576855  0.533050  -0.257076
    C   C29  0.922651  0.561880  0.480852  0.963667
    N   N3   0.907710  0.483575  0.451772  -0.288743
    N   N4   0.993517  0.421666  0.473060  -0.269847
    C   C30  0.095358  0.436570  0.524766  0.782098
    C   C31  0.818941  0.617829  0.370868  0.277264
    C   C32  0.735273  0.681952  0.344237  0.115722
    C   C33  0.688215  0.762035  0.396951  -0.111210
    C   C34  0.702606  0.773995  0.478725  -0.064621
    C   C35  0.768097  0.707379  0.506971  0.300803
    C   C36  0.833433  0.629915  0.452805  -0.704582
    C   C37  0.902567  0.538032  0.310790  -0.311660
    H   H12  0.918556  0.545811  0.250352  0.086808
    H   H13  0.015480  0.518163  0.328030  0.111781
    H   H14  0.843779  0.488447  0.306275  0.100324
    C   C38  0.688944  0.663350  0.260090  -0.343733
    H   H15  0.671727  0.599569  0.240465  0.093467
    H   H16  0.580958  0.705274  0.257303  0.109130
    H   H17  0.773275  0.669227  0.218101  0.133177
    C   C39  0.768082  0.721703  0.596262  -0.402471
    H   H18  0.784713  0.663070  0.613287  0.125053
    H   H19  0.854031  0.754167  0.619577  0.115361
    H   H20  0.659221  0.759969  0.626462  0.121802
