# Generated by REPEAT Assigner based on pymatgen
data_DB0-m9_o23_o23_f0_sra.sym.100
_audit_creation_date              2022-05-24
_audit_creation_method            REPEAT_Assigner
_cell_length_a                    6.818000
_cell_length_b                    20.644700
_cell_length_c                    24.511200
_cell_angle_alpha                 90.000000
_cell_angle_beta                  90.000000
_cell_angle_gamma                 90.000000
_cell_volume                      3450.087795
_symmetry_space_group_name_H-M    P1
_symmetry_Int_Tables_number       1
loop_
    _symmetry_equiv_pos_site_id
    _symmetry_equiv_pos_as_xyz
    1  x,y,z
loop_
    _atom_site_type_symbol
    _atom_site_label
    _atom_site_fract_x
    _atom_site_fract_y
    _atom_site_fract_z
    _atom_type_partial_charge
    O   O1   0.389578  0.802185  0.440618  -0.546029
    O   O2   0.110423  0.197816  0.940618  -0.546014
    O   O3   0.889577  0.697816  0.559382  -0.546038
    O   O4   0.610423  0.302184  0.059382  -0.546015
    O   O5   0.042249  0.820993  0.555553  -0.514166
    O   O6   0.457750  0.179008  0.055554  -0.514173
    O   O7   0.542251  0.679007  0.444446  -0.514190
    O   O8   0.957750  0.320993  0.944446  -0.514210
    C   C1   0.221032  0.828559  0.577379  0.622398
    C   C2   0.278969  0.171442  0.077379  0.622422
    C   C3   0.721033  0.671442  0.422622  0.622433
    C   C4   0.778966  0.328558  0.922621  0.622445
    O   O9   0.042266  0.820928  0.444327  -0.535851
    O   O10  0.457736  0.179072  0.944327  -0.535892
    O   O11  0.542263  0.679072  0.555674  -0.535895
    O   O12  0.957735  0.320928  0.055673  -0.535849
    O   O13  0.889542  0.697745  0.440597  -0.531060
    O   O14  0.610458  0.302255  0.940597  -0.531050
    O   O15  0.389543  0.802254  0.559402  -0.531048
    O   O16  0.110457  0.197745  0.059403  -0.531072
    C   C5   0.221149  0.828453  0.422560  0.689032
    C   C6   0.278851  0.171547  0.922560  0.689052
    C   C7   0.721149  0.671547  0.577440  0.689082
    C   C8   0.778851  0.328453  0.077440  0.689018
    O   O17  0.209379  0.711162  0.500046  -0.477127
    O   O18  0.290621  0.288838  0.000046  -0.477156
    O   O19  0.709379  0.788838  0.499955  -0.477143
    O   O20  0.790621  0.211162  0.999954  -0.477145
    V   V1   0.938970  0.760377  0.499964  1.412659
    V   V2   0.561030  0.239623  0.999964  1.412710
    V   V3   0.438970  0.739623  0.500036  1.412735
    V   V4   0.061030  0.260377  0.000036  1.412709
    C   C9   0.885744  0.563999  0.753486  -0.082650
    C   C10  0.614256  0.436001  0.253486  -0.082693
    C   C11  0.385744  0.936001  0.246514  -0.082694
    C   C12  0.114256  0.063999  0.746514  -0.082705
    C   C13  0.546182  0.532589  0.734588  -0.085216
    C   C14  0.953819  0.467411  0.234588  -0.085248
    C   C15  0.046181  0.967411  0.265412  -0.085244
    C   C16  0.453818  0.032589  0.765412  -0.085238
    C   C17  0.562861  0.494940  0.788178  -0.118620
    C   C18  0.937139  0.505060  0.288178  -0.118624
    C   C19  0.062861  0.005060  0.211822  -0.118624
    C   C20  0.437139  0.994940  0.711822  -0.118632
    H   H1   0.917560  0.531485  0.837051  0.046690
    H   H2   0.582440  0.468515  0.337051  0.046688
    H   H3   0.417560  0.968515  0.162949  0.046687
    H   H4   0.082440  0.031485  0.662949  0.046689
    H   H5   0.820075  0.606775  0.773870  0.002761
    H   H6   0.679925  0.393225  0.273870  0.002767
    H   H7   0.320075  0.893225  0.226130  0.002765
    H   H8   0.179925  0.106775  0.726130  0.002766
    H   H9   0.450494  0.505617  0.705909  0.000387
    H   H10  0.049506  0.494383  0.205909  0.000387
    H   H11  0.950494  0.994383  0.294091  0.000386
    H   H12  0.549506  0.005617  0.794091  0.000386
    H   H13  0.481155  0.580858  0.742789  0.040207
    H   H14  0.018846  0.419143  0.242789  0.040216
    H   H15  0.981155  0.919143  0.257211  0.040214
    H   H16  0.518845  0.080858  0.757211  0.040213
    H   H17  0.553693  0.529149  0.822971  0.009472
    H   H18  0.946306  0.470851  0.322971  0.009476
    H   H19  0.053693  0.970851  0.177029  0.009477
    H   H20  0.446307  0.029149  0.677029  0.009484
    H   H21  0.440628  0.459648  0.790914  0.009226
    H   H22  0.059372  0.540352  0.290914  0.009241
    H   H23  0.940628  0.040352  0.209086  0.009245
    H   H24  0.559372  0.959649  0.709086  0.009252
    C   C21  0.765597  0.374594  0.876666  -0.045618
    C   C22  0.734404  0.625406  0.376666  -0.045600
    C   C23  0.265595  0.125406  0.123334  -0.045605
    C   C24  0.234404  0.874594  0.623334  -0.045617
    C   C25  0.747641  0.540625  0.709037  0.583301
    C   C26  0.752359  0.459375  0.209037  0.583368
    C   C27  0.247641  0.959375  0.290963  0.583382
    C   C28  0.252359  0.040625  0.790963  0.583387
    C   C29  0.918521  0.510251  0.795493  -0.171740
    C   C30  0.581478  0.489749  0.295493  -0.171689
    C   C31  0.418521  0.989749  0.204507  -0.171676
    C   C32  0.081479  0.010251  0.704507  -0.171658
    C   C33  0.757797  0.459302  0.790784  0.662979
    C   C34  0.742203  0.540699  0.290784  0.662918
    C   C35  0.257797  0.040698  0.209216  0.662860
    C   C36  0.242204  0.959302  0.709217  0.662808
    C   C37  0.784283  0.424502  0.736504  0.049632
    C   C38  0.715718  0.575498  0.236504  0.049727
    C   C39  0.284283  0.075498  0.263496  0.049717
    C   C40  0.215718  0.924502  0.763496  0.049720
    C   C41  0.816551  0.474030  0.690890  -0.156948
    C   C42  0.683449  0.525970  0.190890  -0.157009
    C   C43  0.316551  0.025970  0.309110  -0.157000
    C   C44  0.183449  0.974031  0.809110  -0.157020
    C   C45  0.760095  0.412737  0.838163  -0.437636
    C   C46  0.739906  0.587263  0.338162  -0.437635
    C   C47  0.260095  0.087263  0.161837  -0.437593
    C   C48  0.239905  0.912737  0.661837  -0.437553
    C   C49  0.741903  0.587359  0.661839  -0.373802
    C   C50  0.758097  0.412641  0.161839  -0.373831
    C   C51  0.241903  0.912641  0.338161  -0.373840
    C   C52  0.258097  0.087359  0.838161  -0.373817
    C   C53  0.734993  0.625537  0.623388  -0.104919
    C   C54  0.765008  0.374463  0.123387  -0.104892
    C   C55  0.234992  0.874463  0.376613  -0.104892
    C   C56  0.265007  0.125537  0.876613  -0.104911
    H   H25  0.974991  0.476469  0.680869  0.026004
    H   H26  0.525009  0.523531  0.180869  0.026019
    H   H27  0.474991  0.023531  0.319131  0.026017
    H   H28  0.025009  0.976469  0.819131  0.026023
    H   H29  0.733595  0.458770  0.654155  0.052893
    H   H30  0.766405  0.541230  0.154155  0.052903
    H   H31  0.233596  0.041230  0.345845  0.052902
    H   H32  0.266405  0.958770  0.845845  0.052906
    H   H33  0.028558  0.577866  0.735250  0.021207
    H   H34  0.471442  0.422134  0.235250  0.021215
    H   H35  0.528558  0.922134  0.264750  0.021214
    H   H36  0.971442  0.077866  0.764750  0.021215
    H   H37  0.063298  0.487766  0.787594  0.012712
    H   H38  0.436702  0.512234  0.287594  0.012708
    H   H39  0.563298  0.012234  0.212406  0.012707
    H   H40  0.936702  0.987766  0.712406  0.012706
    H   H41  0.648319  0.396903  0.727768  -0.010823
    H   H42  0.851681  0.603097  0.227768  -0.010829
    H   H43  0.148319  0.103097  0.272232  -0.010826
    H   H44  0.351681  0.896903  0.772232  -0.010823
    C   C57  0.953173  0.378454  0.737286  -0.052296
    C   C58  0.990519  0.342186  0.691147  -0.103220
    C   C59  0.145187  0.299197  0.690091  0.004180
    Cl  Cl1  0.191248  0.253429  0.631325  -0.094548
    C   C60  0.263543  0.292277  0.735263  0.001474
    C   C61  0.227185  0.328434  0.781433  -0.214294
    C   C62  0.072493  0.371479  0.782570  0.006516
    H   H45  0.897953  0.347516  0.655625  0.093319
    H   H46  0.384830  0.258568  0.734482  0.073856
    H   H47  0.320237  0.323066  0.816854  0.131457
    H   H48  0.047706  0.399260  0.819155  0.104149
    C   C63  0.546827  0.621546  0.237286  -0.052414
    C   C64  0.509481  0.657814  0.191147  -0.103185
    C   C65  0.354813  0.700803  0.190091  0.004172
    Cl  Cl2  0.308752  0.746571  0.131325  -0.094549
    C   C66  0.236457  0.707723  0.235263  0.001480
    C   C67  0.272815  0.671566  0.281433  -0.214341
    C   C68  0.427507  0.628521  0.282570  0.006669
    H   H49  0.602047  0.652484  0.155625  0.093316
    H   H50  0.115170  0.741432  0.234482  0.073860
    H   H51  0.179763  0.676935  0.316855  0.131464
    H   H52  0.452295  0.600740  0.319155  0.104054
    C   C69  0.453173  0.121546  0.262714  -0.052410
    C   C70  0.490519  0.157815  0.308853  -0.103191
    C   C71  0.645187  0.200803  0.309909  0.004183
    Cl  Cl3  0.691248  0.246571  0.368675  -0.094552
    C   C72  0.763543  0.207723  0.264737  0.001474
    C   C73  0.727185  0.171566  0.218567  -0.214345
    C   C74  0.572493  0.128520  0.217430  0.006674
    H   H53  0.397953  0.152484  0.344375  0.093318
    H   H54  0.884830  0.241432  0.265518  0.073862
    H   H55  0.820237  0.176934  0.183145  0.131468
    H   H56  0.547705  0.100740  0.180845  0.104050
    C   C75  0.046827  0.878454  0.762714  -0.052397
    C   C76  0.009481  0.842185  0.808853  -0.103203
    C   C77  0.854813  0.799197  0.809908  0.004193
    Cl  Cl4  0.808751  0.753430  0.868675  -0.094560
    C   C78  0.736457  0.792277  0.764737  0.001471
    C   C79  0.772815  0.828434  0.718567  -0.214330
    C   C80  0.927507  0.871480  0.717430  0.006662
    H   H57  0.102047  0.847516  0.844375  0.093322
    H   H58  0.615169  0.758568  0.765518  0.073866
    H   H59  0.679763  0.823066  0.683145  0.131457
    H   H60  0.952295  0.899260  0.680845  0.104051
