# Generated by REPEAT Assigner based on pymatgen
data_DB0-m2_o22_o26_f0_pcu.sym.2
_audit_creation_date              2022-05-24
_audit_creation_method            REPEAT_Assigner
_cell_length_a                    9.257973
_cell_length_b                    10.672869
_cell_length_c                    17.418373
_cell_angle_alpha                 89.999996
_cell_angle_beta                  86.285582
_cell_angle_gamma                 89.935338
_cell_volume                      1717.477727
_symmetry_space_group_name_H-M    P1
_symmetry_Int_Tables_number       1
loop_
    _symmetry_equiv_pos_site_id
    _symmetry_equiv_pos_as_xyz
    1  x,y,z
loop_
    _atom_site_type_symbol
    _atom_site_label
    _atom_site_fract_x
    _atom_site_fract_y
    _atom_site_fract_z
    _atom_type_partial_charge
    O   O1   0.383366  0.680898  0.498634  -0.662717
    O   O2   0.630587  0.681871  0.500091  -0.584689
    C   C1   0.506513  0.740269  0.501381  0.545800
    O   O3   0.368689  0.492195  0.611532  -0.570323
    O   O4   0.615335  0.501012  0.612817  -0.554367
    C   C2   0.486869  0.495498  0.648421  0.591143
    Cu  Cu1  0.363357  0.498674  0.499711  0.909878
    Cu  Cu2  0.652577  0.499954  0.501144  0.832206
    O   O5   0.385407  0.316745  0.496325  -0.733673
    O   O6   0.633718  0.317837  0.497074  -0.685071
    O   O7   0.399465  0.496317  0.387995  -0.556893
    O   O8   0.647702  0.506616  0.389168  -0.525174
    C   C3   0.509555  0.258604  0.498935  0.722235
    C   C4   0.528347  0.502832  0.351922  0.640859
    C   C5   0.474788  0.490843  0.732785  0.033591
    C   C6   0.597794  0.488763  0.773575  -0.170237
    C   C7   0.586868  0.483013  0.852792  -0.172692
    C   C8   0.452278  0.480586  0.892532  0.253931
    C   C9   0.329595  0.479964  0.851558  -0.207512
    C   C10  0.340441  0.485740  0.772265  -0.129201
    C   C11  0.407171  0.480382  0.150942  -0.280192
    C   C12  0.409988  0.477532  0.230098  -0.038887
    C   C13  0.658836  0.537467  0.220669  0.367071
    C   C14  0.654348  0.540803  0.141604  -0.424224
    C   C15  0.530273  0.511946  0.105982  0.313853
    C   C16  0.435808  0.473900  0.977196  -0.253373
    C   C17  0.537223  0.518726  0.021216  -0.195590
    C   C18  0.535118  0.505297  0.266465  -0.246804
    H   H1   0.704167  0.490168  0.744204  0.141529
    H   H2   0.311407  0.452458  0.263048  0.111570
    H   H3   0.631992  0.563507  0.994127  0.125571
    H   H4   0.223816  0.476340  0.881637  0.120569
    H   H5   0.306292  0.459518  0.126112  0.138273
    H   H6   0.242359  0.486086  0.741866  0.123255
    H   H7   0.337189  0.433126  0.002591  0.143913
    H   H8   0.685678  0.476923  0.882211  0.118399
    H   H9   0.750387  0.565620  0.106364  0.158680
    C   C19  0.445583  0.928598  0.427636  -0.136044
    H   H10  0.335681  0.890002  0.421795  0.021462
    H   H11  0.516921  0.899493  0.377165  0.021450
    C   C20  0.436628  0.070422  0.430423  0.026180
    H   H12  0.491025  0.109961  0.377235  -0.002202
    H   H13  0.321162  0.098867  0.433655  -0.020592
    H   H14  0.301225  0.900460  0.565203  0.023796
    H   H15  0.311488  0.107608  0.572903  -0.061299
    C   C21  0.415558  0.928711  0.569861  -0.238899
    C   C22  0.661202  0.927956  0.504189  -0.179828
    C   C23  0.507005  0.880345  0.500728  0.344676
    H   H16  0.704403  0.901141  0.559794  0.050581
    H   H17  0.731537  0.888570  0.456136  0.058206
    C   C24  0.509254  0.118524  0.500410  0.058610
    C   C25  0.423506  0.070634  0.572536  0.431230
    C   C26  0.663529  0.069045  0.496601  -0.100493
    H   H18  0.718323  0.093845  0.440131  0.032034
    H   H19  0.726705  0.109276  0.542531  0.041553
    H   H20  0.454722  0.887724  0.623204  0.025141
    C   C27  0.925624  0.381131  0.473425  -0.060994
    H   H21  0.879124  0.356084  0.418381  0.078475
    H   H22  0.897256  0.307260  0.516505  0.036936
    C   C28  0.089768  0.384571  0.461070  -0.191950
    H   H23  0.130982  0.297621  0.486401  0.113456
    H   H24  0.121380  0.386083  0.398564  0.071010
    H   H25  0.920716  0.569417  0.389546  0.079463
    H   H26  0.152927  0.611214  0.399881  0.022315
    C   C29  0.935456  0.596350  0.449334  -0.040522
    C   C30  0.921516  0.519514  0.578260  0.527425
    N   N1   0.869477  0.501898  0.501039  -0.058394
    H   H27  0.871838  0.447930  0.617689  -0.080948
    N   N2   0.147097  0.494791  0.497976  0.191373
    C   C31  0.096999  0.604622  0.457932  -0.062681
    C   C32  0.083851  0.499213  0.576650  -0.131416
    H   H28  0.105492  0.409854  0.606371  0.024355
    H   H29  0.131189  0.577768  0.608046  0.021379
    H   H30  0.886491  0.689824  0.459437  0.020048
    H   H31  0.120537  0.690932  0.489868  0.077325
    C   C33  0.486828  0.112278  0.647055  -0.463696
    H   H32  0.499455  0.215430  0.648609  0.091001
    H   H33  0.411231  0.084879  0.696186  0.088399
    H   H34  0.592653  0.066934  0.654674  0.097340
    C   C34  0.887128  0.648907  0.613331  -0.401521
    H   H35  0.953019  0.724705  0.585623  0.073127
    H   H36  0.772678  0.675308  0.611381  0.093189
    H   H37  0.911228  0.646489  0.674885  0.066009
    C   C35  0.798381  0.570560  0.253192  -0.335594
    H   H38  0.781649  0.650278  0.293618  0.090483
    H   H39  0.841797  0.486553  0.281158  0.096260
    H   H40  0.879237  0.599987  0.207051  0.072077
