# Generated by REPEAT Assigner based on pymatgen
data_DB0-m2_o22_o25_f0_pcu.sym.117_sqe
_audit_creation_date              2022-05-24
_audit_creation_method            REPEAT_Assigner
_cell_length_a                    15.900509
_cell_length_b                    10.667798
_cell_length_c                    9.240640
_cell_angle_alpha                 89.933747
_cell_angle_beta                  90.032720
_cell_angle_gamma                 89.997235
_cell_volume                      1567.427647
_symmetry_space_group_name_H-M    P1
_symmetry_Int_Tables_number       1
loop_
    _symmetry_equiv_pos_site_id
    _symmetry_equiv_pos_as_xyz
    1  x,y,z
loop_
    _atom_site_type_symbol
    _atom_site_label
    _atom_site_fract_x
    _atom_site_fract_y
    _atom_site_fract_z
    _atom_type_partial_charge
    O   O1   0.493963  0.323248  0.614573  -0.650258
    O   O2   0.501200  0.324028  0.366010  -0.596433
    C   C1   0.497019  0.264900  0.490102  0.598227
    O   O3   0.375950  0.511426  0.616190  -0.507923
    O   O4   0.376380  0.502319  0.367819  -0.580143
    C   C2   0.336939  0.506861  0.491792  0.652320
    Cu  Cu1  0.498107  0.505177  0.637027  0.825938
    Cu  Cu2  0.498588  0.506337  0.347053  0.900596
    O   O5   0.496393  0.687604  0.618117  -0.652186
    O   O6   0.501747  0.688194  0.369648  -0.663800
    O   O7   0.620348  0.507904  0.616640  -0.617957
    O   O8   0.620800  0.501519  0.367460  -0.634770
    C   C3   0.499385  0.746716  0.493801  0.662423
    C   C4   0.659728  0.504204  0.492292  0.817973
    C   C5   0.971334  0.455136  0.614101  -0.159007
    C   C6   0.026120  0.389272  0.502725  -0.170532
    H   H1   0.051470  0.292713  0.511547  0.066324
    H   H2   0.946669  0.413255  0.715440  0.064301
    H   H3   0.945899  0.384001  0.288994  0.062077
    C   C7   0.246691  0.506907  0.491373  -0.071386
    C   C8   0.749979  0.504201  0.492727  -0.169588
    C   C9   0.025745  0.572049  0.603029  -0.167377
    C   C10  0.078899  0.506176  0.491659  0.728803
    C   C11  0.970553  0.621955  0.481391  -0.164319
    C   C12  0.917775  0.505047  0.492457  0.672768
    C   C13  0.025344  0.556093  0.370016  -0.186792
    C   C14  0.970932  0.439178  0.381085  -0.155372
    C   C15  0.170907  0.506685  0.491363  -0.426388
    C   C16  0.825764  0.504480  0.492747  -0.375928
    H   H4   0.050037  0.598012  0.268714  0.075668
    H   H5   0.945204  0.718514  0.472570  0.070060
    H   H6   0.050779  0.627226  0.695119  0.078667
    C   C17  0.567243  0.076863  0.588996  0.637048
    H   H7   0.547386  0.094445  0.702230  -0.037483
    C   C18  0.577352  0.936749  0.567313  -0.274424
    H   H8   0.633272  0.917337  0.499244  0.037600
    H   H9   0.585496  0.890815  0.674099  0.063405
    H   H10  0.399658  0.120408  0.654072  0.022134
    H   H11  0.425647  0.913619  0.686556  0.024117
    C   C19  0.414496  0.075962  0.548844  -0.069411
    C   C20  0.507008  0.075272  0.336721  -0.068655
    C   C21  0.497307  0.124868  0.490336  -0.001585
    H   H12  0.456493  0.113403  0.266467  0.041240
    H   H13  0.568470  0.101860  0.289650  0.016798
    C   C22  0.499305  0.886802  0.492494  0.202588
    C   C23  0.421292  0.935165  0.569341  -0.127353
    C   C24  0.499155  0.934039  0.337407  -0.097692
    H   H14  0.553094  0.894721  0.276349  0.038703
    H   H15  0.439457  0.907155  0.283537  0.038319
    H   H16  0.363239  0.097270  0.471191  0.040006
    H   H17  0.364424  0.889355  0.524262  0.038528
    C   C25  0.535108  0.624055  0.071460  -0.047547
    H   H18  0.602590  0.631822  0.100541  0.037962
    H   H19  0.500691  0.706035  0.114277  0.037159
    C   C26  0.525327  0.628904  0.908013  -0.072880
    H   H20  0.477404  0.701091  0.882556  0.050461
    H   H21  0.585964  0.657196  0.858486  0.092496
    H   H22  0.612211  0.400208  0.124028  0.038178
    H   H23  0.624548  0.450681  0.890317  0.039672
    C   C27  0.549118  0.403218  0.073427  -0.007653
    C   C28  0.414992  0.493911  0.076098  -0.256680
    N   N1   0.500384  0.507776  0.130066  0.201537
    H   H24  0.386025  0.408388  0.122639  0.058640
    H   H25  0.377088  0.576898  0.107144  0.075385
    N   N2   0.499065  0.506998  0.853910  0.004623
    C   C29  0.559763  0.417000  0.911510  -0.030128
    C   C30  0.414700  0.484299  0.912368  0.486276
    H   H26  0.372976  0.559877  0.872505  0.002740
    H   H27  0.516498  0.313478  0.095502  -0.004472
    H   H28  0.553706  0.324176  0.859651  0.068009
    N   N3   0.382465  0.363200  0.868060  -0.585630
    C   C31  0.298306  0.346717  0.881406  0.785229
    O   O9   0.251296  0.436531  0.892238  -0.590869
    C   C32  0.261644  0.217838  0.883504  -0.610657
    H   H29  0.417387  0.284770  0.891529  0.275636
    H   H30  0.311299  0.145430  0.874154  0.138528
    H   H31  0.217110  0.207758  0.791848  0.173261
    H   H32  0.227182  0.203681  0.986541  0.158551
    N   N4   0.645464  0.141310  0.560932  -0.725946
    C   C33  0.708643  0.117843  0.655218  0.792246
    O   O10  0.693948  0.070924  0.772907  -0.627427
    C   C34  0.797187  0.150527  0.617048  -0.537224
    H   H33  0.663534  0.155539  0.455464  0.300454
    H   H34  0.800409  0.195418  0.508926  0.126725
    H   H35  0.835927  0.064078  0.616711  0.139287
    H   H36  0.822507  0.216384  0.698980  0.164187
