# Generated by REPEAT Assigner based on pymatgen
data_DB0-m29_o99_o52_f0_pts.sym.120
_audit_creation_date              2022-05-24
_audit_creation_method            REPEAT_Assigner
_cell_length_a                    15.831834
_cell_length_b                    9.282924
_cell_length_c                    20.351029
_cell_angle_alpha                 93.505581
_cell_angle_beta                  100.803669
_cell_angle_gamma                 97.130419
_cell_volume                      2904.216095
_symmetry_space_group_name_H-M    P1
_symmetry_Int_Tables_number       1
loop_
    _symmetry_equiv_pos_site_id
    _symmetry_equiv_pos_as_xyz
    1  x,y,z
loop_
    _atom_site_type_symbol
    _atom_site_label
    _atom_site_fract_x
    _atom_site_fract_y
    _atom_site_fract_z
    _atom_type_partial_charge
    C   C1   0.192708  0.976566  0.894860  -0.110474
    H   H1   0.198704  0.965201  0.842819  0.138644
    C   C2   0.111482  0.973741  0.910199  -0.200816
    H   H2   0.054447  0.957756  0.870506  0.151647
    C   C3   0.103201  0.994015  0.976045  0.301291
    C   C4   0.175778  0.013014  0.026599  -0.182268
    H   H3   0.166814  0.024220  0.077896  0.157493
    C   C5   0.257925  0.014649  0.012035  -0.032946
    C   C6   0.266265  0.000166  0.945043  0.049850
    C   C7   0.018900  0.993262  0.992488  -0.166756
    C   C8   0.948390  0.992572  0.006820  -0.101708
    C   C9   0.791616  0.979707  0.974443  -0.251092
    H   H4   0.800236  0.976950  0.923004  0.163080
    C   C10  0.709706  0.973405  0.989957  0.055416
    C   C11  0.701841  0.975337  0.057324  -0.108558
    C   C12  0.776360  0.989415  0.107173  0.063613
    C   C13  0.857048  0.997540  0.090314  -0.227557
    H   H5   0.914635  0.003162  0.129031  0.129163
    C   C14  0.864518  0.990711  0.024161  0.306634
    O   O1   0.508174  0.181652  0.820282  -0.608249
    C   C15  0.467716  0.194889  0.758792  0.612986
    O   O2   0.408780  0.129688  0.949367  -0.464064
    O   O3   0.417196  0.083605  0.723056  -0.566142
    O   O4   0.363990  0.928486  0.875966  -0.588769
    C   C16  0.350611  0.016648  0.924751  0.588655
    Fe  Fe1  0.478770  0.989582  0.853597  1.381368
    O   O5   0.557498  0.988055  0.943078  -0.412056
    O   O6   0.648881  0.961461  0.871900  -0.500713
    C   C17  0.635501  0.970880  0.933628  0.498726
    O   O7   0.489406  0.853739  0.775906  -0.402208
    O   O8   0.508127  0.708953  0.861173  -0.443340
    C   C18  0.503393  0.726201  0.797134  0.454980
    O   O9   0.478612  0.125322  0.226125  -0.486396
    O   O10  0.477658  0.273132  0.141859  -0.460502
    C   C19  0.475778  0.255830  0.205112  0.518116
    O   O11  0.407678  0.989133  0.059363  -0.435068
    O   O12  0.320018  0.045084  0.130134  -0.512392
    C   C20  0.332118  0.021664  0.068567  0.565817
    O   O13  0.545833  0.899980  0.280891  -0.446606
    O   O14  0.601955  0.051385  0.124169  -0.589433
    C   C21  0.617015  0.959580  0.077331  0.691844
    O   O15  0.460495  0.797150  0.182129  -0.625448
    C   C22  0.498916  0.786360  0.244354  0.552551
    O   O16  0.559674  0.844787  0.053859  -0.480218
    Fe  Fe2  0.488256  0.989173  0.148167  1.388592
    H   H6   0.492582  0.451628  0.826807  0.160536
    C   C23  0.501283  0.597546  0.750031  -0.048790
    C   C24  0.503393  0.607645  0.682301  0.291366
    C   C25  0.489084  0.480582  0.638546  -0.552688
    C   C26  0.472261  0.346583  0.663478  0.049199
    H   H7   0.460067  0.247361  0.630679  0.071959
    C   C27  0.477790  0.336830  0.731354  0.019935
    C   C28  0.492459  0.461676  0.774216  -0.098799
    N   N1   0.453891  0.368178  0.522867  -0.207967
    N   N2   0.455882  0.370028  0.458167  -0.303286
    C   C29  0.497192  0.486667  0.435503  0.818021
    N   N3   0.538487  0.598954  0.479176  -0.262694
    N   N4   0.537299  0.596033  0.543766  -0.260754
    C   C30  0.493117  0.482648  0.566492  0.823654
    C   C31  0.501836  0.631999  0.339084  -0.053917
    H   H8   0.510550  0.729794  0.372643  0.047208
    C   C32  0.493103  0.643642  0.271093  0.166561
    C   C33  0.480881  0.519756  0.227675  -0.161210
    H   H9   0.477141  0.530500  0.174708  0.165270
    C   C34  0.478194  0.383768  0.251834  0.039473
    C   C35  0.482049  0.371685  0.319784  0.026909
    H   H10  0.478623  0.265654  0.339043  0.079740
    C   C36  0.493856  0.496136  0.363494  -0.360088
    C   C37  0.771458  0.984852  0.178133  0.256435
    C   C38  0.812720  0.099499  0.224075  -0.042353
    Cl  Cl1  0.864649  0.256644  0.197247  -0.064190
    C   C39  0.811463  0.092327  0.291366  -0.073707
    C   C40  0.770133  0.969965  0.313096  0.057615
    Cl  Cl2  0.769382  0.960287  0.398634  -0.102695
    C   C41  0.729749  0.854840  0.267497  -0.020436
    C   C42  0.730093  0.862373  0.200095  -0.312057
    H   H11  0.843267  0.182600  0.327130  0.102591
    H   H12  0.698153  0.758266  0.284667  0.091085
    H   H13  0.699698  0.770480  0.164828  0.147652
    C   C43  0.524458  0.750783  0.658432  0.003343
    C   C44  0.463811  0.808473  0.613368  0.052754
    Cl  Cl3  0.358946  0.713642  0.586731  -0.067236
    C   C45  0.486923  0.938199  0.587403  0.146322
    C   C46  0.570302  0.010815  0.606884  -0.017968
    Cl  Cl4  0.601318  0.171408  0.571405  -0.048778
    C   C47  0.629962  0.955545  0.653488  -0.031221
    C   C48  0.607022  0.825837  0.679327  -0.161358
    H   H14  0.440094  0.981661  0.550916  0.026170
    H   H15  0.695225  0.012577  0.668867  0.101055
    H   H16  0.654580  0.780898  0.714619  0.140650
