# Generated by REPEAT Assigner based on pymatgen
data_DB0-m2_o17_o23_f0_pcu.sym.48
_audit_creation_date              2022-05-24
_audit_creation_method            REPEAT_Assigner
_cell_length_a                    14.959451
_cell_length_b                    13.535583
_cell_length_c                    15.865497
_cell_angle_alpha                 90.000000
_cell_angle_beta                  89.988956
_cell_angle_gamma                 90.000000
_cell_volume                      3212.523361
_symmetry_space_group_name_H-M    P1
_symmetry_Int_Tables_number       1
loop_
    _symmetry_equiv_pos_site_id
    _symmetry_equiv_pos_as_xyz
    1  x,y,z
loop_
    _atom_site_type_symbol
    _atom_site_label
    _atom_site_fract_x
    _atom_site_fract_y
    _atom_site_fract_z
    _atom_type_partial_charge
    O   O1   0.370708  0.589731  0.494704  -0.661240
    O   O2   0.371580  0.419784  0.501400  -0.651126
    C   C1   0.329416  0.504478  0.499157  0.900018
    O   O3   0.502427  0.589841  0.373894  -0.575412
    O   O4   0.497507  0.419816  0.375244  -0.586061
    C   C2   0.499571  0.504458  0.335316  0.768584
    Cu  Cu1  0.500096  0.604589  0.498245  0.878768
    Cu  Cu2  0.501769  0.406834  0.496931  0.807773
    O   O5   0.630557  0.591571  0.491992  -0.621082
    O   O6   0.631332  0.421772  0.499972  -0.599933
    O   O7   0.505176  0.591576  0.618869  -0.655861
    O   O8   0.499099  0.421548  0.620205  -0.567084
    C   C3   0.672529  0.506896  0.495405  0.736432
    C   C4   0.502365  0.506937  0.658779  0.900441
    C   C5   0.446627  0.594043  0.045211  0.163213
    C   C6   0.450920  0.413397  0.042932  0.099544
    C   C7   0.460986  0.409933  0.947820  -0.298492
    C   C8   0.444667  0.592871  0.949523  -0.379677
    H   H1   0.374599  0.583818  0.928103  0.080528
    H   H2   0.394280  0.398953  0.918862  0.065485
    H   H3   0.376888  0.587713  0.068231  0.015281
    H   H4   0.378769  0.421148  0.057333  0.012520
    H   H5   0.505101  0.348292  0.928419  0.067507
    H   H6   0.470834  0.663267  0.923794  0.086695
    C   C9   0.501895  0.507708  0.749154  -0.268730
    C   C10  0.499042  0.504614  0.076644  0.287587
    C   C11  0.500377  0.506905  0.917237  0.666063
    C   C12  0.595246  0.516744  0.949566  -0.075352
    C   C13  0.595122  0.507927  0.044666  -0.004452
    C   C14  0.501205  0.507717  0.825049  -0.268567
    C   C15  0.498808  0.503669  0.168877  -0.306358
    C   C16  0.499001  0.503673  0.244834  -0.148028
    H   H7   0.631880  0.570661  0.072867  0.006608
    H   H8   0.632093  0.440816  0.063416  0.011026
    H   H9   0.622774  0.589556  0.930805  0.006500
    H   H10  0.637624  0.457625  0.922331  0.011733
    C   C17  0.817330  0.534013  0.426111  -0.276250
    C   C18  0.769871  0.507132  0.496626  0.037655
    C   C19  0.813786  0.479405  0.568965  -0.250181
    C   C20  0.906552  0.477417  0.571710  0.093070
    C   C21  0.954304  0.504570  0.500364  0.031929
    C   C22  0.909431  0.531578  0.427564  0.203628
    C   C23  0.952654  0.450921  0.644605  -0.045389
    C   C24  0.044748  0.454867  0.645473  -0.220375
    C   C25  0.092651  0.481158  0.574105  0.169825
    C   C26  0.046850  0.504826  0.501225  -0.090000
    C   C27  0.093575  0.529064  0.428928  0.268770
    C   C28  0.048327  0.553756  0.356180  -0.248874
    C   C29  0.956439  0.555606  0.355663  -0.209890
    C   C30  0.185734  0.481211  0.574223  -0.102820
    C   C31  0.231744  0.503464  0.500865  -0.092265
    C   C32  0.185642  0.528096  0.428891  -0.263690
    H   H11  0.782173  0.555162  0.369333  0.130904
    H   H12  0.772960  0.462545  0.623024  0.157017
    H   H13  0.077876  0.431457  0.702514  0.160961
    H   H14  0.222178  0.546184  0.372152  0.144099
    H   H15  0.084643  0.572069  0.299354  0.151976
    H   H16  0.921471  0.575397  0.298500  0.143624
    C   C33  0.445143  0.800301  0.548750  -0.123537
    C   C34  0.446470  0.210567  0.550999  -0.303315
    N   N1   0.500303  0.752337  0.494169  0.079138
    N   N2   0.502162  0.259005  0.498620  0.139973
    C   C35  0.558234  0.802337  0.446764  -0.209349
    C   C36  0.561679  0.209428  0.451206  -0.186673
    C   C37  0.559898  0.904136  0.448531  0.204683
    C   C38  0.562109  0.107609  0.451229  0.206555
    C   C39  0.502463  0.954754  0.501157  0.029053
    C   C40  0.503782  0.056615  0.502554  -0.059963
    C   C41  0.444153  0.902880  0.551869  0.079973
    C   C42  0.447115  0.108062  0.555176  0.262175
    C   C43  0.618846  0.955201  0.397793  -0.218700
    C   C44  0.620180  0.056911  0.399365  -0.206294
    C   C45  0.390523  0.056458  0.609140  -0.240568
    C   C46  0.388287  0.953933  0.606834  -0.095230
    H   H17  0.402197  0.756495  0.588435  0.124148
    H   H18  0.400453  0.253769  0.587831  0.242443
    H   H19  0.603704  0.762431  0.406277  0.162262
    H   H20  0.607514  0.249635  0.411181  0.137034
    H   H21  0.663878  0.915907  0.356275  0.143292
    H   H22  0.666058  0.096647  0.359126  0.146718
    C   C47  0.236096  0.464976  0.652543  0.605748
    O   O9   0.288372  0.396208  0.658412  -0.495348
    O   O10  0.224179  0.528489  0.720609  -0.549532
    H   H23  0.264287  0.508096  0.768890  0.387258
    C   C48  0.333314  0.109176  0.669651  0.775739
    O   O11  0.252852  0.094632  0.670941  -0.537189
    O   O12  0.371376  0.173878  0.727592  -0.567348
    H   H24  0.323459  0.203286  0.764894  0.401554
    C   C49  0.330953  0.900489  0.666673  0.760792
    O   O13  0.343157  0.909212  0.742290  -0.542618
    O   O14  0.261546  0.841162  0.637531  -0.561733
    H   H25  0.229154  0.810101  0.686828  0.401925
    C   C50  0.480778  0.318962  0.083462  0.621311
    O   O15  0.429578  0.275350  0.130275  -0.535260
    O   O16  0.563838  0.277616  0.065596  -0.563002
    H   H26  0.571117  0.213251  0.097289  0.402209
    C   C51  0.481940  0.690105  0.078321  0.594799
    O   O17  0.439115  0.734939  0.131347  -0.533337
    O   O18  0.559944  0.731812  0.046293  -0.537140
    H   H27  0.572165  0.797198  0.074978  0.394075
    C   C52  0.908104  0.416308  0.722027  0.649745
    O   O19  0.848372  0.355190  0.718689  -0.507986
    O   O20  0.940660  0.445499  0.800312  -0.591048
    H   H28  0.904855  0.413193  0.846899  0.413993
