# Generated by REPEAT Assigner based on pymatgen
data_DB0-m3_o153_o21_f0_fsc.sym.54_sqe
_audit_creation_date              2022-05-24
_audit_creation_method            REPEAT_Assigner
_cell_length_a                    8.536265
_cell_length_b                    12.430354
_cell_length_c                    12.947516
_cell_angle_alpha                 94.610803
_cell_angle_beta                  93.566221
_cell_angle_gamma                 92.973779
_cell_volume                      1364.511772
_symmetry_space_group_name_H-M    P1
_symmetry_Int_Tables_number       1
loop_
    _symmetry_equiv_pos_site_id
    _symmetry_equiv_pos_as_xyz
    1  x,y,z
loop_
    _atom_site_type_symbol
    _atom_site_label
    _atom_site_fract_x
    _atom_site_fract_y
    _atom_site_fract_z
    _atom_type_partial_charge
    C   C1   0.034990  0.989728  0.111818  0.121390
    C   C2   0.903011  0.987587  0.169237  0.158898
    C   C3   0.756643  0.002968  0.122702  -0.435972
    C   C4   0.738867  0.016281  0.018512  0.290725
    C   C5   0.866151  0.009276  0.958110  0.138359
    C   C6   0.014969  0.997384  0.004339  -0.077983
    C   C7   0.843970  0.015651  0.851615  -0.404777
    C   C8   0.970746  0.015352  0.790734  0.214731
    C   C9   0.118851  0.004812  0.836889  0.128573
    C   C10  0.139916  0.991725  0.941220  -0.140534
    C   C11  0.953519  0.027770  0.684854  -0.221590
    C   C12  0.085804  0.039696  0.630525  -0.090868
    C   C13  0.232039  0.026223  0.676371  -0.075000
    C   C14  0.248307  0.005392  0.778604  -0.214147
    C   C15  0.183276  0.988090  0.164526  -0.235019
    C   C16  0.196118  0.970447  0.268594  -0.015998
    C   C17  0.062721  0.955098  0.320435  -0.103941
    C   C18  0.917931  0.970269  0.273500  -0.185677
    H   H1   0.653162  0.004666  0.166550  0.194010
    H   H2   0.073331  0.051481  0.548933  0.124389
    H   H3   0.363644  0.992581  0.813231  0.123897
    H   H4   0.256539  0.976342  0.970011  0.098067
    H   H5   0.728030  0.024328  0.816047  0.172519
    H   H6   0.291655  0.002508  0.128600  0.101290
    H   H7   0.073031  0.942043  0.401804  0.122786
    O   O1   0.417801  0.105663  0.572081  -0.719581
    O   O2   0.412301  0.921615  0.588100  -0.697707
    C   C19  0.364493  0.018368  0.611921  0.864676
    O   O3   0.393449  0.893137  0.372897  -0.638990
    O   O4   0.411698  0.076840  0.356975  -0.641962
    C   C20  0.347241  0.979426  0.330096  0.707994
    O   O5   0.732951  0.892163  0.379789  -0.747931
    O   O6   0.738959  0.075926  0.364061  -0.694310
    C   C21  0.786348  0.979094  0.339542  0.906641
    O   O7   0.757072  0.104593  0.579606  -0.726252
    O   O8   0.739279  0.920983  0.595235  -0.693599
    C   C22  0.802429  0.018603  0.623212  0.894760
    Zn  Zn1  0.567236  0.879601  0.483055  1.022884
    Zn  Zn2  0.583860  0.118128  0.469058  1.128404
    N   N1   0.595994  0.258888  0.462798  -0.208386
    C   C23  0.637226  0.468076  0.477468  -0.354193
    C   C24  0.514655  0.529603  0.472969  0.554279
    C   C25  0.538384  0.645512  0.483102  -0.094959
    C   C26  0.613331  0.352177  0.468221  0.309163
    N   N2   0.555385  0.738835  0.489272  0.037289
    H   H8   0.755311  0.505273  0.489770  0.225865
    O   O9   0.594094  0.036919  0.975775  -0.371086
    C   C27  0.596500  0.149460  0.976961  0.318154
    H   H9   0.571847  0.172718  0.896899  -0.046568
    H   H10  0.714114  0.184549  0.007151  -0.037027
    C   C28  0.473606  0.192797  0.046441  0.149148
    H   H11  0.355024  0.162148  0.014003  0.010044
    H   H12  0.494933  0.165911  0.125438  -0.001892
    C   C29  0.482680  0.315244  0.052670  -0.408156
    H   H13  0.600105  0.346916  0.086687  0.087685
    H   H14  0.391077  0.346177  0.102522  0.085359
    H   H15  0.462724  0.342773  0.973791  0.087970
    O   O10  0.365588  0.482685  0.456023  -0.413705
    C   C30  0.335710  0.476376  0.348459  0.320901
    H   H16  0.288226  0.393690  0.320582  -0.001077
    H   H17  0.446551  0.493919  0.311070  -0.041957
    C   C31  0.217776  0.558124  0.320599  0.149460
    H   H18  0.106039  0.539513  0.356547  -0.014433
    H   H19  0.265047  0.640386  0.350135  -0.018857
    C   C32  0.187497  0.553481  0.203694  -0.286344
    H   H20  0.298667  0.573035  0.167397  0.065418
    H   H21  0.100549  0.613150  0.184039  0.075683
    H   H22  0.140439  0.471320  0.173648  0.069067
