# Generated by REPEAT Assigner based on pymatgen
data_DB0-m29_o83_o87_f0_pts.sym.50
_audit_creation_date              2022-05-24
_audit_creation_method            REPEAT_Assigner
_cell_length_a                    16.287197
_cell_length_b                    8.762648
_cell_length_c                    10.896544
_cell_angle_alpha                 77.609515
_cell_angle_beta                  89.230088
_cell_angle_gamma                 102.072231
_cell_volume                      1482.558667
_symmetry_space_group_name_H-M    P1
_symmetry_Int_Tables_number       1
loop_
    _symmetry_equiv_pos_site_id
    _symmetry_equiv_pos_as_xyz
    1  x,y,z
loop_
    _atom_site_type_symbol
    _atom_site_label
    _atom_site_fract_x
    _atom_site_fract_y
    _atom_site_fract_z
    _atom_type_partial_charge
    C   C1   0.266399  0.035310  0.086177  -0.026239
    C   C2   0.251225  0.009022  0.966798  -0.013363
    C   C3   0.170886  0.000576  0.924797  -0.204766
    C   C4   0.201914  0.054766  0.160714  0.210342
    C   C5   0.121437  0.044095  0.118389  0.006822
    C   C6   0.104388  0.017609  0.999707  0.046637
    C   C7   0.021480  0.006725  0.960141  0.109691
    C   C8   0.001512  0.983256  0.841044  -0.228338
    C   C9   0.920593  0.965782  0.805194  -0.143647
    C   C10  0.057728  0.058230  0.196586  -0.094177
    C   C11  0.977190  0.045577  0.159416  -0.260803
    C   C12  0.956873  0.019407  0.041078  0.117149
    C   C13  0.873493  0.003852  0.002737  0.009538
    C   C14  0.856246  0.973249  0.885299  0.050614
    C   C15  0.774751  0.950200  0.846485  0.166277
    C   C16  0.806379  0.016607  0.078674  -0.094516
    C   C17  0.724698  0.995379  0.040476  -0.134858
    C   C18  0.709149  0.961760  0.922902  -0.005292
    H   H1   0.162901  0.977107  0.832811  0.138684
    H   H2   0.046470  0.977247  0.770478  0.156392
    H   H3   0.909718  0.946302  0.711711  0.119663
    H   H4   0.068692  0.077940  0.289988  0.105780
    H   H5   0.932717  0.056319  0.228733  0.169843
    H   H6   0.814692  0.042033  0.169941  0.099524
    O   O1   0.577216  0.965465  0.102049  -0.641562
    C   C19  0.656210  0.001956  0.129057  0.779273
    O   O2   0.581007  0.712483  0.321732  -0.530927
    O   O3   0.673790  0.037395  0.238179  -0.546529
    O   O4   0.478540  0.812654  0.400112  -0.682831
    C   C20  0.524690  0.704504  0.411449  0.656391
    Fe  Fe1  0.495209  0.969258  0.236438  1.449682
    O   O5   0.380598  0.920185  0.170171  -0.509687
    O   O6   0.393308  0.189135  0.145339  -0.507334
    C   C21  0.350317  0.049226  0.133857  0.513984
    O   O7   0.540218  0.185701  0.272077  -0.632922
    O   O8   0.422209  0.098425  0.401167  -0.468767
    C   C22  0.490779  0.207919  0.360023  0.886709
    O   O9   0.436618  0.753028  0.756773  -0.627329
    O   O10  0.545238  0.857391  0.610569  -0.552079
    C   C23  0.482762  0.738654  0.661915  0.784876
    O   O11  0.587919  0.052511  0.837598  -0.547986
    O   O12  0.586654  0.786517  0.872519  -0.477601
    C   C24  0.624293  0.932276  0.878253  0.611801
    O   O13  0.308119  0.013655  0.759530  -0.575002
    O   O14  0.475915  0.122867  0.615697  -0.533092
    C   C25  0.507402  0.273611  0.614426  0.455994
    O   O15  0.391621  0.971616  0.921986  -0.558221
    C   C26  0.319207  0.996637  0.880399  0.612736
    O   O16  0.538867  0.312770  0.716436  -0.404016
    Fe  Fe2  0.472136  0.976834  0.782706  1.404124
    C   C27  0.499022  0.368495  0.385447  -0.317452
    C   C28  0.503559  0.400085  0.501412  0.103992
    C   C29  0.504273  0.564658  0.518576  0.045670
    C   C30  0.472549  0.582852  0.627801  -0.162474
    H   H7   0.438817  0.480183  0.696989  0.118669
    H   H8   0.496866  0.462190  0.303868  0.194315
    N   N1   0.216916  0.076019  0.284094  -0.557671
    C   C31  0.236863  0.236444  0.298279  0.539089
    C   C32  0.270089  0.266992  0.408832  -0.345757
    C   C33  0.288909  0.420792  0.427553  0.026436
    C   C34  0.274451  0.545621  0.335962  -0.174864
    C   C35  0.241053  0.516504  0.225661  -0.017333
    C   C36  0.221967  0.362766  0.206360  -0.297098
    H   H9   0.254054  0.005739  0.333641  0.344313
    H   H10  0.280491  0.169788  0.482430  0.197226
    H   H11  0.314602  0.443278  0.514528  0.061428
    H   H12  0.288851  0.666112  0.350955  0.121044
    H   H13  0.229417  0.614585  0.153989  0.102097
    H   H14  0.195420  0.346467  0.118680  0.143965
    N   N2   0.759022  0.919333  0.725847  -0.526015
    C   C37  0.747163  0.757172  0.716984  0.562511
    C   C38  0.715795  0.715242  0.608746  -0.395115
    C   C39  0.705234  0.559805  0.594792  0.062511
    C   C40  0.725622  0.444485  0.689253  -0.175432
    C   C41  0.756809  0.484842  0.797556  0.047515
    C   C42  0.767967  0.640380  0.811891  -0.333477
    H   H15  0.717431  0.978695  0.676188  0.337010
    H   H16  0.700369  0.804954  0.533245  0.211867
    H   H17  0.681357  0.528629  0.509307  0.054639
    H   H18  0.717437  0.322593  0.678279  0.138803
    H   H19  0.772966  0.394242  0.871591  0.069900
    H   H20  0.792952  0.665292  0.898410  0.159047
