# Generated by REPEAT Assigner based on pymatgen
data_DB0-m3_o3_o11_f0_pcu.sym.39_sqe
_audit_creation_date              2022-05-24
_audit_creation_method            REPEAT_Assigner
_cell_length_a                    19.425303
_cell_length_b                    18.275264
_cell_length_c                    11.135512
_cell_angle_alpha                 90.000000
_cell_angle_beta                  90.007360
_cell_angle_gamma                 90.000000
_cell_volume                      3953.134827
_symmetry_space_group_name_H-M    P1
_symmetry_Int_Tables_number       1
loop_
    _symmetry_equiv_pos_site_id
    _symmetry_equiv_pos_as_xyz
    1  x,y,z
loop_
    _atom_site_type_symbol
    _atom_site_label
    _atom_site_fract_x
    _atom_site_fract_y
    _atom_site_fract_z
    _atom_type_partial_charge
    O   O1   0.397485  0.558066  0.496171  -0.656224
    O   O2   0.602515  0.558066  0.503829  -0.656302
    O   O3   0.397413  0.431684  0.498592  -0.706449
    O   O4   0.602587  0.431684  0.501408  -0.706516
    C   C1   0.365430  0.494928  0.496525  0.774774
    C   C2   0.634570  0.494928  0.503475  0.774920
    O   O5   0.502095  0.558053  0.321230  -0.748499
    O   O6   0.497905  0.558053  0.678770  -0.748279
    O   O7   0.500832  0.431624  0.320881  -0.724261
    O   O8   0.499168  0.431624  0.679119  -0.724163
    C   C3   0.501910  0.494988  0.265106  0.873365
    C   C4   0.498090  0.494988  0.734894  0.873009
    Zn  Zn1  0.500000  0.578213  0.500000  1.075149
    Zn  Zn2  0.500000  0.411518  0.500000  1.092240
    C   C5   0.500303  0.436448  0.933445  -0.031975
    C   C6   0.499697  0.436448  0.066555  -0.032026
    C   C7   0.496965  0.497208  0.866414  -0.337002
    C   C8   0.503035  0.497208  0.133586  -0.337195
    H   H1   0.502963  0.383665  0.889387  0.102110
    H   H2   0.497037  0.383665  0.110613  0.102130
    H   H3   0.493008  0.550923  0.905986  0.170217
    H   H4   0.506992  0.550923  0.094014  0.170334
    C   C9   0.746666  0.449643  0.430980  -0.125190
    C   C10  0.253334  0.449643  0.569020  -0.125349
    H   H5   0.720139  0.412081  0.371959  0.119714
    H   H6   0.279861  0.412081  0.628041  0.119735
    C   C11  0.817555  0.454245  0.426986  -0.080930
    C   C12  0.182445  0.454245  0.573014  -0.080756
    H   H7   0.845389  0.420077  0.364386  0.088333
    H   H8   0.154611  0.420077  0.635613  0.088306
    C   C13  0.852344  0.503062  0.500227  -0.088578
    C   C14  0.147656  0.503062  0.499773  -0.088785
    C   C15  0.814960  0.545288  0.580377  0.031203
    C   C16  0.185040  0.545288  0.419623  0.031550
    H   H9   0.840730  0.580502  0.644026  0.056851
    H   H10  0.159270  0.580502  0.355974  0.056785
    C   C17  0.744057  0.543416  0.579656  -0.158534
    C   C18  0.255943  0.543416  0.420344  -0.158959
    H   H11  0.715555  0.578281  0.640301  0.117905
    H   H12  0.284445  0.578281  0.359699  0.118018
    C   C19  0.709733  0.495573  0.505116  -0.063289
    C   C20  0.290267  0.495573  0.494884  -0.063034
    C   C21  0.964109  0.572683  0.496407  -0.264361
    C   C22  0.035891  0.572683  0.503593  -0.264288
    C   C23  0.071741  0.506523  0.503144  0.182817
    C   C24  0.928259  0.506523  0.496856  0.182854
    C   C25  0.035360  0.441676  0.500856  -0.139715
    C   C26  0.964640  0.441676  0.499144  -0.139782
    H   H13  0.062064  0.389815  0.498867  0.113450
    H   H14  0.937936  0.389815  0.501133  0.113464
    C   C27  0.556482  0.724404  0.535999  -0.118864
    C   C28  0.443518  0.724404  0.464001  -0.118667
    H   H15  0.601715  0.694886  0.564820  0.161623
    H   H16  0.398285  0.694886  0.435180  0.161555
    C   C29  0.557489  0.799854  0.535994  -0.067631
    C   C30  0.442511  0.799854  0.464006  -0.067783
    H   H17  0.604222  0.827607  0.562304  0.105305
    H   H18  0.395778  0.827607  0.437696  0.105342
    C   C31  0.500000  0.838653  0.500000  0.063754
    N   N1   0.500000  0.687718  0.500000  0.047401
    C   C32  0.465871  0.957547  0.411222  0.058974
    C   C33  0.534129  0.957547  0.588778  0.058971
    H   H19  0.441388  0.927949  0.338990  0.097362
    H   H20  0.558612  0.927949  0.661010  0.097348
    C   C34  0.465958  0.033212  0.409450  -0.379294
    C   C35  0.534042  0.033212  0.590550  -0.379284
    C   C36  0.500000  0.071648  0.500000  0.318003
    C   C37  0.500000  0.919325  0.500000  -0.049593
    C   C38  0.557022  0.189978  0.461472  -0.132407
    C   C39  0.442978  0.189978  0.538527  -0.132369
    H   H21  0.602157  0.160973  0.430505  0.096901
    H   H22  0.397843  0.160973  0.569495  0.096897
    C   C40  0.556015  0.265430  0.461279  0.015331
    C   C41  0.443985  0.265430  0.538721  0.015292
    H   H23  0.600587  0.295059  0.429712  0.122512
    H   H24  0.399413  0.295059  0.570288  0.122508
    N   N2   0.500000  0.302025  0.500000  -0.052785
    C   C42  0.500000  0.151780  0.500000  0.022555
    C   C43  0.430081  0.069896  0.308973  0.768680
    O   O9   0.385040  0.037124  0.254829  -0.524575
    O   O10  0.448627  0.137274  0.271644  -0.281066
    C   C44  0.416336  0.170105  0.176256  -0.080092
    H   H25  0.439193  0.224944  0.161135  0.097080
    H   H26  0.360664  0.176464  0.195894  0.079684
    H   H27  0.423410  0.136528  0.094173  0.075745
    C   C45  0.569919  0.069896  0.691027  0.768679
    O   O11  0.614960  0.037124  0.745171  -0.524567
    O   O12  0.551373  0.137274  0.728356  -0.281075
    C   C46  0.583665  0.170105  0.823744  -0.080090
    H   H28  0.560807  0.224944  0.838865  0.097079
    H   H29  0.639336  0.176464  0.804106  0.079687
    H   H30  0.576590  0.136528  0.905827  0.075742
    C   C47  0.926436  0.642369  0.485415  0.828168
    O   O13  0.935669  0.691311  0.558220  -0.529225
    O   O14  0.879974  0.651239  0.396549  -0.346517
    C   C48  0.843528  0.715151  0.385247  0.025920
    H   H31  0.808551  0.710987  0.306824  0.067379
    H   H32  0.879480  0.761521  0.371066  0.055520
    H   H33  0.812418  0.724656  0.467322  0.039434
    C   C49  0.073564  0.642369  0.514585  0.828125
    O   O15  0.064331  0.691311  0.441780  -0.529216
    O   O16  0.120026  0.651238  0.603452  -0.346490
    C   C50  0.156472  0.715151  0.614753  0.025907
    H   H34  0.191449  0.710987  0.693176  0.067370
    H   H35  0.120520  0.761521  0.628934  0.055528
    H   H36  0.187583  0.724656  0.532678  0.039438
