# Generated by REPEAT Assigner based on pymatgen
data_DB0-m3_o16_o1520_f0_fsc.sym.12
_audit_creation_date              2022-05-24
_audit_creation_method            REPEAT_Assigner
_cell_length_a                    8.521681
_cell_length_b                    13.026893
_cell_length_c                    12.106910
_cell_angle_alpha                 108.262035
_cell_angle_beta                  90.094224
_cell_angle_gamma                 95.313942
_cell_volume                      1270.153865
_symmetry_space_group_name_H-M    P1
_symmetry_Int_Tables_number       1
loop_
    _symmetry_equiv_pos_site_id
    _symmetry_equiv_pos_as_xyz
    1  x,y,z
loop_
    _atom_site_type_symbol
    _atom_site_label
    _atom_site_fract_x
    _atom_site_fract_y
    _atom_site_fract_z
    _atom_type_partial_charge
    C   C1   0.111409  0.290935  0.986999  -0.138034
    C   C2   0.979709  0.338399  0.972648  -0.188267
    C   C3   0.833331  0.293905  0.988403  0.008094
    C   C4   0.815522  0.192853  0.003019  -0.256562
    C   C5   0.946583  0.134799  0.999749  0.123518
    C   C6   0.095574  0.187964  0.998629  0.061308
    C   C7   0.932703  0.026495  0.000152  0.078859
    C   C8   0.067857  0.974822  0.004967  -0.048981
    C   C9   0.214446  0.033657  0.012783  -0.144067
    C   C10  0.227694  0.137804  0.007724  -0.185959
    C   C11  0.786111  0.967661  0.992357  -0.251679
    C   C12  0.772873  0.863484  0.997328  -0.183222
    C   C13  0.905002  0.813294  0.006313  0.088359
    C   C14  0.053982  0.866492  0.005281  0.236631
    C   C15  0.889196  0.710226  0.017684  -0.162671
    C   C16  0.020810  0.662683  0.031864  -0.158980
    C   C17  0.167132  0.707248  0.016269  0.019018
    C   C18  0.185027  0.808416  0.001946  -0.372918
    H   H1   0.992337  0.415336  0.957004  0.125328
    H   H2   0.697713  0.163590  0.017197  0.107461
    H   H3   0.677018  0.998853  0.981224  0.175370
    H   H4   0.656248  0.822247  0.994393  0.104004
    H   H5   0.008161  0.585648  0.047284  0.154911
    H   H6   0.302866  0.837721  0.987891  0.159137
    H   H7   0.323532  0.002472  0.023952  0.103246
    H   H8   0.344329  0.179014  0.010622  0.139124
    O   O1   0.686708  0.631031  0.108625  -0.737370
    O   O2   0.675953  0.589349  0.908923  -0.721069
    C   C19  0.737875  0.645510  0.012038  0.908360
    O   O3   0.653231  0.372583  0.896964  -0.683047
    O   O4   0.653170  0.413601  0.096870  -0.751386
    C   C20  0.701005  0.358818  0.993905  0.866527
    O   O5   0.313806  0.370202  0.895873  -0.707533
    O   O6   0.325262  0.411347  0.095772  -0.762773
    C   C21  0.262861  0.355596  0.992564  0.954233
    O   O7   0.347329  0.628644  0.107535  -0.733398
    O   O8   0.346561  0.587086  0.907820  -0.706522
    C   C22  0.299303  0.642276  0.010697  0.829770
    Zn  Zn1  0.496179  0.470554  0.872433  0.966444
    Zn  Zn2  0.504346  0.530542  0.131705  1.093074
    C   C23  0.528060  0.715129  0.458519  -0.094433
    H   H9   0.530473  0.732740  0.290315  0.134473
    H   H10  0.534575  0.768149  0.687034  0.133559
    N   N1   0.509320  0.568878  0.284032  0.086465
    C   C24  0.477215  0.323198  0.664387  -0.040322
    C   C25  0.471933  0.282105  0.545642  -0.075899
    C   C26  0.480626  0.349247  0.478974  -0.113073
    C   C27  0.495012  0.460671  0.531746  0.133992
    C   C28  0.500111  0.501076  0.653734  0.020380
    C   C29  0.504383  0.532335  0.465275  -0.078137
    C   C30  0.518663  0.643194  0.521831  0.309511
    C   C31  0.523528  0.682164  0.641173  -0.235788
    C   C32  0.514459  0.612734  0.705920  -0.128233
    C   C33  0.499954  0.496865  0.343371  -0.134896
    C   C34  0.523148  0.676202  0.339505  -0.050136
    N   N2   0.491203  0.432195  0.719423  0.136865
    H   H11  0.489141  0.412865  0.291837  0.156633
    H   H12  0.475539  0.309565  0.386803  0.138941
    H   H13  0.460752  0.195122  0.504127  0.101399
    H   H14  0.519286  0.651256  0.797498  0.210680
    Br  Br1  0.547875  0.869038  0.531082  -0.059658
    Br  Br2  0.463618  0.216363  0.743036  0.039340
