# Generated by REPEAT Assigner based on pymatgen
data_DB0-m15_o28_o140_f0_fsc
_audit_creation_date              2022-05-24
_audit_creation_method            REPEAT_Assigner
_cell_length_a                    11.685222
_cell_length_b                    15.495231
_cell_length_c                    22.253404
_cell_angle_alpha                 90.026443
_cell_angle_beta                  90.150886
_cell_angle_gamma                 89.997676
_cell_volume                      4029.302966
_symmetry_space_group_name_H-M    P1
_symmetry_Int_Tables_number       1
loop_
    _symmetry_equiv_pos_site_id
    _symmetry_equiv_pos_as_xyz
    1  x,y,z
loop_
    _atom_site_type_symbol
    _atom_site_label
    _atom_site_fract_x
    _atom_site_fract_y
    _atom_site_fract_z
    _atom_type_partial_charge
    Co  Co1  0.994521  0.000040  0.940032  0.788856
    Co  Co2  0.005479  0.999961  0.059968  0.788615
    O   O1   0.115236  0.092754  0.946401  -0.554201
    O   O2   0.884763  0.907246  0.053599  -0.554161
    O   O3   0.873902  0.908264  0.951391  -0.549352
    O   O4   0.126097  0.091737  0.048609  -0.549123
    O   O5   0.115485  0.907466  0.946304  -0.573611
    O   O6   0.884515  0.092534  0.053696  -0.573447
    O   O7   0.873696  0.091650  0.951479  -0.568784
    O   O8   0.126304  0.908350  0.048521  -0.568917
    C   C1   0.159026  0.122843  0.996573  0.672049
    C   C2   0.840973  0.877158  0.003427  0.672244
    C   C3   0.159315  0.877349  0.996448  0.708776
    C   C4   0.840684  0.122652  0.003552  0.708757
    C   C5   0.038051  0.068757  0.625013  0.549793
    C   C6   0.961948  0.931243  0.374987  0.549809
    N   N1   0.990312  0.001856  0.654762  -0.308741
    N   N2   0.009687  0.998144  0.345238  -0.308827
    C   C7   0.945834  0.934407  0.624088  0.551713
    C   C8   0.054166  0.065594  0.375913  0.551719
    C   C9   0.948922  0.932830  0.561803  -0.159009
    C   C10  0.051078  0.067170  0.438197  -0.158983
    C   C11  0.997845  0.000445  0.531057  0.115388
    C   C12  0.002155  0.999555  0.468943  0.115305
    C   C13  0.042541  0.068925  0.562766  -0.155638
    C   C14  0.957458  0.931075  0.437234  -0.155556
    C   C15  0.904350  0.863782  0.530002  -0.068338
    C   C16  0.095649  0.136218  0.469998  -0.068295
    C   C17  0.908579  0.862918  0.468049  -0.071679
    C   C18  0.091421  0.137082  0.531951  -0.071648
    O   O9   0.077480  0.132535  0.654317  -0.520674
    O   O10  0.922519  0.867465  0.345683  -0.520726
    O   O11  0.903508  0.871088  0.652592  -0.520847
    O   O12  0.096492  0.128912  0.347408  -0.520791
    H   H1   0.865572  0.809660  0.552807  0.125546
    H   H2   0.134427  0.190340  0.447193  0.125512
    H   H3   0.872857  0.808180  0.444453  0.126893
    H   H4   0.127143  0.191820  0.555548  0.126855
    C   C19  0.908710  0.996194  0.249090  -0.252449
    C   C20  0.091290  0.003806  0.750910  -0.252855
    H   H5   0.827801  0.994822  0.272525  0.160872
    H   H6   0.172198  0.005179  0.727475  0.160853
    C   C21  0.910029  0.996710  0.187084  0.059728
    C   C22  0.089970  0.003291  0.812916  0.060244
    H   H7   0.830038  0.995136  0.162617  0.101967
    H   H8   0.169962  0.004865  0.837383  0.101843
    N   N3   0.009779  0.999369  0.156890  -0.057994
    N   N4   0.990221  0.000632  0.843110  -0.058189
    C   C23  0.109995  0.001768  0.186992  -0.005805
    C   C24  0.890004  0.998232  0.813008  -0.005997
    H   H9   0.189659  0.003808  0.162458  0.140676
    H   H10  0.810340  0.996192  0.837542  0.140778
    C   C25  0.111733  0.001498  0.249168  -0.234552
    C   C26  0.888267  0.998502  0.750832  -0.234453
    H   H11  0.192733  0.002776  0.272741  0.157889
    H   H12  0.807267  0.997224  0.727259  0.157907
    C   C27  0.010228  0.998519  0.280845  0.363978
    C   C28  0.989772  0.001481  0.719155  0.364150
    C   C29  0.761015  0.195745  0.005568  -0.123523
    C   C30  0.238984  0.804255  0.994432  -0.123391
    C   C31  0.558181  0.422418  0.005949  -0.005991
    C   C32  0.441818  0.577582  0.994052  -0.006144
    C   C33  0.630866  0.291411  0.955778  -0.186222
    C   C34  0.369134  0.708589  0.044222  -0.186047
    H   H13  0.585050  0.309960  0.915546  0.106879
    H   H14  0.414950  0.690040  0.084454  0.106856
    C   C35  0.752389  0.245377  0.057054  -0.052410
    C   C36  0.247611  0.754623  0.942946  -0.052412
    H   H15  0.800855  0.229124  0.096893  0.101728
    H   H16  0.199144  0.770876  0.903107  0.101719
    C   C37  0.699777  0.219118  0.954925  -0.071232
    C   C38  0.300223  0.780882  0.045075  -0.071429
    H   H17  0.705849  0.181647  0.914087  0.105564
    H   H18  0.294151  0.818353  0.085913  0.105620
    C   C39  0.624076  0.341877  0.006837  0.220712
    C   C40  0.375924  0.658124  0.993163  0.220867
    C   C41  0.685650  0.318868  0.057322  -0.183611
    C   C42  0.314349  0.681132  0.942679  -0.183665
    H   H19  0.681818  0.358436  0.097288  0.110545
    H   H20  0.318182  0.641565  0.902712  0.110510
    C   C43  0.238627  0.195959  0.994614  -0.096938
    C   C44  0.761372  0.804041  0.005386  -0.097170
    C   C45  0.441688  0.422465  0.994182  -0.011382
    C   C46  0.558312  0.577535  0.005818  -0.011276
    C   C47  0.368797  0.291641  0.044417  -0.173935
    C   C48  0.631203  0.708360  0.955584  -0.174037
    H   H21  0.414616  0.310234  0.084650  0.104335
    H   H22  0.585383  0.689767  0.915350  0.104264
    C   C49  0.247313  0.245501  0.943124  -0.068512
    C   C50  0.752687  0.754499  0.056876  -0.068438
    H   H23  0.198889  0.229198  0.903271  0.110432
    H   H24  0.801110  0.770802  0.096729  0.110372
    C   C51  0.299830  0.219385  0.045271  -0.094727
    C   C52  0.700170  0.780616  0.954729  -0.094403
    H   H25  0.293711  0.181972  0.086110  0.115939
    H   H26  0.706288  0.818028  0.913890  0.115923
    C   C53  0.375670  0.341998  0.993340  0.217969
    C   C54  0.624330  0.658002  0.006660  0.217779
    C   C55  0.314108  0.318945  0.942853  -0.177071
    C   C56  0.685892  0.681055  0.057147  -0.176969
    H   H27  0.318023  0.358429  0.902875  0.110005
    H   H28  0.681976  0.641571  0.097125  0.110000
    C   C57  0.615417  0.499960  0.012226  -0.185626
    C   C58  0.384583  0.500040  0.987774  -0.185648
    H   H29  0.706986  0.499928  0.019294  0.104537
    H   H30  0.293013  0.500072  0.980706  0.104579
