# Generated by REPEAT Assigner based on pymatgen
data_DB0-m23_o7_o20_f0_pcu
_audit_creation_date              2022-05-24
_audit_creation_method            REPEAT_Assigner
_cell_length_a                    13.524708
_cell_length_b                    13.919701
_cell_length_c                    16.175933
_cell_angle_alpha                 75.902470
_cell_angle_beta                  91.536470
_cell_angle_gamma                 91.106051
_cell_volume                      2952.245034
_symmetry_space_group_name_H-M    P1
_symmetry_Int_Tables_number       1
loop_
    _symmetry_equiv_pos_site_id
    _symmetry_equiv_pos_as_xyz
    1  x,y,z
loop_
    _atom_site_type_symbol
    _atom_site_label
    _atom_site_fract_x
    _atom_site_fract_y
    _atom_site_fract_z
    _atom_type_partial_charge
    C   C1   0.996977  0.782853  0.269031  0.773607
    O   O1   0.998750  0.771708  0.191038  -0.695952
    O   O2   0.996065  0.873124  0.280000  -0.669155
    C   C2   0.998467  0.218221  0.731127  0.826308
    O   O3   0.999340  0.228754  0.809388  -0.711391
    O   O4   0.998216  0.128187  0.719567  -0.686322
    C   C3   0.000947  0.150827  0.072353  0.687226
    O   O5   0.001603  0.102461  0.152749  -0.616972
    O   O6   0.000690  0.100241  0.013519  -0.798180
    Cd  Cd1  0.000271  0.940577  0.123825  1.232712
    Cd  Cd2  0.999817  0.059612  0.875785  1.243265
    C   C4   0.998767  0.849355  0.926493  0.651576
    O   O7   0.000234  0.898362  0.846374  -0.637368
    O   O8   0.000233  0.899373  0.985847  -0.792203
    C   C5   0.801557  0.003517  0.833150  0.063671
    H   H1   0.837475  0.956620  0.799453  0.152810
    C   C6   0.699430  0.004339  0.831954  -0.298756
    H   H2   0.657682  0.956948  0.799474  0.157009
    C   C7   0.650890  0.065979  0.871527  0.434928
    C   C8   0.705901  0.127337  0.910429  -0.283547
    H   H3   0.669301  0.177832  0.940498  0.139337
    C   C9   0.808008  0.124874  0.910528  0.077366
    H   H4   0.849475  0.175829  0.939035  0.145896
    N   N1   0.855107  0.061505  0.874116  -0.190085
    C   C10  0.455056  0.067813  0.870797  -0.172976
    C   C11  0.544390  0.067249  0.870988  -0.176027
    C   C12  0.293526  0.017232  0.822593  -0.304809
    H   H5   0.330093  0.977785  0.782474  0.162423
    C   C13  0.191436  0.017045  0.824776  0.042904
    H   H6   0.149992  0.979192  0.784148  0.165478
    N   N2   0.144457  0.064689  0.875528  -0.150303
    C   C14  0.197936  0.117996  0.920805  0.040174
    H   H7   0.161815  0.161074  0.957809  0.149293
    C   C15  0.300031  0.119746  0.919806  -0.247828
    H   H8   0.341760  0.161677  0.957305  0.126634
    C   C16  0.348559  0.068019  0.871209  0.426193
    C   C17  0.199608  0.854294  0.054891  0.152261
    H   H9   0.163563  0.802977  0.023493  0.110115
    C   C18  0.301601  0.858231  0.056875  -0.301689
    H   H10  0.343147  0.813001  0.024857  0.144773
    C   C19  0.350304  0.918191  0.101063  0.407142
    C   C20  0.295753  0.972581  0.143495  -0.226368
    H   H11  0.332670  0.018558  0.180209  0.145039
    C   C21  0.193688  0.967368  0.139964  -0.054844
    H   H12  0.152379  0.007769  0.175918  0.155432
    N   N3   0.146397  0.910511  0.094264  -0.152054
    C   C22  0.545838  0.923923  0.107800  -0.176963
    C   C23  0.456611  0.921494  0.104755  -0.173756
    C   C24  0.706750  0.865627  0.076321  -0.283272
    H   H13  0.669868  0.813731  0.045449  0.140445
    C   C25  0.808821  0.869729  0.080974  0.074011
    H   H14  0.850093  0.818652  0.055343  0.148563
    N   N4   0.856041  0.934859  0.118561  -0.167413
    C   C26  0.802755  0.992797  0.156230  0.046083
    H   H15  0.838754  0.040904  0.191007  0.151769
    C   C27  0.700762  0.990351  0.152665  -0.289681
    H   H16  0.659154  0.037655  0.182581  0.153844
    C   C28  0.652143  0.927115  0.111681  0.429982
    C   C29  0.000147  0.258690  0.048948  -0.145605
    C   C30  0.999211  0.348862  0.029898  0.023429
    C   C31  0.998047  0.454938  0.007893  -0.001527
    C   C32  0.997230  0.545115  0.989353  -0.016865
    C   C33  0.996728  0.651203  0.967589  0.028908
    C   C34  0.997035  0.741396  0.948992  -0.138546
    C   C35  0.996467  0.696731  0.341389  -0.235526
    C   C36  0.996395  0.623874  0.401092  0.056319
    C   C37  0.996585  0.537594  0.470807  -0.021395
    C   C38  0.996894  0.464101  0.529910  -0.058124
    C   C39  0.997375  0.377732  0.599541  0.100815
    C   C40  0.997847  0.304705  0.659087  -0.292239
