# Generated by REPEAT Assigner based on pymatgen
data_DB0-m3_o3_o4_f0_nbo.sym.4
_audit_creation_date              2022-05-24
_audit_creation_method            REPEAT_Assigner
_cell_length_a                    44.289743
_cell_length_b                    38.862646
_cell_length_c                    21.830462
_cell_angle_alpha                 90.000000
_cell_angle_beta                  61.409294
_cell_angle_gamma                 90.000000
_cell_volume                      32993.087394
_symmetry_space_group_name_H-M    P1
_symmetry_Int_Tables_number       1
loop_
    _symmetry_equiv_pos_site_id
    _symmetry_equiv_pos_as_xyz
    1  x,y,z
loop_
    _atom_site_type_symbol
    _atom_site_label
    _atom_site_fract_x
    _atom_site_fract_y
    _atom_site_fract_z
    _atom_type_partial_charge
    O   O1    0.051222  0.527616  0.458554  -0.702238
    O   O2    0.949069  0.526100  0.543122  -0.721512
    O   O3    0.551222  0.027616  0.458554  -0.702267
    O   O4    0.449069  0.026100  0.543122  -0.721467
    O   O5    0.051021  0.468246  0.458398  -0.664405
    O   O6    0.949057  0.466769  0.539342  -0.657522
    O   O7    0.551021  0.968246  0.458398  -0.664424
    O   O8    0.449057  0.966769  0.539342  -0.657448
    C   C1    0.067154  0.497898  0.445537  0.566419
    C   C2    0.933027  0.496497  0.554181  0.583923
    C   C3    0.567154  0.997898  0.445537  0.566474
    C   C4    0.433027  0.996497  0.554181  0.583860
    O   O9    0.996765  0.527867  0.594065  -0.706011
    O   O10   0.004940  0.525891  0.404193  -0.717595
    O   O11   0.496765  0.027867  0.594065  -0.706019
    O   O12   0.504940  0.025891  0.404193  -0.717580
    O   O13   0.994140  0.468483  0.596430  -0.729887
    O   O14   0.004456  0.466448  0.404778  -0.713218
    O   O15   0.494140  0.968483  0.596430  -0.729904
    O   O16   0.504456  0.966448  0.404778  -0.713206
    C   C5    0.993783  0.498241  0.625117  0.799246
    C   C6    0.006354  0.496142  0.374629  0.792679
    C   C7    0.493783  0.998241  0.625117  0.799235
    C   C8    0.506354  0.996142  0.374629  0.792651
    Zn  Zn1   0.000080  0.536162  0.499459  1.338151
    Zn  Zn2   0.500080  0.036162  0.499459  1.338141
    Zn  Zn3   0.000084  0.458202  0.500300  1.319726
    Zn  Zn4   0.500084  0.958202  0.500300  1.319707
    C   C9    0.017002  0.515646  0.701836  0.036408
    C   C10   0.984213  0.514921  0.296938  0.052060
    C   C11   0.517002  0.015646  0.701836  0.036385
    C   C12   0.484213  0.014921  0.296938  0.052161
    C   C13   0.992370  0.498422  0.693157  -0.069487
    C   C14   0.007854  0.496327  0.306513  -0.072906
    C   C15   0.492370  0.998422  0.693157  -0.069450
    C   C16   0.507854  0.996327  0.306513  -0.072962
    C   C17   0.968179  0.479898  0.750274  -0.172890
    C   C18   0.031166  0.476727  0.250167  -0.166238
    C   C19   0.468179  0.979898  0.750274  -0.172896
    C   C20   0.531166  0.976727  0.250167  -0.166175
    C   C21   0.969677  0.479845  0.812697  -0.149516
    C   C22   0.029879  0.477106  0.187508  -0.155959
    C   C23   0.469677  0.979845  0.812697  -0.149493
    C   C24   0.529879  0.977106  0.187508  -0.156100
    H   H1    0.950433  0.465950  0.857151  0.126118
    H   H2    0.048434  0.462400  0.143542  0.128325
    H   H3    0.450433  0.965950  0.857151  0.126110
    H   H4    0.548434  0.962400  0.143542  0.128354
    C   C25   0.995720  0.497095  0.818030  -0.162068
    C   C26   0.004809  0.495781  0.181340  -0.156668
    C   C27   0.495720  0.997095  0.818030  -0.162095
    C   C28   0.504809  0.995781  0.181340  -0.156456
    C   C29   0.019148  0.514380  0.760178  0.188596
    C   C30   0.982157  0.514006  0.238499  0.176280
    C   C31   0.519148  0.014380  0.760178  0.188616
    C   C32   0.482157  0.014006  0.238499  0.176100
    C   C33   0.050564  0.535910  0.732976  -0.153131
    C   C34   0.951926  0.537162  0.264552  -0.145846
    C   C35   0.550564  0.035910  0.732976  -0.153130
    C   C36   0.451926  0.037162  0.264552  -0.145795
    C   C37   0.048238  0.537063  0.663880  -0.104575
    C   C38   0.954122  0.537921  0.333807  -0.108737
    C   C39   0.548238  0.037063  0.663880  -0.104575
    C   C40   0.454122  0.037921  0.333807  -0.108755
    H   H5    0.045628  0.561192  0.759618  0.064616
    H   H6    0.958242  0.562232  0.236924  0.061401
    H   H7    0.545628  0.061192  0.759618  0.064618
    H   H8    0.458242  0.062232  0.236924  0.061390
    H   H9    0.073141  0.521295  0.727954  0.069283
    H   H10   0.928665  0.523813  0.269866  0.068354
    H   H11   0.573141  0.021295  0.727954  0.069280
    H   H12   0.428665  0.023813  0.269866  0.068346
    H   H13   0.042254  0.563035  0.651563  0.061635
    H   H14   0.961413  0.563475  0.345218  0.060549
    H   H15   0.542254  0.063035  0.651563  0.061634
    H   H16   0.461413  0.063475  0.345218  0.060547
    H   H17   0.069359  0.522852  0.620454  0.051343
    H   H18   0.932225  0.524755  0.377647  0.048968
    H   H19   0.569359  0.022852  0.620454  0.051344
    H   H20   0.432225  0.024755  0.377647  0.048968
    C   C41   0.374897  0.480777  0.083898  -0.080210
    C   C42   0.625224  0.480539  0.916399  -0.075759
    C   C43   0.874897  0.980777  0.083898  -0.080255
    C   C44   0.125224  0.980539  0.916399  -0.075808
    C   C45   0.339463  0.481991  0.122237  -0.147118
    C   C46   0.660654  0.481735  0.878046  -0.147778
    C   C47   0.839463  0.981991  0.122237  -0.147101
    C   C48   0.160654  0.981735  0.878046  -0.147762
    H   H21   0.324425  0.470909  0.100224  0.090897
    H   H22   0.675665  0.470637  0.900101  0.090346
    H   H23   0.824425  0.970909  0.100224  0.090898
    H   H24   0.175665  0.970637  0.900101  0.090346
    C   C49   0.323358  0.496498  0.188066  0.081123
    C   C50   0.676774  0.496215  0.812197  0.082229
    C   C51   0.823358  0.996498  0.188066  0.081116
    C   C52   0.176774  0.996215  0.812197  0.082220
    C   C53   0.343266  0.510296  0.215013  -0.132755
    C   C54   0.656863  0.510068  0.785307  -0.137205
    C   C55   0.843266  0.010296  0.215013  -0.132754
    C   C56   0.156863  0.010068  0.785307  -0.137188
    H   H25   0.331502  0.521108  0.266916  0.112015
    H   H26   0.668616  0.520864  0.733393  0.112995
    H   H27   0.831502  0.021108  0.266916  0.112012
    H   H28   0.168616  0.020864  0.733393  0.112991
    C   C57   0.378630  0.509713  0.176640  -0.224178
    C   C58   0.621497  0.509565  0.823745  -0.219718
    C   C59   0.878630  0.009713  0.176640  -0.224178
    C   C60   0.121497  0.009565  0.823745  -0.219755
    H   H29   0.393531  0.521060  0.198741  0.149503
    H   H30   0.606632  0.520973  0.801626  0.149767
    H   H31   0.893531  0.021060  0.198741  0.149503
    H   H32   0.106631  0.020973  0.801626  0.149775
    C   C61   0.394838  0.495347  0.110702  0.126567
    C   C62   0.605265  0.495164  0.889670  0.121243
    C   C63   0.894838  0.995347  0.110702  0.126597
    C   C64   0.105265  0.995164  0.889670  0.121331
    C   C65   0.268414  0.524438  0.270764  -0.127058
    C   C66   0.731809  0.523886  0.728990  -0.126583
    C   C67   0.768414  0.024438  0.270764  -0.127035
    C   C68   0.231809  0.023886  0.728990  -0.126555
    H   H33   0.282393  0.546826  0.272687  0.109722
    H   H34   0.717906  0.546267  0.726751  0.110743
    H   H35   0.782393  0.046826  0.272687  0.109717
    H   H36   0.217906  0.046267  0.726752  0.110736
    C   C69   0.233002  0.524578  0.308881  -0.182617
    C   C70   0.767221  0.523887  0.690770  -0.186329
    C   C71   0.733002  0.024578  0.308881  -0.182629
    C   C72   0.267221  0.023887  0.690770  -0.186354
    H   H37   0.220406  0.546616  0.341258  0.123240
    H   H38   0.779866  0.545794  0.658000  0.123852
    H   H39   0.720406  0.046616  0.341258  0.123242
    H   H40   0.279866  0.045794  0.658000  0.123858
    C   C73   0.214086  0.496812  0.306361  0.121898
    C   C74   0.786065  0.496146  0.693686  0.121622
    C   C75   0.714086  0.996812  0.306361  0.121885
    C   C76   0.286065  0.996146  0.693686  0.121649
    C   C77   0.231263  0.468794  0.265448  -0.215297
    C   C78   0.768804  0.468298  0.735110  -0.214043
    C   C79   0.731263  0.968794  0.265448  -0.215317
    C   C80   0.268804  0.968298  0.735110  -0.214080
    H   H41   0.217261  0.446966  0.261260  0.145804
    H   H42   0.782730  0.446499  0.739671  0.148462
    H   H43   0.717261  0.946966  0.261260  0.145808
    H   H44   0.282730  0.946499  0.739671  0.148472
    C   C81   0.266658  0.468634  0.227436  -0.092672
    C   C82   0.733413  0.468254  0.773135  -0.097838
    C   C83   0.766658  0.968634  0.227436  -0.092649
    C   C84   0.233413  0.968254  0.773135  -0.097808
    H   H45   0.279272  0.446108  0.196883  0.091066
    H   H46   0.720756  0.445822  0.803993  0.091885
    H   H47   0.779272  0.946108  0.196883  0.091059
    H   H48   0.220756  0.945822  0.803993  0.091879
    C   C85   0.285567  0.496533  0.229401  0.072638
    C   C86   0.714573  0.496131  0.770795  0.075618
    C   C87   0.785567  0.996533  0.229401  0.072623
    C   C88   0.214573  0.996131  0.770795  0.075600
    C   C89   0.157871  0.467662  0.375616  -0.103078
    C   C90   0.842133  0.466640  0.625075  -0.099532
    C   C91   0.657871  0.967662  0.375616  -0.103152
    C   C92   0.342133  0.966640  0.625075  -0.099573
    H   H49   0.170981  0.443939  0.373828  0.095021
    H   H50   0.828912  0.442896  0.627574  0.091349
    H   H51   0.670981  0.943939  0.373828  0.095031
    H   H52   0.328913  0.942896  0.627574  0.091365
    C   C93   0.122394  0.467913  0.409292  -0.118112
    C   C94   0.877607  0.466713  0.591312  -0.112378
    C   C95   0.622394  0.967913  0.409292  -0.118055
    C   C96   0.377607  0.966713  0.591312  -0.112308
    H   H53   0.108706  0.444295  0.431917  0.099967
    H   H54   0.891133  0.442931  0.569455  0.100308
    H   H55   0.608706  0.944295  0.431917  0.099964
    H   H56   0.391133  0.942931  0.569455  0.100258
    C   C97   0.104777  0.497891  0.413305  0.201828
    C   C98   0.895400  0.496702  0.586314  0.182770
    C   C99   0.604777  0.997891  0.413305  0.201747
    C   C100  0.395400  0.996702  0.586314  0.182770
    C   C101  0.123033  0.527734  0.384478  -0.221360
    C   C102  0.877296  0.526723  0.614320  -0.206148
    C   C103  0.623033  0.027734  0.384478  -0.221254
    C   C104  0.377296  0.026723  0.614320  -0.206151
    H   H57   0.109915  0.551442  0.386181  0.142224
    H   H58   0.890522  0.550458  0.611885  0.139319
    H   H59   0.609915  0.051442  0.386181  0.142215
    H   H60   0.390522  0.050458  0.611885  0.139321
    C   C105  0.158474  0.527435  0.350489  -0.110768
    C   C106  0.841848  0.526597  0.648418  -0.115840
    C   C107  0.658474  0.027435  0.350489  -0.110923
    C   C108  0.341849  0.026597  0.648418  -0.115834
    H   H61   0.172006  0.550845  0.325939  0.113326
    H   H62   0.828453  0.550160  0.672328  0.111618
    H   H63   0.672006  0.050845  0.325939  0.113360
    H   H64   0.328453  0.050160  0.672328  0.111610
    C   C109  0.176231  0.497348  0.345262  0.008666
    C   C110  0.823925  0.496507  0.654608  0.011639
    C   C111  0.676231  0.997348  0.345262  0.008784
    C   C112  0.323925  0.996507  0.654608  0.011635
    O   O17   0.969909  0.445269  0.033459  -0.670941
    O   O18   0.029013  0.445387  0.966339  -0.686405
    O   O19   0.469909  0.945269  0.033459  -0.670931
    O   O20   0.529013  0.945387  0.966339  -0.686375
    C   C113  0.999473  0.429237  0.999626  0.591174
    C   C114  0.499473  0.929237  0.999626  0.591151
    O   O21   0.969028  0.495859  0.941676  -0.718394
    O   O22   0.031610  0.496524  0.057647  -0.723222
    O   O23   0.469028  0.995859  0.941676  -0.718380
    O   O24   0.531610  0.996524  0.057647  -0.723233
    O   O25   0.028276  0.498213  0.878401  -0.705380
    O   O26   0.972300  0.496114  0.120986  -0.707669
    O   O27   0.528276  0.998213  0.878401  -0.705363
    O   O28   0.472300  0.996114  0.120986  -0.707643
    C   C115  0.997798  0.497024  0.882535  0.799957
    C   C116  0.002803  0.496117  0.116799  0.810189
    C   C117  0.497798  0.997024  0.882535  0.799936
    C   C118  0.502803  0.996117  0.116799  0.810130
    Zn  Zn5   0.961365  0.496683  0.040875  1.320414
    Zn  Zn6   0.039210  0.496499  0.958475  1.321877
    Zn  Zn7   0.461365  0.996683  0.040875  1.320396
    Zn  Zn8   0.539210  0.996499  0.958475  1.321870
    O   O29   0.971503  0.547847  0.031634  -0.703601
    O   O30   0.030727  0.547951  0.967319  -0.688898
    O   O31   0.471503  0.047847  0.031634  -0.703575
    O   O32   0.530727  0.047951  0.967319  -0.688888
    C   C119  0.001104  0.563998  0.999731  0.596571
    C   C120  0.501104  0.063998  0.999731  0.596551
    O   O33   0.500051  0.445396  0.054622  -0.666417
    O   O34   0.500057  0.445268  0.948944  -0.681970
    O   O35   0.000051  0.945396  0.054622  -0.666411
    O   O36   0.000057  0.945268  0.948944  -0.681957
    C   C121  0.500070  0.429239  0.001839  0.623918
    C   C122  0.000070  0.929239  0.001839  0.623897
    O   O37   0.449668  0.496366  0.106641  -0.703472
    O   O38   0.550411  0.497249  0.893810  -0.704792
    O   O39   0.949668  0.996366  0.106641  -0.703475
    O   O40   0.050411  0.997249  0.893810  -0.704792
    O   O41   0.447973  0.497325  0.002844  -0.690729
    O   O42   0.552086  0.496329  0.997594  -0.685420
    O   O43   0.947973  0.997325  0.002844  -0.690720
    O   O44   0.052086  0.996329  0.997594  -0.685405
    C   C123  0.432649  0.496261  0.071294  0.654530
    C   C124  0.567434  0.496139  0.929118  0.651455
    C   C125  0.932649  0.996261  0.071294  0.654506
    C   C126  0.067434  0.996139  0.929118  0.651368
    Zn  Zn9   0.501333  0.496827  0.068260  1.329745
    Zn  Zn10  0.498741  0.496401  0.932310  1.335583
    Zn  Zn11  0.001333  0.996827  0.068260  1.329760
    Zn  Zn12  0.998741  0.996401  0.932310  1.335602
    O   O45   0.500113  0.547987  0.051472  -0.696826
    O   O46   0.499925  0.547860  0.946082  -0.685791
    O   O47   0.000113  0.047987  0.051472  -0.696841
    O   O48   0.999925  0.047860  0.946082  -0.685800
    C   C127  0.499997  0.564054  0.998724  0.624976
    C   C128  0.999997  0.064054  0.998724  0.625001
    C   C129  0.498294  0.619820  0.054714  -0.153650
    C   C130  0.501627  0.619704  0.942388  -0.153552
    C   C131  0.998294  0.119820  0.054714  -0.153760
    C   C132  0.001627  0.119704  0.942388  -0.153587
    H   H65   0.496738  0.606510  0.099583  0.130502
    H   H66   0.503194  0.606299  0.897603  0.130202
    H   H67   0.996738  0.106510  0.099583  0.130530
    H   H68   0.003194  0.106299  0.897603  0.130206
    C   C133  0.498255  0.655292  0.054607  -0.163784
    C   C134  0.501633  0.655179  0.942285  -0.163504
    C   C135  0.998255  0.155292  0.054607  -0.163720
    C   C136  0.001633  0.155179  0.942285  -0.163480
    H   H69   0.496128  0.668725  0.099833  0.114128
    H   H70   0.503743  0.668525  0.896988  0.114433
    H   H71   0.996128  0.168725  0.099833  0.114125
    H   H72   0.003743  0.168525  0.896988  0.114427
    C   C137  0.499940  0.673264  0.998391  0.160719
    C   C138  0.999940  0.173264  0.998391  0.160703
    C   C139  0.499972  0.601794  0.998603  0.108298
    C   C140  0.999972  0.101794  0.998603  0.108352
    C   C141  0.481851  0.729040  0.971744  -0.142018
    C   C142  0.518001  0.729109  0.024774  -0.140778
    C   C143  0.981851  0.229040  0.971744  -0.142002
    C   C144  0.018001  0.229109  0.024774  -0.140805
    H   H73   0.467393  0.715420  0.951181  0.100531
    H   H74   0.532502  0.715544  0.045306  0.101095
    H   H75   0.967393  0.215420  0.951181  0.100530
    H   H76   0.032502  0.215544  0.045306  0.101089
    C   C145  0.982150  0.264534  0.970560  -0.088026
    C   C146  0.017626  0.264600  0.025969  -0.091179
    C   C147  0.482150  0.764534  0.970560  -0.088017
    C   C148  0.517626  0.764600  0.025969  -0.091204
    C   C149  0.999850  0.282580  0.998306  0.060327
    C   C150  0.499850  0.782580  0.998306  0.060336
    C   C151  0.499931  0.711103  0.998293  -0.020850
    C   C152  0.999931  0.211103  0.998293  -0.020848
    C   C153  0.030037  0.338258  0.961319  0.034822
    C   C154  0.969334  0.338065  0.035863  0.036815
    C   C155  0.530037  0.838258  0.961319  0.034798
    C   C156  0.469334  0.838065  0.035863  0.036810
    H   H77   0.053915  0.324536  0.931427  0.046034
    H   H78   0.945535  0.324186  0.065553  0.045574
    H   H79   0.553915  0.824536  0.931427  0.046042
    H   H80   0.445535  0.824186  0.065553  0.045572
    C   C157  0.029997  0.373698  0.961727  -0.299846
    C   C158  0.969180  0.373508  0.036106  -0.303478
    C   C159  0.529997  0.873698  0.961727  -0.299795
    C   C160  0.469180  0.873507  0.036106  -0.303448
    H   H81   0.054077  0.387118  0.932189  0.159799
    H   H82   0.945037  0.386778  0.065930  0.160333
    H   H83   0.554077  0.887118  0.932189  0.159786
    H   H84   0.445037  0.886778  0.065930  0.160321
    C   C161  0.999544  0.391534  0.999115  0.194426
    C   C162  0.499544  0.891534  0.999115  0.194377
    C   C163  0.999738  0.320310  0.998466  0.051406
    C   C164  0.499738  0.820310  0.998466  0.051411
    C   C165  0.503545  0.373584  0.944325  -0.156386
    C   C166  0.496797  0.373647  0.059472  -0.164628
    C   C167  0.003545  0.873584  0.944325  -0.156388
    C   C168  0.996797  0.873647  0.059472  -0.164625
    H   H85   0.506141  0.386926  0.898636  0.115541
    H   H86   0.494128  0.387047  0.105161  0.116850
    H   H87   0.006141  0.886926  0.898636  0.115544
    H   H88   0.994128  0.887047  0.105161  0.116850
    C   C169  0.503686  0.338132  0.944293  -0.139858
    C   C170  0.496913  0.338189  0.059430  -0.133020
    C   C171  0.003686  0.838132  0.944293  -0.139841
    C   C172  0.996913  0.838189  0.059430  -0.133025
    H   H89   0.505715  0.324696  0.899151  0.113962
    H   H90   0.494984  0.324802  0.104538  0.112291
    H   H91   0.005715  0.824696  0.899151  0.113952
    H   H92   0.994984  0.824802  0.104538  0.112294
    C   C173  0.500384  0.320168  0.001825  0.033055
    C   C174  0.000384  0.820168  0.001825  0.033064
    C   C175  0.500128  0.391550  0.001898  0.176310
    C   C176  0.000128  0.891550  0.001898  0.176307
    C   C177  0.478614  0.264278  0.060985  -0.141716
    C   C178  0.522685  0.264468  0.942300  -0.140908
    C   C179  0.978614  0.764278  0.060985  -0.141708
    C   C180  0.022685  0.764468  0.942300  -0.140822
    H   H93   0.460675  0.277610  0.107804  0.109809
    H   H94   0.540516  0.277951  0.895595  0.109726
    H   H95   0.960675  0.777610  0.107804  0.109809
    H   H96   0.040516  0.777951  0.895595  0.109691
    C   C181  0.978682  0.728818  0.060756  -0.153708
    C   C182  0.022884  0.729012  0.942186  -0.154329
    C   C183  0.478682  0.228818  0.060756  -0.153711
    C   C184  0.522884  0.229012  0.942186  -0.154292
    H   H97   0.961572  0.715333  0.108088  0.114286
    H   H98   0.040076  0.715682  0.894705  0.114345
    H   H99   0.461572  0.215333  0.108088  0.114287
    H   H100  0.540076  0.215682  0.894705  0.114336
    C   C185  0.000841  0.710916  0.001373  0.101832
    C   C186  0.500841  0.210916  0.001373  0.101838
    C   C187  0.500569  0.282371  0.001715  0.099085
    C   C188  0.000569  0.782371  0.001715  0.099039
    C   C189  0.031530  0.655191  0.967206  -0.127778
    C   C190  0.970383  0.655057  0.034653  -0.127783
    C   C191  0.531530  0.155191  0.967206  -0.127772
    C   C192  0.470383  0.155057  0.034653  -0.127783
    H   H101  0.055812  0.668660  0.941827  0.109871
    H   H102  0.946051  0.668425  0.060294  0.109360
    H   H103  0.555812  0.168660  0.941827  0.109864
    H   H104  0.446051  0.168425  0.060294  0.109359
    C   C193  0.031613  0.619729  0.966859  -0.171462
    C   C194  0.970428  0.619597  0.034178  -0.170418
    C   C195  0.531613  0.119729  0.966859  -0.171457
    C   C196  0.470428  0.119597  0.034178  -0.170393
    H   H105  0.055949  0.606429  0.940216  0.132756
    H   H106  0.946136  0.606197  0.060483  0.132221
    H   H107  0.555949  0.106429  0.940216  0.132756
    H   H108  0.446136  0.106197  0.060483  0.132214
    C   C197  0.001051  0.601712  0.000280  0.161194
    C   C198  0.501051  0.101712  0.000280  0.161172
    C   C199  0.000922  0.673117  0.001111  0.042425
    C   C200  0.500922  0.173117  0.001111  0.042414
    C   C201  0.939864  0.461681  0.747964  0.338108
    C   C202  0.916127  0.479540  0.736360  -0.123035
    C   C203  0.887894  0.462737  0.740089  -0.167087
    C   C204  0.883712  0.427946  0.753707  -0.119866
    C   C205  0.907399  0.410054  0.765207  -0.171497
    C   C206  0.935187  0.426991  0.763270  -0.190774
    H   H109  0.919006  0.506918  0.726498  0.087939
    H   H110  0.868814  0.476926  0.733066  0.132099
    H   H111  0.861647  0.414799  0.756181  0.108340
    H   H112  0.903956  0.382831  0.776647  0.129896
    H   H113  0.953413  0.412952  0.773391  0.136534
    C   C207  0.058269  0.456736  0.253657  0.328785
    C   C208  0.082523  0.472888  0.266262  -0.126091
    C   C209  0.109487  0.454304  0.264232  -0.159784
    C   C210  0.111922  0.419456  0.251097  -0.125420
    C   C211  0.087742  0.403273  0.238525  -0.160462
    C   C212  0.061203  0.421966  0.238919  -0.199312
    H   H114  0.081049  0.500298  0.275696  0.091331
    H   H115  0.128974  0.467150  0.272094  0.130128
    H   H116  0.133013  0.404914  0.249852  0.108363
    H   H117  0.089809  0.375999  0.227545  0.130205
    H   H118  0.042560  0.409228  0.228115  0.138603
    C   C213  0.439864  0.961681  0.747964  0.338035
    C   C214  0.416127  0.979540  0.736359  -0.122947
    C   C215  0.387894  0.962737  0.740089  -0.167170
    C   C216  0.383712  0.927946  0.753707  -0.119797
    C   C217  0.407399  0.910054  0.765207  -0.171550
    C   C218  0.435187  0.926991  0.763270  -0.190716
    H   H119  0.419006  0.006918  0.726498  0.087924
    H   H120  0.368814  0.976926  0.733066  0.132114
    H   H121  0.361647  0.914799  0.756181  0.108331
    H   H122  0.403956  0.882831  0.776647  0.129902
    H   H123  0.453413  0.912952  0.773391  0.136525
    C   C219  0.558269  0.956736  0.253657  0.328804
    C   C220  0.582523  0.972888  0.266262  -0.126091
    C   C221  0.609487  0.954304  0.264232  -0.159784
    C   C222  0.611922  0.919456  0.251097  -0.125421
    C   C223  0.587742  0.903273  0.238525  -0.160444
    C   C224  0.561203  0.921966  0.238919  -0.199348
    H   H124  0.581049  0.000298  0.275696  0.091332
    H   H125  0.628974  0.967150  0.272094  0.130130
    H   H126  0.633013  0.904914  0.249852  0.108362
    H   H127  0.589809  0.875999  0.227545  0.130201
    H   H128  0.542560  0.909228  0.228114  0.138613
    C   C225  0.964050  0.282302  0.938435  0.255838
    C   C226  0.929349  0.276634  0.963425  -0.163662
    C   C227  0.912087  0.293276  0.933653  -0.142464
    C   C228  0.929504  0.315382  0.878344  -0.138941
    C   C229  0.964271  0.320618  0.852400  -0.086405
    C   C230  0.981571  0.303965  0.882062  -0.193936
    H   H129  0.915463  0.259573  0.007191  0.103873
    H   H130  0.884845  0.289043  0.953823  0.123570
    H   H131  0.915948  0.328460  0.855078  0.118951
    H   H132  0.978005  0.337719  0.808633  0.098747
    H   H133  0.008929  0.307843  0.860755  0.099561
    C   C231  0.035770  0.282420  0.057944  0.255200
    C   C232  0.070502  0.276834  0.032699  -0.161708
    C   C233  0.087821  0.293516  0.062300  -0.147827
    C   C234  0.070433  0.315584  0.117687  -0.125173
    C   C235  0.035639  0.320745  0.143882  -0.096993
    C   C236  0.018280  0.304048  0.114396  -0.190155
    H   H134  0.084365  0.259803  0.988868  0.103158
    H   H135  0.115085  0.289344  0.041933  0.124655
    H   H136  0.084036  0.328688  0.140814  0.111983
    H   H137  0.021934  0.337821  0.187708  0.101698
    H   H138  0.990903  0.307865  0.135894  0.099152
    C   C237  0.464050  0.782302  0.938435  0.255845
    C   C238  0.429349  0.776634  0.963425  -0.163672
    C   C239  0.412087  0.793276  0.933653  -0.142454
    C   C240  0.429504  0.815382  0.878344  -0.138939
    C   C241  0.464271  0.820618  0.852400  -0.086408
    C   C242  0.481571  0.803965  0.882062  -0.193933
    H   H139  0.415463  0.759573  0.007191  0.103876
    H   H140  0.384845  0.789043  0.953823  0.123567
    H   H141  0.415948  0.828460  0.855078  0.118950
    H   H142  0.478005  0.837719  0.808633  0.098751
    H   H143  0.508929  0.807843  0.860755  0.099554
    C   C243  0.535770  0.782420  0.057944  0.255195
    C   C244  0.570502  0.776834  0.032699  -0.161720
    C   C245  0.587821  0.793516  0.062300  -0.147815
    C   C246  0.570433  0.815584  0.117687  -0.125175
    C   C247  0.535639  0.820745  0.143882  -0.096988
    C   C248  0.518280  0.804048  0.114396  -0.190148
    H   H144  0.584365  0.759803  0.988868  0.103160
    H   H145  0.615085  0.789344  0.041933  0.124651
    H   H146  0.584036  0.828688  0.140814  0.111983
    H   H147  0.521934  0.837821  0.187708  0.101697
    H   H148  0.490903  0.807865  0.135894  0.099151
    C   C249  0.389999  0.461743  0.017951  0.195572
    C   C250  0.382647  0.471356  0.965645  -0.147206
    C   C251  0.396105  0.452980  0.904180  -0.155254
    C   C252  0.416544  0.424656  0.895195  -0.122591
    C   C253  0.423395  0.414597  0.947828  -0.113028
    C   C254  0.410083  0.433023  0.009197  -0.108245
    H   H149  0.366634  0.493548  0.972399  0.110862
    H   H150  0.390552  0.460741  0.863069  0.118938
    H   H151  0.426999  0.410193  0.847077  0.105126
    H   H152  0.439047  0.392135  0.941124  0.109651
    H   H153  0.415257  0.424777  0.050561  0.067742
    C   C255  0.610192  0.461461  0.982275  0.193147
    C   C256  0.617333  0.471244  0.034776  -0.147044
    C   C257  0.603988  0.452795  0.096142  -0.156655
    C   C258  0.583896  0.424222  0.104803  -0.118702
    C   C259  0.577273  0.413995  0.051957  -0.119449
    C   C260  0.590447  0.432511  0.990710  -0.102776
    H   H154  0.633101  0.493614  0.028232  0.109928
    H   H155  0.609372  0.460684  0.137412  0.118638
    H   H156  0.573544  0.409691  0.152828  0.104900
    H   H157  0.561917  0.391330  0.058395  0.111339
    H   H158  0.585444  0.424159  0.949180  0.066230
    C   C261  0.890000  0.961743  0.017951  0.195610
    C   C262  0.882647  0.971356  0.965645  -0.147259
    C   C263  0.896105  0.952980  0.904180  -0.155229
    C   C264  0.916544  0.924656  0.895195  -0.122608
    C   C265  0.923395  0.914597  0.947828  -0.113009
    C   C266  0.910083  0.933023  0.009197  -0.108247
    H   H159  0.866634  0.993548  0.972399  0.110880
    H   H160  0.890552  0.960741  0.863069  0.118935
    H   H161  0.926999  0.910193  0.847077  0.105129
    H   H162  0.939047  0.892136  0.941124  0.109644
    H   H163  0.915257  0.924777  0.050561  0.067738
    C   C267  0.110192  0.961461  0.982275  0.193151
    C   C268  0.117333  0.971244  0.034776  -0.147045
    C   C269  0.103988  0.952795  0.096142  -0.156661
    C   C270  0.083896  0.924222  0.104803  -0.118691
    C   C271  0.077273  0.913995  0.051957  -0.119468
    C   C272  0.090447  0.932511  0.990710  -0.102758
    H   H164  0.133101  0.993614  0.028232  0.109931
    H   H165  0.109372  0.960684  0.137412  0.118638
    H   H166  0.073544  0.909691  0.152828  0.104898
    H   H167  0.061917  0.891330  0.058395  0.111345
    H   H168  0.085444  0.924159  0.949180  0.066230
