# Generated by REPEAT Assigner based on pymatgen
data_DB0-m3_o1_o28_f0_nbo.sym.119_sqe
_audit_creation_date              2022-05-24
_audit_creation_method            REPEAT_Assigner
_cell_length_a                    21.813235
_cell_length_b                    21.813242
_cell_length_c                    46.940917
_cell_angle_alpha                 90.000000
_cell_angle_beta                  90.000000
_cell_angle_gamma                 90.000000
_cell_volume                      22335.303506
_symmetry_space_group_name_H-M    P1
_symmetry_Int_Tables_number       1
loop_
    _symmetry_equiv_pos_site_id
    _symmetry_equiv_pos_as_xyz
    1  x,y,z
loop_
    _atom_site_type_symbol
    _atom_site_label
    _atom_site_fract_x
    _atom_site_fract_y
    _atom_site_fract_z
    _atom_type_partial_charge
    O   O1    0.000693  0.091639  0.025186  -0.685226
    O   O2    0.908558  0.003021  0.025151  -0.682259
    O   O3    0.997137  0.908858  0.024000  -0.696149
    O   O4    0.091345  0.999511  0.024038  -0.696723
    O   O5    0.002982  0.908548  0.974844  -0.682508
    O   O6    0.908866  0.997177  0.975994  -0.696045
    O   O7    0.999569  0.091336  0.975956  -0.696919
    O   O8    0.091649  0.000635  0.974809  -0.685207
    O   O9    0.500122  0.591561  0.525206  -0.682691
    O   O10   0.408392  0.502567  0.525154  -0.684757
    O   O11   0.497362  0.408763  0.524047  -0.697864
    O   O12   0.591192  0.499839  0.524101  -0.695417
    O   O13   0.503325  0.408422  0.474891  -0.685129
    O   O14   0.408813  0.496637  0.475997  -0.697801
    O   O15   0.499133  0.591194  0.475979  -0.695873
    O   O16   0.591584  0.500861  0.474874  -0.683295
    C   C1    0.000141  0.119956  0.000541  0.682098
    C   C2    0.880237  0.000019  0.000542  0.673418
    C   C3    0.999963  0.880227  0.999452  0.673841
    C   C4    0.119965  0.000066  0.999454  0.682081
    C   C5    0.499498  0.619853  0.500555  0.674789
    C   C6    0.380135  0.499412  0.500536  0.679249
    C   C7    0.500382  0.380124  0.499505  0.681761
    C   C8    0.619864  0.500452  0.499530  0.675813
    Zn  Zn1   0.000134  0.000005  0.032299  1.306492
    Zn  Zn2   0.000015  0.000125  0.967696  1.306631
    Zn  Zn3   0.499967  0.499930  0.532331  1.306914
    Zn  Zn4   0.499964  0.499980  0.467731  1.307158
    C   C9    0.218456  0.039169  0.981645  -0.169544
    C   C10   0.961691  0.218483  0.982447  -0.168379
    C   C11   0.781972  0.961014  0.982383  -0.167513
    C   C12   0.038174  0.781400  0.981553  -0.175871
    C   C13   0.218490  0.961605  0.017551  -0.168500
    C   C14   0.960950  0.781963  0.017613  -0.166668
    C   C15   0.781411  0.038255  0.018436  -0.176364
    C   C16   0.039271  0.218445  0.018344  -0.169722
    C   C17   0.718392  0.538509  0.481241  -0.173495
    C   C18   0.461452  0.718118  0.481954  -0.169641
    C   C19   0.281884  0.459360  0.482844  -0.159952
    C   C20   0.540358  0.281592  0.482138  -0.165550
    C   C21   0.718396  0.463136  0.518140  -0.170481
    C   C22   0.460991  0.281608  0.517181  -0.160481
    C   C23   0.281338  0.538709  0.517895  -0.172516
    C   C24   0.536809  0.718648  0.518858  -0.178284
    H   H1    0.193854  0.069855  0.967638  0.132837
    H   H2    0.930817  0.193913  0.968516  0.132397
    H   H3    0.806736  0.930434  0.968387  0.133398
    H   H4    0.068951  0.805719  0.967483  0.135671
    H   H5    0.193918  0.930741  0.031485  0.132438
    H   H6    0.930379  0.806728  0.031613  0.133322
    H   H7    0.805732  0.069036  0.032504  0.135796
    H   H8    0.069960  0.193841  0.032350  0.132928
    H   H9    0.693827  0.568357  0.466835  0.133738
    H   H10   0.431610  0.693346  0.467621  0.132277
    H   H11   0.306669  0.427964  0.469253  0.132059
    H   H12   0.571774  0.306155  0.468469  0.133749
    H   H13   0.693837  0.433107  0.532467  0.132270
    H   H14   0.429425  0.306181  0.530771  0.131764
    H   H15   0.305688  0.570281  0.531569  0.135179
    H   H16   0.566832  0.694296  0.533264  0.134360
    C   C25   0.281614  0.040672  0.982350  -0.177821
    C   C26   0.960731  0.281664  0.982929  -0.177129
    C   C27   0.718805  0.959532  0.982870  -0.179978
    C   C28   0.039106  0.718226  0.982218  -0.173377
    C   C29   0.281672  0.960645  0.017070  -0.176976
    C   C30   0.959469  0.718795  0.017127  -0.180996
    C   C31   0.718235  0.039186  0.017772  -0.172933
    C   C32   0.040774  0.281604  0.017641  -0.177306
    C   C33   0.781556  0.539973  0.481903  -0.176214
    C   C34   0.459974  0.781289  0.482427  -0.178042
    C   C35   0.218708  0.457965  0.483332  -0.189375
    C   C36   0.541742  0.218430  0.482839  -0.182261
    C   C37   0.781576  0.462096  0.517661  -0.175891
    C   C38   0.459998  0.218428  0.516683  -0.183656
    C   C39   0.218171  0.539691  0.517184  -0.174289
    C   C40   0.537836  0.781818  0.518192  -0.169318
    H   H17   0.306170  0.071943  0.968607  0.142110
    H   H18   0.929669  0.306263  0.969100  0.141369
    H   H19   0.694496  0.928404  0.968964  0.143469
    H   H20   0.070016  0.693466  0.968378  0.142342
    H   H21   0.306270  0.929592  0.030903  0.141339
    H   H22   0.928351  0.694486  0.031039  0.143615
    H   H23   0.693475  0.070098  0.031611  0.142297
    H   H24   0.072048  0.306159  0.031383  0.141828
    H   H25   0.806106  0.570354  0.467733  0.143541
    H   H26   0.429584  0.805638  0.468186  0.143702
    H   H27   0.194363  0.426047  0.469831  0.145009
    H   H28   0.573663  0.193873  0.469423  0.142453
    H   H29   0.806139  0.431855  0.531891  0.143040
    H   H30   0.428224  0.193873  0.530175  0.142912
    H   H31   0.193405  0.571455  0.530598  0.140458
    H   H32   0.568056  0.806583  0.532355  0.141465
    C   C41   0.313300  0.000802  0.999769  0.118231
    C   C42   0.000894  0.313291  0.000227  0.118195
    C   C43   0.686845  0.999219  0.000277  0.116730
    C   C44   0.999151  0.686835  0.999718  0.117823
    C   C45   0.813232  0.501136  0.499826  0.113730
    C   C46   0.498794  0.813220  0.500260  0.111784
    C   C47   0.186773  0.498731  0.500201  0.121451
    C   C48   0.500970  0.186762  0.499813  0.123988
    C   C49   0.186820  0.000253  0.999542  0.129782
    C   C50   0.000344  0.186810  0.000452  0.129808
    C   C51   0.813363  0.999772  0.000452  0.134489
    C   C52   0.999701  0.813353  0.999541  0.133754
    C   C53   0.686730  0.500710  0.499642  0.136443
    C   C54   0.499247  0.686719  0.500453  0.138819
    C   C55   0.313272  0.499142  0.500425  0.128162
    C   C56   0.500576  0.313261  0.499608  0.122762
    O   O17   0.497845  0.054353  0.042622  -0.689598
    O   O18   0.945708  0.501053  0.042589  -0.690402
    O   O19   0.501898  0.948632  0.042506  -0.704860
    O   O20   0.051466  0.499419  0.042449  -0.705849
    O   O21   0.501106  0.945654  0.957426  -0.690115
    O   O22   0.948601  0.501845  0.957509  -0.705213
    O   O23   0.499384  0.051415  0.957545  -0.705654
    O   O24   0.054328  0.497876  0.957372  -0.689981
    O   O25   0.997896  0.551318  0.542452  -0.704764
    O   O26   0.448484  0.998179  0.542499  -0.704809
    O   O27   0.001688  0.445585  0.542583  -0.688543
    O   O28   0.554210  0.002082  0.542628  -0.690377
    O   O29   0.000936  0.448517  0.457503  -0.705646
    O   O30   0.445526  0.999060  0.457419  -0.690227
    O   O31   0.999482  0.554276  0.457375  -0.690513
    O   O32   0.551289  0.000631  0.457549  -0.706210
    C   C57   0.499870  0.001442  0.055883  0.668585
    C   C58   0.998653  0.500265  0.055843  0.673188
    C   C59   0.500272  0.998588  0.944163  0.672057
    C   C60   0.001402  0.499859  0.944123  0.669698
    C   C61   0.999678  0.498506  0.555835  0.667966
    C   C62   0.501290  0.000115  0.555882  0.670054
    C   C63   0.000290  0.501341  0.444115  0.673385
    C   C64   0.498466  0.999828  0.444161  0.672644
    O   O33   0.408397  0.054163  0.000304  -0.688451
    O   O34   0.948323  0.408852  0.000459  -0.702759
    O   O35   0.591719  0.945903  0.999239  -0.686307
    O   O36   0.051684  0.591238  0.998983  -0.701816
    O   O37   0.408891  0.948275  0.999556  -0.702880
    O   O38   0.945878  0.591678  0.000776  -0.686092
    O   O39   0.591218  0.051709  0.001010  -0.702089
    O   O40   0.054212  0.408418  0.999691  -0.688555
    O   O41   0.908473  0.554250  0.499000  -0.687692
    O   O42   0.445607  0.908410  0.499206  -0.687591
    O   O43   0.091535  0.445562  0.500450  -0.688002
    O   O44   0.554182  0.091569  0.500334  -0.687546
    O   O45   0.908713  0.448437  0.500790  -0.702111
    O   O46   0.448299  0.091234  0.499563  -0.703021
    O   O47   0.091289  0.551447  0.499686  -0.702728
    O   O48   0.551418  0.908751  0.501001  -0.702272
    C   C65   0.380159  0.001103  0.999887  0.680238
    C   C66   0.001168  0.380150  0.000118  0.680211
    C   C67   0.619967  0.998919  0.000181  0.675835
    C   C68   0.998880  0.619956  0.999822  0.674922
    C   C69   0.880101  0.501295  0.499892  0.679021
    C   C70   0.498584  0.880088  0.500155  0.679295
    C   C71   0.119903  0.498556  0.500088  0.679405
    C   C72   0.501169  0.119893  0.499911  0.677515
    Zn  Zn5   0.500028  0.069463  0.999971  1.327745
    Zn  Zn6   0.930573  0.500061  0.999930  1.327006
    Zn  Zn7   0.500108  0.930562  0.000088  1.327078
    Zn  Zn8   0.069477  0.500056  0.000019  1.327729
    Zn  Zn9   0.000111  0.569375  0.500037  1.326969
    Zn  Zn10  0.430429  0.000047  0.500080  1.327514
    Zn  Zn11  0.999871  0.430474  0.499929  1.326832
    Zn  Zn12  0.569325  0.999912  0.499977  1.327789
    C   C73   0.036462  0.459566  0.809489  0.435905
    C   C74   0.539569  0.036039  0.809612  0.435513
    C   C75   0.964788  0.539516  0.809518  0.432188
    C   C76   0.461101  0.962733  0.809505  0.438316
    C   C77   0.035759  0.540016  0.190385  0.432098
    C   C78   0.539941  0.965433  0.190495  0.432853
    C   C79   0.963404  0.460679  0.190508  0.439216
    C   C80   0.459148  0.036149  0.190508  0.433396
    C   C81   0.535746  0.960960  0.309545  0.436999
    C   C82   0.039990  0.536725  0.309446  0.434167
    C   C83   0.462457  0.039443  0.309569  0.439623
    C   C84   0.960573  0.464459  0.309575  0.429655
    C   C85   0.535941  0.040353  0.690557  0.434592
    C   C86   0.039855  0.463219  0.690432  0.435929
    C   C87   0.465210  0.959574  0.690446  0.431919
    C   C88   0.959981  0.534980  0.690476  0.437339
    N   N1    0.000705  0.499588  0.823479  -0.180047
    N   N2    0.500337  0.999290  0.823522  -0.181198
    N   N3    0.999471  0.500348  0.176483  -0.180492
    N   N4    0.499593  0.000858  0.176527  -0.177646
    N   N5    0.499041  0.000125  0.323522  -0.182575
    N   N6    0.000328  0.500656  0.323475  -0.175858
    N   N7    0.500639  0.999996  0.676527  -0.178525
    N   N8    0.999828  0.499039  0.676479  -0.181289
    C   C89   0.962536  0.539288  0.779784  -0.072602
    C   C90   0.461029  0.961089  0.779759  -0.077873
    C   C91   0.038381  0.459597  0.779750  -0.073602
    C   C92   0.539644  0.038084  0.779873  -0.074887
    C   C93   0.961747  0.460629  0.220253  -0.077515
    C   C94   0.459191  0.038137  0.220245  -0.071597
    C   C95   0.037877  0.540074  0.220123  -0.072786
    C   C96   0.539697  0.963168  0.220229  -0.071585
    C   C97   0.460726  0.039667  0.279826  -0.080496
    C   C98   0.960412  0.462441  0.279837  -0.070714
    C   C99   0.537715  0.961045  0.279805  -0.076394
    C   C100  0.039928  0.538496  0.279703  -0.074758
    C   C101  0.462967  0.959630  0.720179  -0.070166
    C   C102  0.960289  0.537176  0.720211  -0.075661
    C   C103  0.537941  0.040132  0.720295  -0.072100
    C   C104  0.039913  0.461260  0.720171  -0.074627
    C   C105  0.000368  0.499386  0.764834  0.062975
    C   C106  0.500365  0.999661  0.764884  0.065501
    C   C107  0.999903  0.500379  0.235122  0.062306
    C   C108  0.499388  0.000578  0.235172  0.058180
    C   C109  0.499276  0.000429  0.264884  0.066976
    C   C110  0.000082  0.500437  0.264836  0.061827
    C   C111  0.500423  0.999809  0.735172  0.058194
    C   C112  0.000189  0.499273  0.735123  0.062344
    C   C113  0.923442  0.577958  0.764642  -0.097984
    C   C114  0.422641  0.921860  0.764531  -0.098694
    C   C115  0.077318  0.420838  0.764571  -0.100209
    C   C116  0.577971  0.077581  0.764763  -0.101366
    C   C117  0.922885  0.421881  0.235483  -0.097487
    C   C118  0.420066  0.076730  0.235407  -0.099119
    C   C119  0.077035  0.578767  0.235217  -0.098431
    C   C120  0.578726  0.924442  0.235372  -0.100302
    C   C121  0.421429  0.078108  0.264667  -0.097121
    C   C122  0.921630  0.423371  0.264743  -0.099109
    C   C123  0.577144  0.922773  0.264626  -0.098659
    C   C124  0.078645  0.577390  0.264473  -0.098613
    C   C125  0.424218  0.920537  0.735273  -0.099959
    C   C126  0.921706  0.576288  0.735390  -0.100595
    C   C127  0.576508  0.079195  0.735507  -0.097938
    C   C128  0.078703  0.422286  0.735313  -0.099721
    O   O49   0.068786  0.419128  0.824971  -0.462401
    O   O50   0.579086  0.069290  0.825182  -0.464132
    O   O51   0.932618  0.580040  0.825022  -0.461251
    O   O52   0.421627  0.929226  0.824979  -0.464936
    O   O53   0.068440  0.579995  0.174808  -0.462393
    O   O54   0.580909  0.933811  0.175001  -0.461510
    O   O55   0.930439  0.420736  0.175041  -0.465252
    O   O56   0.418271  0.067900  0.175018  -0.461443
    O   O57   0.569051  0.921373  0.325052  -0.464552
    O   O58   0.080027  0.569588  0.324907  -0.463382
    O   O59   0.429033  0.078875  0.325106  -0.464760
    O   O60   0.920594  0.431788  0.325157  -0.461448
    O   O61   0.567733  0.081282  0.675115  -0.462071
    O   O62   0.080201  0.430863  0.674913  -0.462168
    O   O63   0.433601  0.918681  0.674902  -0.460795
    O   O64   0.919456  0.567224  0.675007  -0.463004
    C   C129  0.488969  0.947460  0.131223  -0.220689
    C   C130  0.052377  0.487801  0.131175  -0.218751
    C   C131  0.510479  0.054684  0.131345  -0.217686
    C   C132  0.945928  0.512857  0.131329  -0.213572
    C   C133  0.487238  0.052106  0.868823  -0.216140
    C   C134  0.054458  0.511030  0.868653  -0.217727
    C   C135  0.513411  0.945925  0.868691  -0.213517
    C   C136  0.947463  0.488401  0.868798  -0.220761
    C   C137  0.988230  0.445388  0.631286  -0.216423
    C   C138  0.554490  0.989276  0.631344  -0.218817
    C   C139  0.011005  0.552351  0.631178  -0.220426
    C   C140  0.447278  0.010845  0.631224  -0.220007
    C   C141  0.987944  0.554167  0.368640  -0.215424
    C   C142  0.551947  0.012979  0.368818  -0.216425
    C   C143  0.012850  0.447683  0.368772  -0.215144
    C   C144  0.445751  0.986867  0.368695  -0.214944
    H   H33   0.479796  0.905276  0.142535  0.140124
    H   H34   0.094254  0.477306  0.142485  0.139334
    H   H35   0.519594  0.096758  0.142755  0.138888
    H   H36   0.904207  0.523360  0.142760  0.137098
    H   H37   0.476293  0.093859  0.857507  0.138501
    H   H38   0.096424  0.520595  0.857238  0.138849
    H   H39   0.524361  0.904305  0.857271  0.137516
    H   H40   0.905366  0.478779  0.857497  0.140510
    H   H41   0.978617  0.403414  0.642688  0.138871
    H   H42   0.596552  0.980094  0.642752  0.138941
    H   H43   0.020692  0.594415  0.642494  0.140290
    H   H44   0.405092  0.019993  0.642538  0.140140
    H   H45   0.977491  0.595914  0.357218  0.137770
    H   H46   0.593691  0.023945  0.357500  0.138386
    H   H47   0.023277  0.405801  0.357453  0.138340
    H   H48   0.404108  0.975983  0.357279  0.137823
    C   C145  0.489536  0.947451  0.101863  -0.055776
    C   C146  0.052339  0.488233  0.101816  -0.059920
    C   C147  0.510038  0.054979  0.101986  -0.056614
    C   C148  0.945567  0.512395  0.101969  -0.061233
    C   C149  0.487696  0.052105  0.898182  -0.062590
    C   C150  0.054790  0.510565  0.898013  -0.056956
    C   C151  0.512933  0.945584  0.898052  -0.063441
    C   C152  0.947474  0.488988  0.898157  -0.057588
    C   C153  0.988712  0.445098  0.601927  -0.060308
    C   C154  0.554801  0.989810  0.601985  -0.054108
    C   C155  0.010437  0.552384  0.601819  -0.057564
    C   C156  0.447285  0.010375  0.601864  -0.056165
    C   C157  0.988390  0.554497  0.397999  -0.059300
    C   C158  0.551977  0.012435  0.398178  -0.062347
    C   C159  0.012400  0.447691  0.398132  -0.061721
    C   C160  0.445440  0.987263  0.398055  -0.063159
    H   H49   0.480917  0.904997  0.090704  0.121383
    H   H50   0.094470  0.478164  0.090655  0.123639
    H   H51   0.518702  0.097542  0.090923  0.121604
    H   H52   0.903287  0.522442  0.090926  0.123669
    H   H53   0.477191  0.094134  0.909339  0.124182
    H   H54   0.097266  0.519667  0.909071  0.121809
    H   H55   0.523420  0.903426  0.909108  0.124234
    H   H56   0.905127  0.479930  0.909330  0.122119
    H   H57   0.979579  0.402645  0.590854  0.122354
    H   H58   0.597364  0.981152  0.590922  0.121076
    H   H59   0.019580  0.594731  0.590661  0.122030
    H   H60   0.404840  0.019046  0.590706  0.121402
    H   H61   0.978377  0.596777  0.409048  0.123507
    H   H62   0.594020  0.022890  0.409334  0.124329
    H   H63   0.022382  0.405532  0.409288  0.123995
    H   H64   0.403285  0.976776  0.409113  0.124287
    C   C161  0.499814  0.001289  0.087088  0.014260
    C   C162  0.998853  0.500306  0.087053  0.012500
    C   C163  0.500309  0.998759  0.912955  0.015064
    C   C164  0.001219  0.499803  0.912920  0.014447
    C   C165  0.999575  0.498671  0.587038  0.016574
    C   C166  0.501123  0.000108  0.587088  0.012408
    C   C167  0.000383  0.501177  0.412905  0.011761
    C   C168  0.498634  0.999825  0.412954  0.014698
    C   C169  0.499688  0.001000  0.146108  0.276656
    C   C170  0.999255  0.500335  0.146070  0.281074
    C   C171  0.500328  0.999103  0.853938  0.281115
    C   C172  0.000875  0.499681  0.853899  0.278422
    C   C173  0.999664  0.498929  0.646058  0.278101
    C   C174  0.500804  0.000045  0.646108  0.276557
    C   C175  0.000388  0.500839  0.353888  0.277982
    C   C176  0.498916  0.999974  0.353937  0.282450
    C   C177  0.880768  0.620686  0.778383  0.806483
    O   O65   0.898178  0.671594  0.785472  -0.527723
    N   N9    0.818507  0.603195  0.782950  -0.761400
    H   H65   0.796891  0.639264  0.793565  0.347217
    H   H66   0.818548  0.565120  0.796423  0.288575
    C   C178  0.379899  0.879039  0.778167  0.809719
    O   O66   0.329310  0.896605  0.785653  -0.528637
    N   N10   0.397002  0.816498  0.782193  -0.756212
    H   H67   0.361014  0.794807  0.792834  0.344705
    H   H68   0.435386  0.815801  0.795471  0.287490
    C   C179  0.120216  0.378274  0.778272  0.808016
    O   O67   0.102981  0.327371  0.785460  -0.528796
    N   N11   0.182487  0.395916  0.782681  -0.760736
    H   H69   0.204282  0.359952  0.793293  0.347007
    H   H70   0.182507  0.434068  0.796107  0.288382
    C   C180  0.620393  0.120521  0.778532  0.811456
    O   O68   0.671141  0.103248  0.785933  -0.529194
    N   N12   0.602793  0.182856  0.782780  -0.758282
    H   H71   0.638627  0.204668  0.793480  0.345215
    H   H72   0.564432  0.183035  0.796076  0.287895
    C   C181  0.880154  0.379057  0.221841  0.808402
    O   O69   0.897788  0.328457  0.214406  -0.528179
    N   N13   0.817611  0.396093  0.217760  -0.759560
    H   H73   0.795986  0.360051  0.207129  0.346091
    H   H74   0.816920  0.434433  0.204454  0.288255
    C   C182  0.377404  0.119490  0.221680  0.803782
    O   O70   0.326510  0.102143  0.214537  -0.527425
    N   N14   0.394940  0.181766  0.217198  -0.764204
    H   H75   0.358917  0.203456  0.206582  0.348469
    H   H76   0.433061  0.181784  0.203753  0.289760
    C   C183  0.119842  0.621286  0.221422  0.807228
    O   O71   0.102465  0.672034  0.214074  -0.528424
    N   N15   0.182179  0.603781  0.217096  -0.760995
    H   H77   0.203890  0.639674  0.206395  0.346789
    H   H78   0.182345  0.565458  0.203776  0.288448
    C   C184  0.621535  0.881861  0.221623  0.808512
    O   O72   0.672447  0.899344  0.214579  -0.528219
    N   N16   0.604118  0.819599  0.217003  -0.766293
    H   H79   0.640238  0.798052  0.206395  0.348600
    H   H80   0.566081  0.819641  0.203507  0.289894
    C   C185  0.378513  0.120641  0.278379  0.811487
    O   O73   0.395924  0.171268  0.285888  -0.529792
    N   N17   0.316053  0.103291  0.282450  -0.756669
    H   H81   0.294276  0.139160  0.293140  0.344771
    H   H82   0.315554  0.064856  0.295698  0.287027
    C   C186  0.879155  0.380522  0.278538  0.804329
    O   O74   0.828424  0.397872  0.285926  -0.527321
    N   N18   0.896681  0.318176  0.282817  -0.761150
    H   H83   0.860820  0.296431  0.293526  0.347190
    H   H84   0.935041  0.317979  0.296114  0.288837
    C   C187  0.619992  0.880142  0.278319  0.808793
    O   O75   0.602572  0.829419  0.285683  -0.528224
    N   N19   0.682401  0.897510  0.282536  -0.758104
    H   H85   0.704129  0.861553  0.293183  0.345566
    H   H86   0.682756  0.935809  0.295871  0.288004
    C   C188  0.121543  0.620045  0.278116  0.807500
    O   O76   0.172164  0.602356  0.285493  -0.528621
    N   N20   0.104554  0.682579  0.282267  -0.759906
    H   H87   0.140648  0.704144  0.292885  0.346467
    H   H88   0.066266  0.683235  0.295606  0.288467
    C   C189  0.381448  0.878002  0.721467  0.807189
    O   O77   0.398693  0.827043  0.714371  -0.528283
    N   N21   0.319273  0.895740  0.716856  -0.766375
    H   H89   0.297563  0.859778  0.706204  0.348842
    H   H90   0.319506  0.933847  0.703403  0.289877
    C   C190  0.879017  0.619062  0.721689  0.808777
    O   O78   0.828059  0.601756  0.714624  -0.527919
    N   N22   0.896608  0.681299  0.717134  -0.762062
    H   H91   0.860550  0.702997  0.706548  0.347120
    H   H92   0.934647  0.681213  0.703639  0.288834
    C   C191  0.619076  0.122134  0.721836  0.805686
    O   O79   0.601480  0.172967  0.714732  -0.527896
    N   N23   0.681448  0.104935  0.717360  -0.763978
    H   H93   0.702971  0.141114  0.706785  0.348002
    H   H94   0.681680  0.066874  0.703880  0.289596
    C   C192  0.121278  0.379456  0.721574  0.809868
    O   O80   0.172126  0.396770  0.714344  -0.529186
    N   N24   0.103713  0.317161  0.717174  -0.760250
    H   H95   0.139669  0.295423  0.706530  0.346365
    H   H96   0.065509  0.317090  0.703780  0.288041
