# Generated by REPEAT Assigner based on pymatgen
data_DB0-m3_o7_o15_f0_nbo.sym.83
_audit_creation_date              2022-05-24
_audit_creation_method            REPEAT_Assigner
_cell_length_a                    35.738459
_cell_length_b                    35.738492
_cell_length_c                    22.014565
_cell_angle_alpha                 90.000000
_cell_angle_beta                  90.000000
_cell_angle_gamma                 90.000000
_cell_volume                      28117.852215
_symmetry_space_group_name_H-M    P1
_symmetry_Int_Tables_number       1
loop_
    _symmetry_equiv_pos_site_id
    _symmetry_equiv_pos_as_xyz
    1  x,y,z
loop_
    _atom_site_type_symbol
    _atom_site_label
    _atom_site_fract_x
    _atom_site_fract_y
    _atom_site_fract_z
    _atom_type_partial_charge
    C   C1    0.073427  0.500699  0.499602  0.289774
    C   C2    0.500158  0.999773  0.380760  0.686864
    C   C3    0.975251  0.865844  0.037306  0.025510
    C   C4    0.134620  0.025301  0.962497  0.024022
    C   C5    0.975490  0.134594  0.962473  0.021783
    C   C6    0.866032  0.975543  0.963226  0.015468
    C   C7    0.025021  0.865881  0.963250  0.026947
    C   C8    0.385327  0.499788  0.499442  0.067390
    C   C9    0.499734  0.614222  0.500398  0.057020
    C   C10   0.614149  0.499635  0.500568  0.081710
    C   C11   0.499895  0.385400  0.499568  0.071471
    C   C12   0.885882  0.000279  0.000594  0.079523
    C   C13   0.999676  0.500044  0.619242  0.685722
    C   C14   0.000240  0.114616  0.999605  0.075445
    C   C15   0.114702  0.000332  0.999384  0.065510
    C   C16   0.000184  0.885795  0.000404  0.058276
    C   C17   0.307627  0.499897  0.499525  0.315892
    C   C18   0.499566  0.691922  0.500245  0.315880
    C   C19   0.691814  0.499467  0.500379  0.317375
    C   C20   0.500009  0.307735  0.499825  0.313088
    C   C21   0.808217  0.000180  0.000530  0.316179
    C   C22   0.000390  0.192281  0.999776  0.314110
    C   C23   0.192402  0.000489  0.999547  0.317350
    C   C24   0.499451  0.999756  0.619492  0.688300
    C   C25   0.000075  0.808096  0.000136  0.316541
    C   C26   0.267525  0.500001  0.499510  -0.063389
    C   C27   0.499436  0.732024  0.500220  -0.065380
    C   C28   0.731916  0.499348  0.500252  -0.064502
    C   C29   0.500103  0.267633  0.499992  -0.060575
    C   C30   0.768115  0.000076  0.000555  -0.064078
    C   C31   0.000515  0.232383  0.999802  -0.063256
    C   C32   0.232504  0.000607  0.999672  -0.064256
    C   C33   0.999978  0.767994  0.999962  -0.063066
    C   C34   0.233808  0.500116  0.499483  -0.102731
    C   C35   0.500491  0.000710  0.880762  0.687973
    C   C36   0.499310  0.765741  0.500215  -0.099177
    C   C37   0.765633  0.499222  0.500145  -0.101070
    C   C38   0.500219  0.233916  0.500133  -0.104787
    C   C39   0.734398  0.999954  0.000579  -0.101702
    C   C40   0.000638  0.266100  0.999803  -0.100974
    C   C41   0.266221  0.000733  0.999786  -0.100449
    C   C42   0.999852  0.734277  0.999825  -0.102500
    C   C43   0.174317  0.530630  0.522697  -0.031366
    C   C44   0.528997  0.825476  0.524726  -0.033728
    C   C45   0.825154  0.468978  0.524220  -0.036046
    C   C46   0.999779  0.500165  0.880514  0.685680
    C   C47   0.470288  0.174186  0.523855  -0.033918
    C   C48   0.825359  0.528891  0.475489  -0.033662
    C   C49   0.469099  0.825253  0.475946  -0.032718
    C   C50   0.174066  0.470181  0.475882  -0.033881
    C   C51   0.530774  0.174415  0.477164  -0.031555
    C   C52   0.674631  0.029580  0.025155  -0.034687
    C   C53   0.031182  0.325606  0.022864  -0.030053
    C   C54   0.325936  0.970741  0.023337  -0.032356
    C   C55   0.969566  0.674786  0.023886  -0.033270
    C   C56   0.325738  0.031296  0.976886  -0.032927
    C   C57   0.500263  0.999916  0.119490  0.683701
    C   C58   0.970616  0.325825  0.976454  -0.033132
    C   C59   0.674918  0.969697  0.976323  -0.034156
    C   C60   0.029462  0.674523  0.975100  -0.033547
    C   C61   0.135558  0.531360  0.521245  -0.284427
    C   C62   0.529347  0.864236  0.523462  -0.281362
    C   C63   0.863912  0.468273  0.522704  -0.278414
    C   C64   0.469974  0.135420  0.522747  -0.281276
    C   C65   0.864121  0.529223  0.476662  -0.281234
    C   C66   0.468411  0.864013  0.477369  -0.280687
    C   C67   0.135302  0.469850  0.477089  -0.283826
    C   C68   0.000562  0.500347  0.119241  0.689312
    C   C69   0.531520  0.135658  0.478721  -0.281885
    C   C70   0.635869  0.029884  0.023896  -0.282585
    C   C71   0.031883  0.364367  0.021421  -0.282196
    C   C72   0.364700  0.970401  0.022210  -0.279690
    C   C73   0.968815  0.636031  0.022360  -0.281430
    C   C74   0.364497  0.032014  0.978429  -0.281835
    C   C75   0.970257  0.364587  0.977684  -0.279847
    C   C76   0.636161  0.968963  0.977752  -0.280645
    C   C77   0.029750  0.635759  0.976262  -0.282773
    C   C78   0.115244  0.500652  0.499289  0.300422
    C   C79   0.948738  0.544256  0.311439  -0.212210
    C   C80   0.498834  0.884231  0.500317  0.297369
    C   C81   0.884123  0.498699  0.499748  0.294829
    C   C82   0.500798  0.115352  0.500648  0.296543
    C   C83   0.615910  0.999369  0.000684  0.299031
    C   C84   0.001118  0.384666  0.999634  0.296326
    C   C85   0.384786  0.001260  0.000276  0.296879
    C   C86   0.999225  0.615789  0.999414  0.298402
    C   C87   0.193565  0.500286  0.499426  0.141346
    C   C88   0.499150  0.805984  0.500241  0.137575
    C   C89   0.805876  0.499048  0.500005  0.140419
    C   C90   0.541850  0.053483  0.311695  -0.192756
    C   C91   0.500401  0.193673  0.500312  0.141584
    C   C92   0.694155  0.999767  0.000619  0.141284
    C   C93   0.000797  0.306342  0.999766  0.138785
    C   C94   0.306464  0.000906  0.999944  0.139449
    C   C95   0.999652  0.694035  0.999668  0.140605
    C   C96   0.499758  0.573028  0.500737  0.678652
    C   C97   0.572994  0.499740  0.500838  0.659376
    C   C98   0.499810  0.426555  0.499246  0.669229
    C   C99   0.426522  0.499786  0.499154  0.664221
    C   C100  0.000233  0.073462  0.999264  0.664794
    C   C101  0.051064  0.455013  0.311355  -0.200339
    C   C102  0.073508  0.000241  0.999123  0.666959
    C   C103  0.000259  0.926989  0.000735  0.676351
    C   C104  0.927036  0.000268  0.000863  0.664303
    C   C105  0.383079  0.553714  0.574538  0.377278
    C   C106  0.553803  0.616702  0.575049  0.368439
    C   C107  0.616299  0.445954  0.575894  0.373190
    C   C108  0.446326  0.383197  0.575223  0.373761
    C   C109  0.616413  0.553167  0.424849  0.377732
    C   C110  0.445842  0.616407  0.425230  0.374836
    C   C111  0.382912  0.445682  0.424853  0.370026
    C   C112  0.498772  0.925964  0.500121  0.288444
    C   C113  0.457327  0.947032  0.311167  -0.220537
    C   C114  0.553613  0.383189  0.424316  0.369595
    C   C115  0.883605  0.053956  0.075907  0.372902
    C   C116  0.053822  0.116682  0.075260  0.374859
    C   C117  0.117094  0.946402  0.074448  0.375530
    C   C118  0.946125  0.883454  0.075098  0.370529
    C   C119  0.116974  0.054441  0.924779  0.372002
    C   C120  0.946513  0.116965  0.924393  0.369218
    C   C121  0.883743  0.946751  0.924847  0.379237
    C   C122  0.054066  0.883474  0.925240  0.374746
    C   C123  0.194696  0.562960  0.548190  0.434980
    C   C124  0.053346  0.541781  0.688330  -0.190905
    C   C125  0.561131  0.805426  0.551533  0.436765
    C   C126  0.804852  0.436946  0.550848  0.438915
    C   C127  0.437818  0.194277  0.549486  0.435157
    C   C128  0.805299  0.561039  0.448742  0.435920
    C   C129  0.437068  0.804941  0.449329  0.438270
    C   C130  0.194146  0.437735  0.450148  0.435716
    C   C131  0.563118  0.194783  0.451700  0.434393
    C   C132  0.694644  0.061718  0.052028  0.435707
    C   C133  0.063578  0.305247  0.048179  0.433347
    C   C134  0.305823  0.938236  0.048802  0.432834
    C   C135  0.455207  0.051218  0.688617  -0.199448
    C   C136  0.937556  0.695124  0.050510  0.437219
    C   C137  0.305389  0.063681  0.951511  0.435113
    C   C138  0.938110  0.305723  0.950970  0.433463
    C   C139  0.695268  0.937690  0.949713  0.436262
    C   C140  0.061613  0.694547  0.948290  0.435363
    C   C141  0.117315  0.564186  0.548020  0.605772
    C   C142  0.561116  0.882922  0.552652  0.625104
    C   C143  0.882372  0.436059  0.550974  0.612196
    C   C144  0.437653  0.116906  0.550617  0.619256
    C   C145  0.882797  0.560984  0.447434  0.625169
    C   C146  0.946925  0.457216  0.688824  -0.216863
    C   C147  0.436229  0.882468  0.448996  0.610828
    C   C148  0.116776  0.437535  0.449220  0.620788
    C   C149  0.564396  0.117408  0.452114  0.602609
    C   C150  0.617137  0.061585  0.053201  0.625033
    C   C151  0.064741  0.382631  0.048054  0.602855
    C   C152  0.383184  0.937978  0.049820  0.614426
    C   C153  0.936556  0.617610  0.050564  0.611751
    C   C154  0.382770  0.064882  0.951843  0.604307
    C   C155  0.937805  0.383080  0.950179  0.615177
    C   C156  0.617751  0.936729  0.949454  0.613623
    C   C157  0.544421  0.948869  0.688588  -0.211681
    C   C158  0.061444  0.617038  0.946917  0.626167
    C   C159  0.446877  0.042521  0.811558  -0.196963
    C   C160  0.044838  0.550906  0.811158  -0.214605
    C   C161  0.553395  0.958081  0.811317  -0.209026
    C   C162  0.955730  0.448472  0.811676  -0.195392
    C   C163  0.550980  0.044997  0.188864  -0.214911
    C   C164  0.925857  0.498637  0.499900  0.289521
    C   C165  0.957942  0.553245  0.188712  -0.211056
    C   C166  0.448579  0.955848  0.188318  -0.193549
    C   C167  0.042353  0.446705  0.188412  -0.195581
    C   C168  0.927642  0.570160  0.280655  -0.073475
    C   C169  0.566549  0.075953  0.280789  -0.129260
    C   C170  0.072266  0.429258  0.280426  -0.077524
    C   C171  0.432416  0.924931  0.279995  -0.099485
    C   C172  0.075795  0.566496  0.719244  -0.128644
    C   C173  0.429457  0.072435  0.719530  -0.080141
    C   C174  0.924826  0.432302  0.719990  -0.102638
    C   C175  0.500842  0.073533  0.500381  0.294556
    C   C176  0.570319  0.927771  0.719386  -0.073010
    C   C177  0.424461  0.067214  0.780532  -0.120511
    C   C178  0.070733  0.571912  0.780183  -0.064408
    C   C179  0.575589  0.933198  0.780269  -0.113396
    C   C180  0.930036  0.427094  0.780941  -0.091122
    C   C181  0.571968  0.070902  0.219849  -0.063038
    C   C182  0.933065  0.575440  0.219773  -0.112517
    C   C183  0.427208  0.930145  0.219045  -0.093457
    C   C184  0.067039  0.424274  0.219423  -0.122883
    C   C185  0.977972  0.525324  0.218527  0.145817
    C   C186  0.574177  0.999302  0.000368  0.284864
    C   C187  0.524180  0.023550  0.218754  0.125434
    C   C188  0.022283  0.474534  0.218405  0.141220
    C   C189  0.475505  0.976978  0.218515  0.110993
    C   C190  0.023409  0.524096  0.781259  0.128276
    C   C191  0.474703  0.022439  0.781582  0.141226
    C   C192  0.976856  0.475403  0.781484  0.114899
    C   C193  0.525481  0.978114  0.781488  0.141666
    C   C194  0.476588  0.024426  0.718661  0.118178
    C   C195  0.025429  0.521861  0.718366  0.132011
    C   C196  0.523193  0.975781  0.718621  0.126413
    C   C197  0.001181  0.426487  0.999832  0.294025
    C   C198  0.974701  0.477478  0.718585  0.151849
    C   C199  0.521946  0.025559  0.281648  0.136219
    C   C200  0.975646  0.523029  0.281394  0.124033
    C   C201  0.477583  0.974814  0.281412  0.156711
    C   C202  0.024277  0.476410  0.281326  0.117146
    C   C203  0.000255  0.500071  0.186419  -0.177669
    C   C204  0.499980  0.000182  0.186633  -0.149900
    C   C205  0.000048  0.499885  0.813372  -0.153420
    C   C206  0.500228  0.000404  0.813582  -0.174591
    C   C207  0.499771  0.999999  0.686637  -0.155041
    C   C208  0.426607  0.001323  0.000131  0.292787
    C   C209  0.999936  0.499758  0.686425  -0.174687
    C   C210  0.499859  0.000048  0.313579  -0.179516
    C   C211  0.999864  0.499600  0.313364  -0.152091
    C   C212  0.326862  0.523750  0.536996  -0.318718
    C   C213  0.523518  0.672819  0.537727  -0.313963
    C   C214  0.672615  0.475734  0.538112  -0.318338
    C   C215  0.476211  0.326932  0.537463  -0.315598
    C   C216  0.672646  0.523261  0.462695  -0.316406
    C   C217  0.475747  0.672657  0.462757  -0.318260
    C   C218  0.326761  0.475943  0.462090  -0.316271
    C   C219  0.999159  0.574057  0.999676  0.287869
    C   C220  0.523777  0.326905  0.462110  -0.316746
    C   C221  0.827356  0.023988  0.038223  -0.314785
    C   C222  0.024119  0.173019  0.037438  -0.316366
    C   C223  0.173235  0.976558  0.036983  -0.318753
    C   C224  0.976207  0.827263  0.037667  -0.316849
    C   C225  0.173201  0.024369  0.962083  -0.318593
    C   C226  0.976542  0.173176  0.962103  -0.315958
    C   C227  0.827444  0.976464  0.962799  -0.317695
    C   C228  0.023967  0.827296  0.962681  -0.319265
    C   C229  0.365449  0.524695  0.536523  0.022595
    C   C230  0.999638  0.499289  0.380510  0.686656
    C   C231  0.524611  0.634240  0.537303  0.024991
    C   C232  0.634032  0.474839  0.537755  0.017748
    C   C233  0.475185  0.365519  0.536935  0.019995
    C   C234  0.634059  0.524314  0.463187  0.015238
    C   C235  0.474831  0.634070  0.463266  0.026526
    C   C236  0.365341  0.474879  0.462549  0.024312
    C   C237  0.524698  0.365488  0.462433  0.022620
    C   C238  0.865938  0.025015  0.037800  0.016596
    C   C239  0.025014  0.134431  0.036957  0.018269
    C   C240  0.134650  0.975481  0.036465  0.024400
    H   H1    0.092512  0.412337  0.304355  0.112823
    H   H2    0.913355  0.406696  0.804967  0.116222
    H   H3    0.403378  0.083133  0.804320  0.126564
    H   H4    0.087704  0.592153  0.804028  0.108271
    H   H5    0.406813  0.913463  0.195013  0.116792
    H   H6    0.082946  0.403187  0.195623  0.127294
    H   H7    0.592198  0.087890  0.196010  0.107647
    H   H8    0.917162  0.596589  0.196122  0.123731
    H   H9    0.942840  0.541013  0.359089  0.150796
    H   H10   0.538378  0.059181  0.359395  0.149784
    H   H11   0.056788  0.458008  0.359111  0.145848
    H   H12   0.416310  0.903924  0.303622  0.120802
    H   H13   0.460583  0.941230  0.358855  0.158273
    H   H14   0.059053  0.538312  0.640634  0.149102
    H   H15   0.458212  0.056937  0.640860  0.145641
    H   H16   0.941125  0.460473  0.641135  0.156744
    H   H17   0.541187  0.942971  0.640937  0.150425
    H   H18   0.441233  0.039229  0.859303  0.149451
    H   H19   0.041805  0.556764  0.858853  0.150595
    H   H20   0.559247  0.961532  0.858959  0.155339
    H   H21   0.958937  0.442739  0.859400  0.145541
    H   H22   0.556843  0.041972  0.141170  0.150674
    H   H23   0.907295  0.586951  0.304593  0.110383
    H   H24   0.961389  0.559103  0.141071  0.156186
    H   H25   0.442846  0.959059  0.140595  0.145244
    H   H26   0.039055  0.441071  0.140664  0.149775
    H   H27   0.311392  0.542867  0.565570  0.188178
    H   H28   0.542592  0.688380  0.566244  0.186670
    H   H29   0.688099  0.456696  0.566806  0.188799
    H   H30   0.457257  0.311433  0.566279  0.187246
    H   H31   0.688168  0.542190  0.433868  0.187915
    H   H32   0.456634  0.688103  0.434143  0.187692
    H   H33   0.311223  0.456843  0.433582  0.187221
    H   H34   0.582302  0.097143  0.304614  0.128364
    H   H35   0.542819  0.311399  0.433457  0.187993
    H   H36   0.811824  0.042960  0.066962  0.187598
    H   H37   0.043140  0.188467  0.066210  0.188014
    H   H38   0.188759  0.957504  0.065589  0.187655
    H   H39   0.957071  0.811754  0.066151  0.187671
    H   H40   0.188684  0.043534  0.933612  0.188379
    H   H41   0.957559  0.188735  0.933422  0.187273
    H   H42   0.811969  0.957473  0.934013  0.188608
    H   H43   0.043011  0.811798  0.934019  0.187701
    H   H44   0.367135  0.565807  0.611529  -0.011310
    H   H45   0.903824  0.416191  0.696359  0.121640
    H   H46   0.565799  0.632576  0.612200  -0.008701
    H   H47   0.632244  0.433734  0.612772  -0.009620
    H   H48   0.434042  0.367136  0.611912  -0.009251
    H   H49   0.632495  0.565426  0.388162  -0.010616
    H   H50   0.433762  0.632326  0.388201  -0.010627
    H   H51   0.367060  0.433662  0.387697  -0.009263
    H   H52   0.565847  0.367222  0.387476  -0.008883
    H   H53   0.867636  0.066152  0.112778  -0.009368
    H   H54   0.066135  0.132713  0.111959  -0.009827
    H   H55   0.133069  0.934328  0.111419  -0.010861
    H   H56   0.587111  0.907421  0.695459  0.110177
    H   H57   0.934113  0.867607  0.112268  -0.009616
    H   H58   0.132794  0.066484  0.887604  -0.010129
    H   H59   0.934297  0.132964  0.887573  -0.008344
    H   H60   0.867685  0.934470  0.888151  -0.011247
    H   H61   0.066119  0.867527  0.888220  -0.010410
    H   H62   0.184137  0.591146  0.542124  0.023336
    H   H63   0.589239  0.816493  0.547133  0.020982
    H   H64   0.815611  0.408742  0.546075  0.021503
    H   H65   0.409745  0.183325  0.543908  0.021972
    H   H66   0.816390  0.589139  0.453099  0.021422
    H   H67   0.096976  0.582265  0.695424  0.128144
    H   H68   0.408870  0.815730  0.454008  0.021780
    H   H69   0.183216  0.409653  0.455735  0.021739
    H   H70   0.591305  0.184255  0.457899  0.023473
    H   H71   0.683518  0.089809  0.047758  0.021935
    H   H72   0.091742  0.315841  0.042008  0.023834
    H   H73   0.316729  0.910161  0.043004  0.022899
    H   H74   0.909335  0.684419  0.045672  0.022018
    H   H75   0.315958  0.091851  0.957724  0.023326
    H   H76   0.910030  0.316599  0.956856  0.022601
    H   H77   0.684539  0.909473  0.954471  0.022462
    H   H78   0.412549  0.092687  0.695590  0.113796
    H   H79   0.089698  0.683398  0.952520  0.021933
    H   H80   0.119791  0.569175  0.596330  -0.059867
    H   H81   0.564613  0.880594  0.601343  -0.066300
    H   H82   0.879714  0.431833  0.599442  -0.064103
    H   H83   0.433606  0.118843  0.599249  -0.063722
    H   H84   0.880474  0.564457  0.398738  -0.066232
    H   H85   0.432055  0.879797  0.400517  -0.063672
    H   H86   0.118730  0.433477  0.400593  -0.063902
    H   H87   0.569473  0.119869  0.403826  -0.058847
    H   H88   0.619353  0.064953  0.101933  -0.065716
    H   H89   0.596732  0.917293  0.803932  0.123939
    H   H90   0.069735  0.380283  0.096382  -0.058942
    H   H91   0.381154  0.933726  0.098392  -0.061917
    H   H92   0.932247  0.620346  0.098999  -0.063836
    H   H93   0.380427  0.069901  0.903521  -0.059087
    H   H94   0.933497  0.381058  0.901619  -0.062282
    H   H95   0.620509  0.932462  0.901012  -0.064506
    H   H96   0.064787  0.619254  0.898181  -0.066573
    O   O1    0.055338  0.468749  0.497721  -0.502871
    O   O2    0.969239  0.444584  0.997900  -0.503816
    O   O3    0.444618  0.033285  0.998014  -0.482053
    O   O4    0.031147  0.556018  0.000915  -0.505518
    O   O5    0.444704  0.969380  0.002070  -0.503626
    O   O6    0.033144  0.444497  0.001960  -0.483415
    O   O7    0.556139  0.031290  0.999123  -0.502896
    O   O8    0.967148  0.556102  0.998603  -0.486059
    O   O9    0.998365  0.467025  0.408819  -0.662322
    O   O10   0.468151  0.999288  0.409974  -0.670255
    O   O11   0.000821  0.531286  0.409683  -0.670869
    O   O12   0.466765  0.943926  0.501277  -0.486264
    O   O13   0.532445  0.000242  0.409079  -0.660665
    O   O14   0.999189  0.468032  0.590044  -0.669992
    O   O15   0.531443  0.000934  0.590303  -0.671578
    O   O16   0.000145  0.532325  0.590906  -0.660816
    O   O17   0.467181  0.998482  0.591200  -0.662593
    O   O18   0.500972  0.968693  0.909946  -0.671297
    O   O19   0.967518  0.501454  0.908829  -0.661950
    O   O20   0.499997  0.032987  0.909109  -0.661875
    O   O21   0.031780  0.498993  0.909675  -0.670696
    O   O22   0.501557  0.967657  0.091171  -0.661549
    O   O23   0.943892  0.530627  0.501082  -0.505775
    O   O24   0.032841  0.499858  0.090898  -0.662680
    O   O25   0.499094  0.031918  0.090331  -0.669459
    O   O26   0.968546  0.500834  0.090054  -0.671584
    O   O27   0.499635  0.555291  0.448513  -0.673574
    O   O28   0.555314  0.498367  0.448607  -0.671359
    O   O29   0.498422  0.443937  0.446769  -0.662812
    O   O30   0.443960  0.499593  0.446675  -0.660500
    O   O31   0.499928  0.555616  0.553239  -0.662015
    O   O32   0.444234  0.499937  0.551401  -0.670861
    O   O33   0.501159  0.444261  0.551456  -0.670787
    O   O34   0.532796  0.055515  0.498158  -0.483541
    O   O35   0.555587  0.501155  0.553290  -0.660499
    O   O36   0.001602  0.056082  0.946781  -0.662253
    O   O37   0.056061  0.000424  0.946655  -0.661196
    O   O38   0.000384  0.944727  0.948509  -0.673158
    O   O39   0.944708  0.001652  0.948628  -0.672631
    O   O40   0.998882  0.055755  0.051470  -0.669941
    O   O41   0.944451  0.998862  0.053311  -0.661092
    O   O42   0.000109  0.944401  0.053235  -0.662397
    O   O43   0.055805  0.000079  0.051381  -0.671367
    O   O44   0.413320  0.567341  0.561762  -0.361062
    O   O45   0.943819  0.466630  0.498757  -0.485703
    O   O46   0.567730  0.586684  0.561726  -0.355668
    O   O47   0.585897  0.432600  0.563338  -0.358621
    O   O48   0.433143  0.413746  0.563149  -0.361550
    O   O49   0.585866  0.566371  0.436876  -0.362545
    O   O50   0.432223  0.586165  0.438026  -0.360800
    O   O51   0.412932  0.431777  0.438225  -0.355558
    O   O52   0.566972  0.413592  0.436852  -0.356847
    O   O53   0.913979  0.067370  0.063338  -0.358728
    O   O54   0.066942  0.086108  0.063183  -0.361645
    O   O55   0.086877  0.932718  0.061673  -0.360357
    O   O56   0.530763  0.943996  0.498917  -0.506714
    O   O57   0.932256  0.913500  0.061791  -0.356316
    O   O58   0.086929  0.068288  0.938155  -0.355968
    O   O59   0.933096  0.086587  0.936933  -0.357083
    O   O60   0.914317  0.933606  0.936856  -0.363052
    O   O61   0.067747  0.913687  0.938043  -0.361000
    O   O62   0.222713  0.558544  0.578995  -0.434512
    O   O63   0.556586  0.777129  0.581606  -0.434579
    O   O64   0.776692  0.441670  0.581186  -0.435513
    O   O65   0.442008  0.222508  0.579856  -0.433846
    O   O66   0.776959  0.556513  0.418769  -0.434507
    O   O67   0.055412  0.532656  0.501813  -0.481229
    O   O68   0.441789  0.776736  0.419104  -0.435362
    O   O69   0.222334  0.441955  0.419685  -0.433994
    O   O70   0.558716  0.222750  0.420770  -0.434291
    O   O71   0.722982  0.057190  0.082004  -0.434418
    O   O72   0.059246  0.277201  0.078946  -0.434241
    O   O73   0.277632  0.942392  0.079283  -0.433453
    O   O74   0.942315  0.723245  0.080928  -0.435105
    O   O75   0.277387  0.059332  0.920645  -0.434716
    O   O76   0.942269  0.277579  0.920377  -0.433339
    O   O77   0.723432  0.942449  0.919399  -0.434730
    O   O78   0.468891  0.055445  0.502282  -0.505047
    O   O79   0.057104  0.722928  0.918412  -0.434011
    O   O80   0.104242  0.588492  0.515413  -0.462094
    O   O81   0.586298  0.896098  0.521969  -0.465750
    O   O82   0.895618  0.411265  0.519544  -0.461656
    O   O83   0.412800  0.104060  0.518870  -0.466120
    O   O84   0.895974  0.586180  0.478089  -0.465939
    O   O85   0.411405  0.895728  0.480346  -0.461126
    O   O86   0.103921  0.412686  0.480967  -0.466507
    O   O87   0.588643  0.104347  0.484848  -0.461004
    O   O88   0.604012  0.086839  0.022614  -0.466467
    O   O89   0.556223  0.967291  0.001426  -0.485073
    O   O90   0.089037  0.395622  0.015342  -0.461103
    O   O91   0.396090  0.913256  0.017867  -0.464981
    O   O92   0.911808  0.604330  0.019080  -0.461297
    O   O93   0.395754  0.089164  0.984590  -0.461615
    O   O94   0.913118  0.395977  0.982211  -0.465132
    O   O95   0.604453  0.911955  0.980866  -0.462224
    O   O96   0.086711  0.603912  0.977473  -0.466614
    Zn  Zn1   0.999768  0.457530  0.499552  1.254974
    Zn  Zn2   0.499817  0.499835  0.568806  1.347427
    Zn  Zn3   0.000271  0.000321  0.931184  1.349856
    Zn  Zn4   0.000224  0.000180  0.068808  1.347554
    Zn  Zn5   0.457669  0.999876  0.500472  1.256486
    Zn  Zn6   0.999481  0.541801  0.500146  1.254989
    Zn  Zn7   0.541940  0.999584  0.499834  1.256188
    Zn  Zn8   0.500278  0.958176  0.000431  1.256681
    Zn  Zn9   0.958034  0.500158  0.999568  1.256438
    Zn  Zn10  0.500545  0.042448  0.999875  1.253445
    Zn  Zn11  0.042306  0.500425  0.000132  1.256196
    Zn  Zn12  0.499749  0.499699  0.431182  1.349577
