# Generated by REPEAT Assigner based on pymatgen
data_DB0-m2_o13_o21_f0_pcu.sym.54
_audit_creation_date              2022-05-24
_audit_creation_method            REPEAT_Assigner
_cell_length_a                    11.540891
_cell_length_b                    13.002166
_cell_length_c                    13.967607
_cell_angle_alpha                 89.571798
_cell_angle_beta                  90.425474
_cell_angle_gamma                 99.454132
_cell_volume                      2067.364630
_symmetry_space_group_name_H-M    P1
_symmetry_Int_Tables_number       1
loop_
    _symmetry_equiv_pos_site_id
    _symmetry_equiv_pos_as_xyz
    1  x,y,z
loop_
    _atom_site_type_symbol
    _atom_site_label
    _atom_site_fract_x
    _atom_site_fract_y
    _atom_site_fract_z
    _atom_type_partial_charge
    O   O1   0.577154  0.351110  0.494761  -0.552905
    O   O2   0.421043  0.646505  0.514676  -0.526261
    O   O3   0.378433  0.343602  0.509487  -0.492075
    O   O4   0.620045  0.653847  0.499747  -0.456732
    C   C1   0.470293  0.297977  0.496973  0.542028
    C   C2   0.527605  0.700042  0.506742  0.546350
    O   O5   0.615053  0.502876  0.633068  -0.584196
    O   O6   0.383838  0.501579  0.370626  -0.615112
    O   O7   0.415403  0.495472  0.647748  -0.631773
    O   O8   0.583182  0.508843  0.355971  -0.665725
    C   C3   0.519908  0.496105  0.684838  0.908972
    C   C4   0.478247  0.503364  0.318845  0.935102
    Cu  Cu1  0.614903  0.503082  0.492961  0.811679
    Cu  Cu2  0.382843  0.494254  0.510648  0.842811
    C   C5   0.467632  0.505856  0.216553  -0.338591
    C   C6   0.531500  0.499391  0.787114  -0.350012
    C   C7   0.452558  0.507643  0.027777  -0.060287
    C   C8   0.548131  0.505623  0.975795  -0.069381
    C   C9   0.539736  0.502484  0.873093  0.063996
    C   C10  0.460390  0.507151  0.130505  0.051953
    H   H1   0.631919  0.504855  0.010881  0.145019
    H   H2   0.368391  0.507967  0.992829  0.143604
    C   C11  0.542030  0.815783  0.510080  -0.005565
    C   C12  0.456405  0.182726  0.493089  0.029790
    C   C13  0.350775  0.010760  0.462472  -0.275000
    C   C14  0.647894  0.988475  0.538538  -0.281912
    C   C15  0.354289  0.118165  0.461023  -0.056548
    C   C16  0.646674  0.881374  0.536306  -0.036707
    C   C17  0.552899  0.137371  0.518993  -0.271934
    C   C18  0.444139  0.860917  0.487148  -0.245368
    C   C19  0.549285  0.030930  0.515589  0.232674
    C   C20  0.447940  0.967600  0.489092  0.224982
    H   H3   0.363176  0.812678  0.465395  0.143398
    H   H4   0.633089  0.185433  0.542577  0.162377
    H   H5   0.272104  0.958968  0.441160  0.177273
    H   H6   0.726992  0.041310  0.557258  0.172270
    N   N1   0.788673  0.509870  0.480693  -0.027742
    N   N2   0.209221  0.487958  0.523262  -0.067643
    C   C21  0.030378  0.406832  0.593113  -0.303787
    C   C22  0.967169  0.586694  0.407936  -0.294098
    C   C23  0.151032  0.419146  0.586234  0.090586
    C   C24  0.846600  0.575492  0.415315  0.055993
    C   C25  0.149728  0.541883  0.463179  -0.111140
    C   C26  0.847960  0.454168  0.539792  -0.132676
    C   C27  0.028930  0.530890  0.468184  0.189481
    C   C28  0.968731  0.463782  0.533892  0.199763
    H   H7   0.800974  0.401794  0.592130  0.140302
    H   H8   0.196590  0.594521  0.411177  0.141071
    H   H9   0.798719  0.620468  0.368588  0.122923
    H   H10  0.198954  0.373269  0.631953  0.099534
    H   H11  0.984939  0.352316  0.644446  0.158212
    H   H12  0.012673  0.639917  0.355510  0.155319
    C   C29  0.757838  0.841271  0.564078  0.640832
    F   F1   0.842337  0.920876  0.597609  -0.235021
    F   F2   0.803191  0.798700  0.485133  -0.224429
    F   F3   0.735059  0.767493  0.636217  -0.203020
    C   C30  0.250828  0.160461  0.419033  0.643165
    F   F4   0.175438  0.083071  0.372107  -0.234444
    F   F5   0.289006  0.238166  0.352966  -0.209404
    F   F6   0.188918  0.199263  0.490909  -0.211975
