# Generated by REPEAT Assigner based on pymatgen
data_DB0-m29_o89_o86_f0_pts.sym.1
_audit_creation_date              2022-05-24
_audit_creation_method            REPEAT_Assigner
_cell_length_a                    14.139336
_cell_length_b                    14.605981
_cell_length_c                    11.170324
_cell_angle_alpha                 94.026718
_cell_angle_beta                  94.323761
_cell_angle_gamma                 108.997969
_cell_volume                      2164.005172
_symmetry_space_group_name_H-M    P1
_symmetry_Int_Tables_number       1
loop_
    _symmetry_equiv_pos_site_id
    _symmetry_equiv_pos_as_xyz
    1  x,y,z
loop_
    _atom_site_type_symbol
    _atom_site_label
    _atom_site_fract_x
    _atom_site_fract_y
    _atom_site_fract_z
    _atom_type_partial_charge
    C   C1   0.852296  0.004272  0.152424  -0.170540
    C   C2   0.760358  0.007198  0.103709  0.014401
    C   C3   0.746017  0.013764  0.979924  -0.011451
    C   C4   0.824108  0.020763  0.910170  -0.226613
    C   C5   0.914306  0.015565  0.959023  0.145896
    C   C6   0.928733  0.006055  0.080241  0.153151
    C   C7   0.989086  0.018293  0.885250  -0.250448
    C   C8   0.079516  0.011905  0.932004  0.161930
    C   C9   0.094922  0.002287  0.053053  0.195081
    C   C10  0.019721  0.999372  0.127912  -0.237790
    C   C11  0.154154  0.015061  0.857120  -0.191656
    C   C12  0.246801  0.011388  0.902453  -0.046468
    C   C13  0.262440  0.003662  0.025631  0.099915
    C   C14  0.186178  0.996359  0.098156  -0.353721
    H   H1   0.862944  0.000448  0.248180  0.111670
    H   H2   0.812433  0.025144  0.814304  0.203856
    H   H3   0.976674  0.025519  0.790222  0.130766
    H   H4   0.139387  0.021216  0.762270  0.167295
    H   H5   0.202565  0.990914  0.192654  0.231915
    N   N1   0.092080  0.061477  0.338927  -0.225794
    C   C15  0.090224  0.024487  0.445992  -0.030116
    C   C16  0.032646  0.927056  0.431614  -0.189178
    C   C17  0.998205  0.904172  0.310693  -0.207993
    C   C18  0.036241  0.988701  0.256513  0.321328
    H   H6   0.129698  0.133113  0.322926  0.266769
    H   H7   0.128597  0.066003  0.529809  0.128897
    H   H8   0.017533  0.878193  0.501500  0.145764
    H   H9   0.950938  0.833999  0.267166  0.143955
    O   O1   0.598481  0.018285  0.147269  -0.535344
    C   C19  0.682395  0.004884  0.186127  0.557734
    O   O2   0.518169  0.819259  0.232528  -0.486334
    O   O3   0.697246  0.990393  0.299615  -0.489945
    O   O4   0.482543  0.906609  0.386682  -0.548777
    C   C20  0.492542  0.824854  0.342606  0.608244
    Fe  Fe1  0.499034  0.002524  0.266442  1.462584
    O   O5   0.362504  0.954204  0.172940  -0.663120
    O   O6   0.438629  0.087209  0.078733  -0.498333
    C   C21  0.359530  0.011003  0.087832  0.701639
    O   O7   0.547710  0.135047  0.358557  -0.636275
    O   O8   0.380855  0.092082  0.382552  -0.558591
    C   C22  0.471954  0.155930  0.400806  0.738583
    O   O9   0.459301  0.884191  0.645030  -0.653145
    O   O10  0.626376  0.925923  0.622760  -0.569622
    C   C23  0.535016  0.862631  0.603615  0.783173
    O   O11  0.645343  0.063372  0.831979  -0.657626
    O   O12  0.569648  0.929743  0.925525  -0.505138
    C   C24  0.648942  0.005604  0.915869  0.742164
    O   O13  0.307441  0.027690  0.705154  -0.507905
    O   O14  0.527051  0.112956  0.617973  -0.532373
    C   C25  0.514731  0.193813  0.661405  0.587793
    O   O15  0.408990  0.001390  0.856422  -0.533377
    C   C26  0.324074  0.013909  0.818556  0.575673
    O   O16  0.487393  0.198579  0.770721  -0.498458
    Fe  Fe2  0.508945  0.016564  0.737769  1.456498
    C   C27  0.488207  0.252870  0.461188  -0.001778
    C   C28  0.518815  0.273872  0.584470  -0.120744
    C   C29  0.543105  0.369845  0.635806  0.120993
    C   C30  0.589647  0.398502  0.752742  -0.140605
    C   C31  0.607132  0.491220  0.804646  -0.204712
    C   C32  0.431916  0.300715  0.273629  0.012271
    C   C33  0.469331  0.323098  0.394502  -0.035032
    C   C34  0.485421  0.415743  0.448949  0.022260
    C   C35  0.408912  0.368898  0.209796  -0.205952
    C   C36  0.424798  0.460613  0.264266  0.162517
    C   C37  0.523880  0.439522  0.568434  0.005071
    C   C38  0.542069  0.533246  0.621084  -0.020406
    C   C39  0.581531  0.557733  0.740057  0.195452
    C   C40  0.597384  0.649422  0.794536  -0.215326
    C   C41  0.464414  0.485171  0.383175  0.010073
    C   C42  0.482669  0.578928  0.435802  -0.026922
    C   C43  0.521135  0.602701  0.555282  0.063390
    C   C44  0.537218  0.695335  0.609739  -0.050436
    C   C45  0.574515  0.717637  0.730657  -0.009192
    C   C46  0.398995  0.527068  0.199778  -0.175049
    C   C47  0.416553  0.619814  0.251659  -0.171252
    C   C48  0.463457  0.648621  0.368431  0.153786
    C   C49  0.488094  0.744710  0.419656  -0.139575
    C   C50  0.518474  0.765642  0.543061  -0.000007
    H   H10  0.616567  0.351253  0.805397  0.139975
    H   H11  0.641890  0.511598  0.896489  0.139939
    H   H12  0.417473  0.230044  0.225944  0.055005
    H   H13  0.378068  0.349715  0.116373  0.129394
    H   H14  0.628101  0.668566  0.888005  0.140232
    H   H15  0.588959  0.788261  0.778387  0.072291
    H   H16  0.363998  0.506619  0.108041  0.132366
    H   H17  0.389314  0.666934  0.199154  0.141432
