# Generated by REPEAT Assigner based on pymatgen
data_DB0-m29_o84_o52_f0_pts.sym.96
_audit_creation_date              2022-05-24
_audit_creation_method            REPEAT_Assigner
_cell_length_a                    13.169606
_cell_length_b                    9.415401
_cell_length_c                    19.663310
_cell_angle_alpha                 85.527286
_cell_angle_beta                  98.519543
_cell_angle_gamma                 112.129579
_cell_volume                      2233.005332
_symmetry_space_group_name_H-M    P1
_symmetry_Int_Tables_number       1
loop_
    _symmetry_equiv_pos_site_id
    _symmetry_equiv_pos_as_xyz
    1  x,y,z
loop_
    _atom_site_type_symbol
    _atom_site_label
    _atom_site_fract_x
    _atom_site_fract_y
    _atom_site_fract_z
    _atom_type_partial_charge
    C   C1   0.222458  0.974033  0.929205  0.046048
    C   C2   0.125418  0.967862  0.889292  -0.180474
    C   C3   0.039233  0.975457  0.918750  0.174560
    C   C4   0.944337  0.972153  0.877527  -0.180403
    C   C5   0.858119  0.983042  0.905750  -0.068701
    C   C6   0.231099  0.982539  0.000306  -0.041860
    C   C7   0.143613  0.990412  0.029958  0.054185
    C   C8   0.048176  0.988513  0.988754  0.010227
    C   C9   0.961992  0.001314  0.017311  0.001372
    C   C10  0.866495  0.999241  0.976119  0.055765
    C   C11  0.778936  0.006905  0.005788  -0.042688
    C   C12  0.151957  0.006424  0.100322  -0.055931
    C   C13  0.065806  0.017461  0.128550  -0.217530
    C   C14  0.970969  0.014363  0.087316  0.197045
    C   C15  0.884836  0.022000  0.116797  -0.195724
    C   C16  0.787677  0.015498  0.076944  0.052231
    H   H1   0.116637  0.959466  0.834098  0.145016
    H   H2   0.936829  0.961059  0.822523  0.144172
    H   H3   0.785495  0.978250  0.870983  0.105053
    H   H4   0.224526  0.010980  0.135070  0.100844
    H   H5   0.073300  0.028433  0.183560  0.164204
    H   H6   0.893701  0.030362  0.171994  0.143454
    O   O1   0.605343  0.023546  0.078943  -0.457288
    C   C17  0.695524  0.011046  0.112498  0.516553
    O   O2   0.519068  0.712110  0.136164  -0.457317
    O   O3   0.701686  0.988416  0.179438  -0.527789
    O   O4   0.481372  0.829844  0.219895  -0.512781
    C   C18  0.500694  0.713562  0.199849  0.487176
    Fe  Fe1  0.495529  0.983618  0.143643  1.403470
    O   O5   0.345490  0.897455  0.088773  -0.588416
    O   O6   0.420300  0.133060  0.039050  -0.476072
    C   C19  0.336164  0.003004  0.043149  0.628229
    O   O7   0.545095  0.189375  0.186343  -0.581161
    O   O8   0.399823  0.052198  0.243554  -0.498656
    C   C20  0.479239  0.182845  0.231450  0.574986
    O   O9   0.464541  0.794663  0.820878  -0.580593
    O   O10  0.579787  0.930015  0.743316  -0.522547
    C   C21  0.515510  0.798488  0.767783  0.569066
    O   O11  0.663630  0.090082  0.917020  -0.598986
    O   O12  0.590101  0.854645  0.967103  -0.473500
    C   C22  0.673630  0.985357  0.962939  0.631078
    O   O13  0.309316  0.002891  0.827020  -0.520615
    O   O14  0.526451  0.153840  0.785536  -0.469182
    C   C23  0.511745  0.273363  0.806340  0.455342
    O   O15  0.403830  0.962335  0.927311  -0.453498
    C   C24  0.314642  0.978088  0.893819  0.510619
    O   O16  0.497252  0.277391  0.870663  -0.433770
    Fe  Fe2  0.513412  0.001734  0.862435  1.402835
    H   H7   0.504284  0.540978  0.837877  0.150917
    C   C25  0.510555  0.401402  0.758762  0.075216
    C   C26  0.513169  0.392576  0.689167  0.021330
    H   H8   0.513792  0.289012  0.669489  0.085140
    C   C27  0.512634  0.514508  0.644893  -0.340862
    C   C28  0.513970  0.647358  0.671018  -0.014662
    H   H9   0.516242  0.744950  0.637642  0.058739
    C   C29  0.509473  0.655547  0.740049  0.081984
    C   C30  0.505730  0.531908  0.783622  -0.154607
    N   N1   0.496423  0.614682  0.527143  -0.228719
    N   N2   0.488111  0.601218  0.459876  -0.211169
    C   C31  0.490639  0.474526  0.434121  0.722604
    N   N3   0.504178  0.363666  0.477762  -0.193089
    N   N4   0.512109  0.376665  0.544924  -0.278003
    C   C32  0.508059  0.502302  0.570474  0.727216
    C   C33  0.472760  0.324579  0.330256  0.244709
    C   C34  0.486614  0.323462  0.262090  0.013833
    C   C35  0.500768  0.452760  0.220868  -0.174147
    H   H10  0.507075  0.447440  0.167040  0.161863
    C   C36  0.497473  0.582867  0.246635  0.086611
    C   C37  0.491803  0.588247  0.316071  -0.010634
    H   H11  0.495886  0.693539  0.336698  0.094824
    C   C38  0.483499  0.460970  0.358992  -0.442728
    C   C39  0.448275  0.181054  0.370531  -0.168232
    C   C40  0.345804  0.108620  0.393028  0.390971
    C   C41  0.256744  0.171492  0.373653  -0.390203
    C   C42  0.324422  0.973508  0.431292  -0.258823
    C   C43  0.404563  0.911050  0.446881  -0.040115
    C   C44  0.505812  0.981821  0.423442  -0.120083
    C   C45  0.527360  0.116211  0.384913  -0.023990
    H   H12  0.242895  0.185448  0.316914  0.094239
    H   H13  0.279662  0.283464  0.397858  0.089551
    H   H14  0.178530  0.091713  0.391347  0.105794
    H   H15  0.244873  0.915392  0.449205  0.128365
    H   H16  0.387348  0.805812  0.477133  0.092702
    H   H17  0.568370  0.932148  0.435351  0.104147
    H   H18  0.606965  0.172017  0.366790  0.081263
