# Generated by REPEAT Assigner based on pymatgen
data_DB0-m2_o19_qtz_sqe
_audit_creation_date              2022-05-24
_audit_creation_method            REPEAT_Assigner
_cell_length_a                    18.569550
_cell_length_b                    12.578720
_cell_length_c                    25.275651
_cell_angle_alpha                 89.929711
_cell_angle_beta                  89.881980
_cell_angle_gamma                 42.463814
_cell_volume                      3985.869185
_symmetry_space_group_name_H-M    P1
_symmetry_Int_Tables_number       1
loop_
    _symmetry_equiv_pos_site_id
    _symmetry_equiv_pos_as_xyz
    1  x,y,z
loop_
    _atom_site_type_symbol
    _atom_site_label
    _atom_site_fract_x
    _atom_site_fract_y
    _atom_site_fract_z
    _atom_type_partial_charge
    O   O1   0.942500  0.195899  0.558708  -0.599687
    O   O2   0.119314  0.961656  0.559407  -0.570560
    C   C1   0.041139  0.107153  0.575420  0.735056
    O   O3   0.883365  0.036821  0.559998  -0.571107
    O   O4   0.060130  0.802572  0.558213  -0.600103
    C   C2   0.961768  0.890874  0.575472  0.736918
    Cu  Cu1  0.904064  0.120254  0.507382  1.030833
    Cu  Cu2  0.097725  0.879632  0.506804  1.029765
    O   O5   0.908470  0.996575  0.453131  -0.589128
    O   O6   0.090047  0.789942  0.450514  -0.568569
    O   O7   0.910858  0.211286  0.451084  -0.568684
    O   O8   0.092459  0.004565  0.452621  -0.588836
    C   C3   0.997741  0.857241  0.433845  0.775153
    C   C4   0.002880  0.144359  0.433868  0.774468
    O   O9   0.562759  0.050906  0.825987  -0.583954
    O   O10  0.632668  0.807240  0.822960  -0.575558
    C   C5   0.628251  0.906351  0.844435  0.796267
    O   O11  0.369089  0.191595  0.822793  -0.574902
    O   O12  0.438984  0.947959  0.826237  -0.583766
    C   C6   0.373339  0.092765  0.844490  0.794895
    Cu  Cu3  0.461785  0.137036  0.767007  1.031389
    Cu  Cu4  0.540456  0.861027  0.767240  1.032371
    O   O13  0.357780  0.193427  0.715017  -0.594231
    O   O14  0.428029  0.949798  0.717055  -0.597294
    O   O15  0.574648  0.047564  0.716801  -0.596743
    O   O16  0.644941  0.803890  0.715178  -0.594170
    C   C7   0.354843  0.096028  0.700434  0.752452
    C   C8   0.647996  0.901100  0.700371  0.749976
    O   O17  0.108464  0.492725  0.194530  -0.588719
    O   O18  0.085854  0.349984  0.222945  -0.545311
    C   C9   0.116930  0.414324  0.232700  0.723838
    O   O19  0.913007  0.653452  0.222849  -0.545474
    O   O20  0.890462  0.510668  0.194673  -0.589448
    C   C10  0.881873  0.589191  0.232770  0.725034
    Cu  Cu5  0.979763  0.622087  0.154356  0.978241
    Cu  Cu6  0.019538  0.380688  0.154539  0.978765
    O   O21  0.859709  0.715149  0.110389  -0.611966
    O   O22  0.933080  0.474924  0.089666  -0.599001
    O   O23  0.066748  0.527092  0.089504  -0.598562
    O   O24  0.139926  0.287101  0.110522  -0.611620
    C   C11  0.863062  0.626982  0.080231  0.918493
    C   C12  0.136819  0.374935  0.080215  0.916092
    C   C13  0.930430  0.831887  0.605259  -0.150013
    C   C14  0.882420  0.813073  0.627323  0.060393
    C   C15  0.809446  0.820196  0.651378  0.052794
    C   C16  0.738602  0.846788  0.672374  -0.149993
    C   C17  0.264523  0.149968  0.672441  -0.152252
    C   C18  0.193841  0.176446  0.651452  0.054344
    C   C19  0.120937  0.183705  0.627398  0.058722
    C   C20  0.072837  0.165288  0.605307  -0.148152
    C   C21  0.093409  0.483751  0.284063  -0.170656
    C   C22  0.062416  0.567690  0.321895  0.086775
    C   C23  0.024590  0.678673  0.361916  0.054116
    C   C24  0.001687  0.769793  0.394733  -0.195099
    C   C25  0.905524  0.519626  0.284132  -0.171895
    C   C26  0.936749  0.435452  0.321929  0.087086
    C   C27  0.974965  0.324084  0.361895  0.054704
    C   C28  0.998300  0.232521  0.394691  -0.195600
    C   C29  0.321404  0.137954  0.894687  -0.191332
    C   C30  0.280628  0.187224  0.937779  0.044628
    C   C31  0.233964  0.252402  0.988111  0.135852
    C   C32  0.192096  0.309729  0.030620  -0.292223
    C   C33  0.679807  0.861812  0.894611  -0.191255
    C   C34  0.720272  0.813077  0.937719  0.042591
    C   C35  0.766577  0.748498  0.988085  0.139733
    C   C36  0.808142  0.691655  0.030622  -0.295881
