data_DB0-m3_o115_o21_f0_fsc.sym.7_repeat
_audit_creation_date              2024-02-23
_audit_creation_method            'Materials Studio'
_symmetry_space_group_name_H-M    'P1'
_symmetry_Int_Tables_number       1
_symmetry_cell_setting            triclinic
loop_
_symmetry_equiv_pos_as_xyz
  x,y,z
_cell_length_a                    12.3120
_cell_length_b                    16.5244
_cell_length_c                    16.6946
_cell_angle_alpha                 90.0430
_cell_angle_beta                  81.2553
_cell_angle_gamma                 94.4547
loop_
_atom_site_label
_atom_site_type_symbol
_atom_site_fract_x
_atom_site_fract_y
_atom_site_fract_z
_atom_site_U_iso_or_equiv
_atom_site_adp_type
_atom_site_occupancy
H1     H     0.07185   0.08436   0.28041   0.00000  Uiso   1.00
H2     H     0.92815   0.91564   0.71959   0.00000  Uiso   1.00
C1     C     0.00768   0.74353   0.03953   0.00000  Uiso   1.00
C2     C     0.99232   0.25647   0.96047   0.00000  Uiso   1.00
C3     C     0.01032   0.74401   0.95696   0.00000  Uiso   1.00
C4     C     0.98968   0.25599   0.04304   0.00000  Uiso   1.00
C5     C     0.00890   0.82422   0.93399   0.00000  Uiso   1.00
C6     C     0.99110   0.17578   0.06601   0.00000  Uiso   1.00
N1     N     0.00669   0.87271   0.99905   0.00000  Uiso   1.00
N2     N     0.99331   0.12729   0.00095   0.00000  Uiso   1.00
C7     C     0.00616   0.82354   0.06351   0.00000  Uiso   1.00
C8     C     0.99384   0.17646   0.93649   0.00000  Uiso   1.00
C9     C     0.00560   0.84933   0.85818   0.00000  Uiso   1.00
C10    C     0.99440   0.15067   0.14182   0.00000  Uiso   1.00
C11    C     0.99238   0.93422   0.83573   0.00000  Uiso   1.00
C12    C     0.00762   0.06578   0.16427   0.00000  Uiso   1.00
C13    C     0.95337   0.95541   0.76594   0.00000  Uiso   1.00
C14    C     0.04663   0.04459   0.23406   0.00000  Uiso   1.00
C15    C     0.95003   0.03838   0.76658   0.00000  Uiso   1.00
C16    C     0.04997   0.96162   0.23342   0.00000  Uiso   1.00
C17    C     0.98720   0.06518   0.83665   0.00000  Uiso   1.00
C18    C     0.01280   0.93482   0.16335   0.00000  Uiso   1.00
N3     N     0.01481   0.00159   0.87802   0.00000  Uiso   1.00
N4     N     0.98519   0.99841   0.12198   0.00000  Uiso   1.00
C19    C     0.99372   0.15148   0.86016   0.00000  Uiso   1.00
C20    C     0.00628   0.84852   0.13984   0.00000  Uiso   1.00
H3     H     0.00746   0.68986   0.07656   0.00000  Uiso   1.00
H4     H     0.99254   0.31014   0.92344   0.00000  Uiso   1.00
H5     H     0.01145   0.69066   0.91941   0.00000  Uiso   1.00
H6     H     0.98855   0.30934   0.08059   0.00000  Uiso   1.00
H7     H     0.92166   0.07436   0.72100   0.00000  Uiso   1.00
H8     H     0.07834   0.92564   0.27900   0.00000  Uiso   1.00
H9     H     0.05276   0.00452   0.92957   0.00000  Uiso   1.00
H10    H     0.94724   0.99548   0.07043   0.00000  Uiso   1.00
C21    C     0.09506   0.24938   0.22027   0.00000  Uiso   1.00
C22    C     0.90493   0.75062   0.77973   0.00000  Uiso   1.00
H11    H     0.17156   0.23354   0.18521   0.00000  Uiso   1.00
H12    H     0.82844   0.76646   0.81480   0.00000  Uiso   1.00
C23    C     0.09659   0.30688   0.28006   0.00000  Uiso   1.00
C24    C     0.90341   0.69312   0.71994   0.00000  Uiso   1.00
C25    C     0.99892   0.32779   0.32480   0.00000  Uiso   1.00
C26    C     0.00108   0.67221   0.67520   0.00000  Uiso   1.00
C27    C     0.89996   0.29020   0.30931   0.00000  Uiso   1.00
C28    C     0.10004   0.70980   0.69069   0.00000  Uiso   1.00
H13    H     0.82249   0.30522   0.34345   0.00000  Uiso   1.00
H14    H     0.17751   0.69478   0.65655   0.00000  Uiso   1.00
C29    C     0.89886   0.23221   0.24998   0.00000  Uiso   1.00
C30    C     0.10114   0.76779   0.75002   0.00000  Uiso   1.00
H15    H     0.82134   0.20290   0.23826   0.00000  Uiso   1.00
H16    H     0.17866   0.79710   0.76174   0.00000  Uiso   1.00
C31    C     0.99625   0.21182   0.20528   0.00000  Uiso   1.00
C32    C     0.00375   0.78818   0.79472   0.00000  Uiso   1.00
C33    C     0.10483   0.75638   0.21508   0.00000  Uiso   1.00
C34    C     0.89517   0.24362   0.78492   0.00000  Uiso   1.00
H17    H     0.18099   0.77654   0.17679   0.00000  Uiso   1.00
H18    H     0.81901   0.22346   0.82321   0.00000  Uiso   1.00
C35    C     0.10514   0.69937   0.27544   0.00000  Uiso   1.00
C36    C     0.89486   0.30063   0.72456   0.00000  Uiso   1.00
H19    H     0.18209   0.67534   0.28319   0.00000  Uiso   1.00
H20    H     0.81791   0.32466   0.71681   0.00000  Uiso   1.00
C37    C     0.00781   0.67293   0.32433   0.00000  Uiso   1.00
C38    C     0.99219   0.32707   0.67567   0.00000  Uiso   1.00
C39    C     0.91066   0.70486   0.31268   0.00000  Uiso   1.00
C40    C     0.08934   0.29514   0.68732   0.00000  Uiso   1.00
H21    H     0.83349   0.68571   0.35017   0.00000  Uiso   1.00
H22    H     0.16651   0.31429   0.64983   0.00000  Uiso   1.00
C41    C     0.91086   0.76234   0.25289   0.00000  Uiso   1.00
C42    C     0.08913   0.23766   0.74711   0.00000  Uiso   1.00
H23    H     0.83469   0.78707   0.24424   0.00000  Uiso   1.00
H24    H     0.16531   0.21293   0.75576   0.00000  Uiso   1.00
C43    C     0.00757   0.78774   0.20355   0.00000  Uiso   1.00
C44    C     0.99243   0.21226   0.79645   0.00000  Uiso   1.00
H25    H     0.17496   0.33551   0.29070   0.00000  Uiso   1.00
H26    H     0.82504   0.66449   0.70929   0.00000  Uiso   1.00
O1     O     0.90556   0.41336   0.42338   0.00000  Uiso   1.00
O2     O     0.09443   0.58664   0.57662   0.00000  Uiso   1.00
O3     O     0.09526   0.41867   0.40624   0.00000  Uiso   1.00
O4     O     0.90474   0.58133   0.59375   0.00000  Uiso   1.00
C45    C     0.00004   0.38955   0.38786   0.00000  Uiso   1.00
C46    C     0.99996   0.61045   0.61214   0.00000  Uiso   1.00
O5     O     0.10060   0.58714   0.40308   0.00000  Uiso   1.00
O6     O     0.89940   0.41286   0.59692   0.00000  Uiso   1.00
O7     O     0.91076   0.58177   0.42602   0.00000  Uiso   1.00
O8     O     0.08924   0.41823   0.57398   0.00000  Uiso   1.00
C47    C     0.00659   0.61109   0.38759   0.00000  Uiso   1.00
C48    C     0.99341   0.38891   0.61241   0.00000  Uiso   1.00
Zn1    Zn    0.12281   0.50528   0.48740   0.00000  Uiso   1.00
Zn2    Zn    0.87719   0.49472   0.51260   0.00000  Uiso   1.00
N5     N     0.73257   0.48927   0.52592   0.00000  Uiso   1.00
N6     N     0.26743   0.51073   0.47408   0.00000  Uiso   1.00
C49    C     0.52054   0.48682   0.53180   0.00000  Uiso   1.00
C50    C     0.47946   0.51318   0.46820   0.00000  Uiso   1.00
C51    C     0.36208   0.51208   0.47083   0.00000  Uiso   1.00
C52    C     0.63792   0.48792   0.52917   0.00000  Uiso   1.00
O9     O     0.54880   0.54131   0.40030   0.00000  Uiso   1.00
H27    H     0.55341   0.49417   0.36363   0.00000  Uiso   1.00
O10    O     0.45120   0.45869   0.59970   0.00000  Uiso   1.00
H28    H     0.44659   0.50583   0.63637   0.00000  Uiso   1.00
