# Generated by REPEAT Assigner based on pymatgen
data_DB0-m29_o90_o510_f0_pts.sym.101
_audit_creation_date              2022-05-24
_audit_creation_method            REPEAT_Assigner
_cell_length_a                    14.472661
_cell_length_b                    16.632091
_cell_length_c                    13.188605
_cell_angle_alpha                 103.881855
_cell_angle_beta                  86.978489
_cell_angle_gamma                 64.616760
_cell_volume                      2740.244539
_symmetry_space_group_name_H-M    P1
_symmetry_Int_Tables_number       1
loop_
    _symmetry_equiv_pos_site_id
    _symmetry_equiv_pos_as_xyz
    1  x,y,z
loop_
    _atom_site_type_symbol
    _atom_site_label
    _atom_site_fract_x
    _atom_site_fract_y
    _atom_site_fract_z
    _atom_type_partial_charge
    C   C1   0.300798  0.980938  0.116292  -0.244673
    C   C2   0.197783  0.999309  0.125619  0.371017
    C   C3   0.150637  0.999302  0.036630  0.069234
    C   C4   0.206689  0.985097  0.939372  -0.233155
    H   H1   0.168995  0.993184  0.871448  0.168907
    C   C5   0.309933  0.967114  0.930665  0.024699
    C   C6   0.357271  0.961146  0.018660  -0.062527
    C   C7   0.039131  0.023137  0.050453  -0.008504
    C   C8   0.995389  0.994378  0.972085  -0.282309
    C   C9   0.838553  0.014408  0.897148  -0.273500
    H   H2   0.884316  0.994682  0.819809  0.146442
    C   C10  0.734809  0.036062  0.905929  0.043909
    C   C11  0.677162  0.057921  0.003657  -0.099841
    C   C12  0.724048  0.051946  0.092016  0.053524
    C   C13  0.827276  0.033877  0.083991  -0.274990
    H   H3   0.864151  0.027026  0.152549  0.196411
    C   C14  0.884236  0.017611  0.986469  0.322747
    H   H4   0.435934  0.952135  0.015138  0.146204
    H   H5   0.597842  0.068747  0.007336  0.130740
    H   H6   0.992028  0.064921  0.127816  0.075433
    H   H7   0.041503  0.953449  0.894011  0.158484
    O   O1   0.572626  0.060179  0.184107  -0.584935
    C   C15  0.667146  0.050966  0.187106  0.574111
    O   O2   0.693893  0.847692  0.203154  -0.491186
    O   O3   0.714710  0.026148  0.264579  -0.501022
    O   O4   0.596804  0.935225  0.365746  -0.544279
    C   C16  0.677973  0.860888  0.306006  0.603781
    Fe  Fe1  0.511092  0.021539  0.289212  1.473008
    O   O5   0.443691  0.948917  0.209412  -0.658636
    O   O6   0.299044  0.087461  0.273660  -0.502160
    C   C17  0.345375  0.002394  0.209721  0.776994
    O   O7   0.423643  0.144271  0.398412  -0.649469
    O   O8   0.380861  0.052707  0.473523  -0.460671
    C   C18  0.375680  0.134356  0.478436  0.729932
    O   O9   0.613746  0.872521  0.623313  -0.646537
    O   O10  0.654414  0.965174  0.548162  -0.448948
    C   C19  0.661079  0.883042  0.543325  0.711378
    O   O11  0.590706  0.067985  0.814647  -0.636518
    O   O12  0.739543  0.933817  0.743168  -0.507486
    C   C20  0.690213  0.016558  0.811907  0.660689
    O   O13  0.317618  0.996467  0.759944  -0.488288
    O   O14  0.439823  0.081357  0.655790  -0.551647
    C   C21  0.360077  0.156852  0.715832  0.593172
    O   O15  0.462579  0.955229  0.836100  -0.596386
    C   C22  0.366389  0.968379  0.835390  0.574309
    O   O16  0.345102  0.170728  0.818860  -0.488346
    Fe  Fe2  0.524750  0.994918  0.732614  1.490092
    C   C23  0.299293  0.217753  0.560005  -0.087971
    C   C24  0.233729  0.289436  0.523561  0.108120
    H   H8   0.242739  0.280216  0.439151  0.089003
    C   C25  0.155345  0.369668  0.592021  -0.455335
    C   C26  0.143889  0.378869  0.699354  0.143640
    H   H9   0.083399  0.440910  0.755275  0.039323
    C   C27  0.210321  0.308697  0.737246  -0.182038
    H   H10  0.199694  0.319007  0.821892  0.143788
    C   C28  0.288901  0.227322  0.669004  0.061654
    N   N1   0.006009  0.520572  0.615716  -0.242146
    N   N2   0.941988  0.585957  0.577293  -0.247195
    C   C29  0.954559  0.575548  0.472266  0.787965
    N   N3   0.033002  0.498025  0.406525  -0.243998
    N   N4   0.097013  0.432636  0.444945  -0.240726
    C   C30  0.084431  0.443033  0.549966  0.783748
    C   C31  0.895528  0.639869  0.322897  0.140900
    H   H11  0.956670  0.578207  0.267112  0.041002
    C   C32  0.828882  0.709853  0.284904  -0.170803
    H   H12  0.839971  0.699769  0.200315  0.140337
    C   C33  0.749430  0.790715  0.352966  0.039355
    C   C34  0.738391  0.800030  0.461909  -0.075265
    C   C35  0.804291  0.728549  0.498443  0.114272
    H   H13  0.794830  0.737523  0.582798  0.086918
    C   C36  0.883490  0.648787  0.430150  -0.463992
    O   O17  0.141494  0.021146  0.223665  -0.421428
    C   C37  0.161947  0.935997  0.241529  0.198797
    H   H14  0.231197  0.912786  0.280156  0.014796
    H   H15  0.176267  0.882849  0.165312  -0.045346
    C   C38  0.069194  0.947815  0.313788  0.274842
    H   H16  0.054531  0.001113  0.390000  -0.027611
    H   H17  0.999776  0.970679  0.275406  -0.054289
    C   C39  0.090395  0.856387  0.334971  -0.299805
    H   H18  0.104718  0.802804  0.259123  0.059542
    H   H19  0.021994  0.865948  0.387798  0.079888
    H   H20  0.159336  0.833359  0.374092  0.050851
