# Generated by REPEAT Assigner based on pymatgen
data_DB0-m3_o8_o9_f0_pcu.sym.80
_audit_creation_date              2022-05-24
_audit_creation_method            REPEAT_Assigner
_cell_length_a                    10.993852
_cell_length_b                    15.918562
_cell_length_c                    17.110905
_cell_angle_alpha                 89.119881
_cell_angle_beta                  89.992987
_cell_angle_gamma                 92.792319
_cell_volume                      2990.606898
_symmetry_space_group_name_H-M    P1
_symmetry_Int_Tables_number       1
loop_
    _symmetry_equiv_pos_site_id
    _symmetry_equiv_pos_as_xyz
    1  x,y,z
loop_
    _atom_site_type_symbol
    _atom_site_label
    _atom_site_fract_x
    _atom_site_fract_y
    _atom_site_fract_z
    _atom_type_partial_charge
    O   O1   0.498874  0.410854  0.617084  -0.682562
    O   O2   0.507978  0.570635  0.390563  -0.682115
    O   O3   0.509026  0.555550  0.623229  -0.726831
    O   O4   0.497540  0.425945  0.384408  -0.727479
    C   C1   0.504165  0.480822  0.656762  0.814305
    C   C2   0.502361  0.500676  0.350878  0.836410
    O   O5   0.679187  0.417791  0.499891  -0.748559
    O   O6   0.327558  0.563792  0.507816  -0.648549
    O   O7   0.689916  0.562370  0.506347  -0.717184
    O   O8   0.316665  0.419065  0.501512  -0.639358
    C   C3   0.741892  0.490040  0.502848  0.976294
    C   C4   0.264617  0.491610  0.504677  0.720879
    Zn  Zn1  0.496136  0.395331  0.499773  1.076526
    Zn  Zn2  0.510589  0.586206  0.507870  1.040170
    H   H1   0.737297  0.727972  0.233705  0.126047
    H   H2   0.259188  0.228523  0.756093  0.120466
    C   C5   0.811189  0.609997  0.263138  -0.060740
    C   C6   0.215243  0.355262  0.730729  -0.090272
    H   H3   0.795916  0.584346  0.205642  0.107260
    H   H4   0.248539  0.378595  0.786102  0.099492
    C   C7   0.863687  0.562214  0.320679  -0.238829
    C   C8   0.166505  0.409661  0.677088  -0.150768
    H   H5   0.889871  0.499249  0.308081  0.110521
    H   H6   0.161767  0.475548  0.690556  0.073990
    C   C9   0.884067  0.594945  0.394020  0.217369
    C   C10  0.120697  0.379590  0.607265  0.429389
    C   C11  0.851089  0.675656  0.409619  -0.027769
    C   C12  0.125415  0.295126  0.590855  -0.350331
    H   H7   0.866502  0.701632  0.466965  0.052009
    H   H8   0.088998  0.271274  0.536403  0.139754
    C   C13  0.798126  0.723265  0.352126  -0.151465
    C   C14  0.176085  0.241045  0.643999  -0.047447
    H   H9   0.772369  0.786384  0.364461  0.094206
    H   H10  0.179807  0.174967  0.631048  0.096637
    C   C15  0.778454  0.690528  0.278836  -0.185279
    C   C16  0.220619  0.271061  0.714065  -0.208485
    C   C17  0.069753  0.546824  0.456002  0.252910
    C   C18  0.936175  0.437139  0.553059  0.300239
    C   C19  0.130209  0.491975  0.504751  -0.172540
    C   C20  0.875957  0.490218  0.502888  -0.361031
    C   C21  0.061996  0.436213  0.552426  -0.202616
    C   C22  0.943691  0.544533  0.453795  -0.013086
    C   C23  0.505799  0.475369  0.742446  -0.177814
    C   C24  0.501172  0.506166  0.265197  -0.221067
    C   C25  0.497579  0.547083  0.786338  -0.103028
    C   C26  0.506378  0.434211  0.221305  -0.054619
    C   C27  0.498569  0.542330  0.866916  -0.186835
    C   C28  0.506210  0.439028  0.140724  -0.176506
    C   C29  0.508373  0.465088  0.904570  0.480762
    C   C30  0.500319  0.516584  0.103064  0.482434
    C   C31  0.517695  0.393834  0.860574  -0.458102
    C   C32  0.494206  0.588109  0.147052  -0.418680
    C   C33  0.516526  0.398667  0.780085  0.258069
    C   C34  0.494697  0.583221  0.227537  0.164188
    N   N1   0.508842  0.456737  0.987045  -0.226138
    N   N2   0.500163  0.524952  0.020590  -0.247164
    H   H11  0.511440  0.373159  0.249264  0.121510
    H   H12  0.489271  0.607849  0.758369  0.132217
    H   H13  0.510717  0.380777  0.109448  0.064224
    H   H14  0.491195  0.600349  0.898190  0.074584
    H   H15  0.525689  0.333515  0.889516  0.143188
    H   H16  0.489254  0.648683  0.118102  0.139158
    H   H17  0.524100  0.341668  0.747315  0.040476
    H   H18  0.489714  0.640460  0.260264  0.060390
    N   N3   0.520693  0.711787  0.513137  -0.099934
    N   N4   0.486500  0.269791  0.494518  -0.085875
    C   C35  0.482678  0.758351  0.452282  0.034814
    C   C36  0.546693  0.224614  0.547814  -0.040952
    C   C37  0.485157  0.844954  0.455949  -0.173915
    C   C38  0.545445  0.138067  0.544075  -0.147136
    C   C39  0.528870  0.884396  0.522625  0.471116
    C   C40  0.481954  0.097412  0.484501  0.481148
    C   C41  0.570756  0.835680  0.583130  -0.347039
    C   C42  0.420717  0.144965  0.430837  -0.354281
    C   C43  0.565786  0.749287  0.577690  0.078457
    C   C44  0.423585  0.231316  0.436649  0.123818
    N   N5   0.531828  0.972803  0.530695  -0.215427
    N   N6   0.478751  0.008971  0.476534  -0.233591
    H   H19  0.597569  0.256296  0.593660  0.173537
    H   H20  0.447543  0.727912  0.400423  0.181095
    H   H21  0.596041  0.104936  0.587983  0.066457
    H   H22  0.452638  0.879258  0.405745  0.073392
    H   H23  0.606105  0.865201  0.635451  0.148628
    H   H24  0.370685  0.114523  0.383898  0.149189
    H   H25  0.597973  0.711773  0.625854  0.139488
    H   H26  0.375854  0.268179  0.394050  0.116550
    S   S1   0.152035  0.616942  0.389737  -0.248087
    C   C45  0.144821  0.705147  0.455617  0.195035
    H   H27  0.237409  0.724986  0.475281  -0.046404
    H   H28  0.089680  0.686295  0.507789  -0.026291
    H   H29  0.102521  0.758350  0.425179  -0.029828
    S   S2   0.853394  0.373075  0.623978  -0.169914
    C   C46  0.861517  0.455122  0.696732  -0.046902
    H   H30  0.901446  0.430272  0.751399  0.035923
    H   H31  0.769059  0.476586  0.708379  0.012018
    H   H32  0.919685  0.509392  0.675092  0.042086
