# Generated by REPEAT Assigner based on pymatgen
data_DB0-m3_o7_o27_f0_nbo.sym.109_sqe
_audit_creation_date              2022-05-24
_audit_creation_method            REPEAT_Assigner
_cell_length_a                    35.538469
_cell_length_b                    35.538458
_cell_length_c                    38.646202
_cell_angle_alpha                 90.000000
_cell_angle_beta                  90.000000
_cell_angle_gamma                 90.000000
_cell_volume                      48809.472866
_symmetry_space_group_name_H-M    P1
_symmetry_Int_Tables_number       1
loop_
    _symmetry_equiv_pos_site_id
    _symmetry_equiv_pos_as_xyz
    1  x,y,z
loop_
    _atom_site_type_symbol
    _atom_site_label
    _atom_site_fract_x
    _atom_site_fract_y
    _atom_site_fract_z
    _atom_type_partial_charge
    O   O1    0.055879  0.468445  0.499382  -0.709260
    O   O2    0.468486  0.943984  0.500928  -0.702377
    O   O3    0.944026  0.531541  0.500995  -0.709916
    O   O4    0.531421  0.055945  0.499465  -0.688686
    O   O5    0.056071  0.533302  0.500639  -0.674924
    O   O6    0.466563  0.056027  0.500712  -0.689409
    O   O7    0.943833  0.466698  0.499101  -0.676737
    O   O8    0.533331  0.943902  0.499041  -0.682543
    O   O9    0.556061  0.966608  0.999425  -0.680776
    O   O10   0.968334  0.444075  0.999347  -0.708263
    O   O11   0.443866  0.033261  0.000910  -0.683373
    O   O12   0.031582  0.555845  0.001029  -0.709716
    O   O13   0.555911  0.031467  0.000637  -0.695733
    O   O14   0.966738  0.556123  0.999155  -0.675748
    O   O15   0.444017  0.968415  0.999056  -0.698470
    O   O16   0.033191  0.443798  0.000584  -0.674743
    C   C1    0.073598  0.500833  0.499985  0.646019
    C   C2    0.500896  0.926322  0.499996  0.659576
    C   C3    0.926308  0.499159  0.500084  0.647209
    C   C4    0.499004  0.073608  0.500088  0.624530
    C   C5    0.573609  0.999068  0.000058  0.640278
    C   C6    0.000699  0.426314  0.999928  0.642592
    C   C7    0.426321  0.000808  0.999947  0.646298
    C   C8    0.999223  0.573606  0.000140  0.645672
    O   O17   0.999175  0.466699  0.448422  -0.663610
    O   O18   0.468402  0.000737  0.448607  -0.697533
    O   O19   0.000714  0.531545  0.448602  -0.681049
    O   O20   0.533255  0.999331  0.448432  -0.699408
    O   O21   0.000896  0.533289  0.551636  -0.688762
    O   O22   0.466654  0.000766  0.551642  -0.662671
    O   O23   0.999014  0.468453  0.551456  -0.707218
    O   O24   0.531490  0.999014  0.551465  -0.711527
    O   O25   0.500882  0.966601  0.948421  -0.692799
    O   O26   0.966645  0.500828  0.948432  -0.662938
    O   O27   0.499061  0.031434  0.948560  -0.710485
    O   O28   0.031490  0.499207  0.948592  -0.680285
    O   O29   0.499215  0.033284  0.051593  -0.694077
    O   O30   0.968439  0.500889  0.051466  -0.706570
    O   O31   0.500688  0.968433  0.051454  -0.711594
    O   O32   0.033272  0.498926  0.051625  -0.689111
    C   C9    0.999968  0.499164  0.432289  0.627422
    C   C10   0.500788  0.000079  0.432300  0.692630
    C   C11   0.999928  0.500829  0.567768  0.697867
    C   C12   0.499112  0.999842  0.567778  0.660512
    C   C13   0.499947  0.999047  0.932265  0.689932
    C   C14   0.999104  0.500010  0.932289  0.625618
    C   C15   0.499973  0.000828  0.067743  0.692234
    C   C16   0.000820  0.499918  0.067767  0.697288
    Zn  Zn1   0.000003  0.457433  0.500078  1.322983
    Zn  Zn2   0.457385  0.999837  0.499986  1.320893
    Zn  Zn3   0.999894  0.542560  0.499983  1.322227
    Zn  Zn4   0.542515  0.000085  0.500090  1.328390
    Zn  Zn5   0.499880  0.957373  0.000081  1.328220
    Zn  Zn6   0.957398  0.499965  0.000091  1.322802
    Zn  Zn7   0.500041  0.042503  0.999929  1.326873
    Zn  Zn8   0.042525  0.499963  0.999969  1.322543
    Zn  Zn9   0.500022  0.499917  0.460888  1.328267
    Zn  Zn10  0.499891  0.500014  0.539228  1.322391
    Zn  Zn11  0.999898  0.999882  0.960851  1.329028
    Zn  Zn12  0.000034  0.000043  0.039191  1.321014
    C   C17   0.993287  0.532239  0.376516  -0.289870
    C   C18   0.533381  0.007619  0.376395  -0.296088
    C   C19   0.006799  0.466433  0.376363  -0.290156
    C   C20   0.467872  0.992744  0.376530  -0.299988
    C   C21   0.991086  0.468227  0.623515  -0.295180
    C   C22   0.531866  0.991564  0.623535  -0.286566
    C   C23   0.008605  0.533086  0.623706  -0.294369
    C   C24   0.466702  0.007923  0.623727  -0.312726
    C   C25   0.491607  0.031744  0.876492  -0.301023
    C   C26   0.032164  0.506787  0.876521  -0.291252
    C   C27   0.508130  0.966618  0.876335  -0.299763
    C   C28   0.966351  0.493312  0.876360  -0.289502
    C   C29   0.492628  0.967933  0.123521  -0.301026
    C   C30   0.033090  0.491117  0.123683  -0.296364
    C   C31   0.507456  0.033452  0.123641  -0.300631
    C   C32   0.968241  0.508674  0.123537  -0.294803
    H   H1    0.987971  0.557616  0.391019  0.153307
    H   H2    0.558705  0.013447  0.390809  0.145130
    H   H3    0.012072  0.440968  0.390748  0.151540
    H   H4    0.442630  0.986869  0.391049  0.140936
    H   H5    0.984235  0.443241  0.608983  0.145079
    H   H6    0.556978  0.985167  0.609014  0.146915
    H   H7    0.015503  0.558161  0.609322  0.142814
    H   H8    0.441487  0.014342  0.609363  0.152750
    H   H9    0.485146  0.056850  0.890999  0.148091
    H   H10   0.057549  0.512051  0.891028  0.153809
    H   H11   0.514636  0.941441  0.890722  0.144081
    H   H12   0.940888  0.488016  0.890743  0.151060
    H   H13   0.486773  0.942682  0.109007  0.145482
    H   H14   0.058157  0.484237  0.109281  0.143694
    H   H15   0.513269  0.058775  0.109219  0.144514
    H   H16   0.943256  0.515573  0.109024  0.144687
    C   C33   0.992827  0.532531  0.340676  0.400441
    C   C34   0.533457  0.008197  0.340555  0.412237
    C   C35   0.007379  0.466363  0.340525  0.402232
    C   C36   0.467596  0.992281  0.340689  0.417655
    C   C37   0.990523  0.467964  0.659354  0.407443
    C   C38   0.532142  0.991030  0.659375  0.412390
    C   C39   0.009038  0.533135  0.659547  0.411466
    C   C40   0.466651  0.008359  0.659566  0.406788
    C   C41   0.491077  0.031996  0.840653  0.407241
    C   C42   0.032439  0.507357  0.840683  0.401275
    C   C43   0.508535  0.966540  0.840494  0.413848
    C   C44   0.966264  0.492838  0.840521  0.400937
    C   C45   0.492166  0.967666  0.159362  0.413378
    C   C46   0.033144  0.490590  0.159523  0.412199
    C   C47   0.508034  0.033538  0.159481  0.415388
    C   C48   0.967983  0.509141  0.159378  0.407640
    C   C49   0.000134  0.499503  0.322608  -0.973972
    C   C50   0.500477  0.000264  0.322623  -0.931344
    C   C51   0.999743  0.500497  0.677436  -0.929615
    C   C52   0.499449  0.999661  0.677451  -0.952516
    C   C53   0.499774  0.999311  0.822597  -0.926412
    C   C54   0.999397  0.500128  0.822609  -0.970775
    C   C55   0.500130  0.000556  0.177420  -0.930065
    C   C56   0.000510  0.499847  0.177436  -0.929136
    C   C57   0.000015  0.499281  0.394330  0.153832
    C   C58   0.500677  0.000151  0.394346  0.147767
    C   C59   0.999875  0.500711  0.605724  0.141642
    C   C60   0.499228  0.999772  0.605739  0.155396
    C   C61   0.499898  0.999138  0.894305  0.151919
    C   C62   0.999209  0.500033  0.894331  0.154801
    C   C63   0.500015  0.000738  0.105697  0.152864
    C   C64   0.000716  0.499906  0.105723  0.142764
    N   N1    0.976476  0.477179  0.267016  -0.423710
    N   N2    0.477227  0.023532  0.267203  -0.390627
    N   N3    0.024031  0.522147  0.267212  -0.422812
    N   N4    0.523429  0.977183  0.267031  -0.392514
    N   N5    0.977041  0.524047  0.732931  -0.395555
    N   N6    0.476447  0.976376  0.732926  -0.394630
    N   N7    0.022176  0.476649  0.732919  -0.396075
    N   N8    0.522718  0.022672  0.732934  -0.421958
    N   N9    0.476446  0.976370  0.767116  -0.407006
    N   N10   0.977043  0.524038  0.767121  -0.423071
    N   N11   0.522868  0.022515  0.767124  -0.379205
    N   N12   0.022012  0.476483  0.767109  -0.422334
    N   N13   0.477057  0.023512  0.233013  -0.393097
    N   N14   0.976644  0.477177  0.232826  -0.395188
    N   N15   0.523432  0.977337  0.232840  -0.390649
    N   N16   0.024043  0.522310  0.233022  -0.394735
    C   C65   0.000392  0.499782  0.215426  1.067492
    C   C66   0.500203  0.000460  0.215423  1.061941
    C   C67   0.999485  0.500216  0.784614  1.148426
    C   C68   0.499696  0.999399  0.784614  1.064032
    C   C69   0.499548  0.999562  0.715436  1.109875
    C   C70   0.999651  0.500393  0.715427  1.070848
    C   C71   0.500372  0.000325  0.284621  1.063748
    C   C72   0.000209  0.499619  0.284613  1.151476
    C   C73   0.326704  0.499286  0.530345  -0.201566
    C   C74   0.501321  0.673200  0.530412  -0.209195
    C   C75   0.673372  0.498839  0.531447  -0.196297
    C   C76   0.500381  0.326533  0.531382  -0.207932
    C   C77   0.326542  0.501132  0.468666  -0.207326
    C   C78   0.498566  0.326732  0.469703  -0.204591
    C   C79   0.673206  0.500651  0.469767  -0.212823
    C   C80   0.499539  0.673397  0.468731  -0.207145
    C   C81   0.826548  0.998817  0.031410  -0.207595
    C   C82   0.998942  0.173219  0.030266  -0.197530
    C   C83   0.173217  0.999303  0.030306  -0.212359
    C   C84   0.999193  0.826556  0.031463  -0.196749
    C   C85   0.826717  0.000614  0.969730  -0.210273
    C   C86   0.000973  0.826702  0.969782  -0.209266
    C   C87   0.173380  0.001066  0.968625  -0.204305
    C   C88   0.000756  0.173371  0.968586  -0.207499
    H   H17   0.311531  0.498588  0.554576  0.144083
    H   H18   0.502060  0.688359  0.554649  0.145770
    H   H19   0.688673  0.498105  0.555608  0.142221
    H   H20   0.501052  0.311218  0.555538  0.142199
    H   H21   0.311242  0.501883  0.444505  0.142478
    H   H22   0.497812  0.311574  0.445466  0.145223
    H   H23   0.688378  0.501339  0.445535  0.143882
    H   H24   0.498880  0.688711  0.444575  0.144604
    H   H25   0.811246  0.998073  0.055570  0.144386
    H   H26   0.998255  0.188396  0.054495  0.142529
    H   H27   0.188390  0.998646  0.054538  0.145370
    H   H28   0.998470  0.811262  0.055628  0.142803
    H   H29   0.811546  0.001280  0.945497  0.145437
    H   H30   0.001646  0.811523  0.945554  0.142896
    H   H31   0.188681  0.001793  0.944463  0.143416
    H   H32   0.001492  0.188667  0.944422  0.142921
    C   C89   0.365493  0.499226  0.530328  -0.149805
    C   C90   0.501214  0.634411  0.530380  -0.137246
    C   C91   0.634583  0.498885  0.531606  -0.149481
    C   C92   0.500498  0.365321  0.531556  -0.138139
    C   C93   0.365331  0.501076  0.468508  -0.135569
    C   C94   0.498679  0.365522  0.469736  -0.147422
    C   C95   0.634417  0.500700  0.469786  -0.131795
    C   C96   0.499428  0.634609  0.468559  -0.143529
    C   C97   0.865337  0.998908  0.031572  -0.138287
    C   C98   0.998909  0.134430  0.030254  -0.150752
    C   C99   0.134428  0.999221  0.030288  -0.134721
    C   C100  0.999224  0.865345  0.031612  -0.151348
    C   C101  0.865506  0.000708  0.969752  -0.141117
    C   C102  0.001007  0.865492  0.969791  -0.133667
    C   C103  0.134592  0.000988  0.968466  -0.142483
    C   C104  0.000726  0.134582  0.968434  -0.137411
    H   H33   0.380156  0.498472  0.554806  0.135803
    H   H34   0.501881  0.619735  0.554853  0.132229
    H   H35   0.620052  0.498179  0.556152  0.133629
    H   H36   0.501265  0.379839  0.556107  0.132654
    H   H37   0.379863  0.501791  0.443963  0.131564
    H   H38   0.498000  0.380199  0.445263  0.135063
    H   H39   0.619753  0.501438  0.445308  0.132156
    H   H40   0.498677  0.620091  0.444008  0.133168
    H   H41   0.879868  0.998222  0.056119  0.131547
    H   H42   0.998185  0.119772  0.054736  0.135350
    H   H43   0.119765  0.998494  0.054767  0.132258
    H   H44   0.998517  0.879884  0.056154  0.134144
    H   H45   0.880170  0.001453  0.945274  0.133890
    H   H46   0.001718  0.880148  0.945308  0.132110
    H   H47   0.120059  0.001664  0.943920  0.133169
    H   H48   0.001447  0.120045  0.943892  0.131700
    C   C105  0.385039  0.500125  0.499374  0.089062
    C   C106  0.500264  0.614883  0.499417  0.085746
    C   C107  0.614873  0.499814  0.500742  0.086062
    C   C108  0.499648  0.385049  0.500699  0.087634
    C   C109  0.885049  0.999850  0.000708  0.084933
    C   C110  0.999812  0.114879  0.999303  0.091748
    C   C111  0.114883  0.000069  0.999332  0.081745
    C   C112  0.000121  0.885046  0.000741  0.089720
    C   C113  0.307239  0.500241  0.499549  0.280711
    C   C114  0.500483  0.692682  0.499623  0.284052
    C   C115  0.692672  0.499719  0.500562  0.280769
    C   C116  0.499417  0.307249  0.500491  0.283995
    C   C117  0.807249  0.999665  0.000524  0.285616
    C   C118  0.999873  0.192678  0.999467  0.278298
    C   C119  0.192682  0.000229  0.999510  0.284318
    C   C120  0.000057  0.807245  0.000583  0.277950
    C   C121  0.266887  0.500323  0.499639  -0.167714
    C   C122  0.500579  0.733033  0.499726  -0.171414
    C   C123  0.733023  0.499647  0.500470  -0.167484
    C   C124  0.499316  0.266898  0.500386  -0.169025
    C   C125  0.766898  0.999553  0.000428  -0.172502
    C   C126  0.999969  0.233029  0.999553  -0.165932
    C   C127  0.233033  0.000331  0.999602  -0.169985
    C   C128  0.999958  0.766894  0.000501  -0.164942
    C   C129  0.232998  0.500402  0.499711  -0.147960
    C   C130  0.500650  0.766923  0.499803  -0.142607
    C   C131  0.766912  0.499575  0.500395  -0.149231
    C   C132  0.499243  0.233008  0.500307  -0.147437
    C   C133  0.733008  0.999460  0.000349  -0.140864
    C   C134  0.000074  0.266918  0.999625  -0.149715
    C   C135  0.266922  0.000419  0.999674  -0.143398
    C   C136  0.999851  0.733004  0.000435  -0.151558
    C   C137  0.173355  0.534099  0.500575  -0.197305
    C   C138  0.534284  0.826607  0.498954  -0.199331
    C   C139  0.826556  0.465892  0.499314  -0.200112
    C   C140  0.465605  0.173322  0.500938  -0.193029
    C   C141  0.173170  0.467020  0.499079  -0.192980
    C   C142  0.532684  0.173224  0.499452  -0.198947
    C   C143  0.826735  0.532958  0.501224  -0.194362
    C   C144  0.467218  0.826708  0.500864  -0.197782
    C   C145  0.673189  0.032848  0.000942  -0.202661
    C   C146  0.033840  0.326518  0.000481  -0.199421
    C   C147  0.326741  0.967036  0.998849  -0.201905
    C   C148  0.966089  0.673404  0.999381  -0.201217
    C   C149  0.673357  0.965768  0.999501  -0.193032
    C   C150  0.033155  0.673135  0.001267  -0.195179
    C   C151  0.326573  0.034103  0.000728  -0.194044
    C   C152  0.966761  0.326785  0.999008  -0.193122
    H   H49   0.188664  0.560371  0.501135  0.141913
    H   H50   0.560569  0.811331  0.498181  0.140423
    H   H51   0.811248  0.439622  0.498598  0.141659
    H   H52   0.439313  0.188597  0.501547  0.139346
    H   H53   0.188334  0.440665  0.498462  0.138402
    H   H54   0.559021  0.188422  0.498895  0.141248
    H   H55   0.811569  0.559307  0.502005  0.138826
    H   H56   0.440884  0.811511  0.501590  0.140659
    H   H57   0.688359  0.059200  0.001539  0.141468
    H   H58   0.060094  0.311176  0.001030  0.141973
    H   H59   0.311571  0.940689  0.998085  0.142183
    H   H60   0.939840  0.688746  0.998669  0.142679
    H   H61   0.688660  0.939491  0.998966  0.138317
    H   H62   0.059525  0.688266  0.002035  0.139620
    H   H63   0.311270  0.060375  0.001436  0.138883
    H   H64   0.940387  0.311654  0.998399  0.138461
    C   C153  0.134566  0.534280  0.500644  -0.138692
    C   C154  0.534420  0.865397  0.498999  -0.142689
    C   C155  0.865344  0.465714  0.499235  -0.137792
    C   C156  0.465471  0.134532  0.500885  -0.165406
    C   C157  0.134380  0.467049  0.499146  -0.158304
    C   C158  0.532702  0.134435  0.499398  -0.145146
    C   C159  0.865525  0.532932  0.501149  -0.159284
    C   C160  0.467202  0.865497  0.500914  -0.137018
    C   C161  0.634400  0.032828  0.000871  -0.141208
    C   C162  0.034070  0.365306  0.000555  -0.137833
    C   C163  0.365529  0.967055  0.998912  -0.144397
    C   C164  0.965859  0.634616  0.999308  -0.136263
    C   C165  0.634568  0.965596  0.999429  -0.146125
    C   C166  0.033077  0.634345  0.001200  -0.160083
    C   C167  0.365362  0.034275  0.000795  -0.146741
    C   C168  0.966838  0.365575  0.999081  -0.160199
    H   H65   0.120043  0.560978  0.501265  0.131629
    H   H66   0.561094  0.879956  0.498254  0.132628
    H   H67   0.879869  0.439022  0.498450  0.131213
    H   H68   0.438792  0.119971  0.501463  0.142944
    H   H69   0.119708  0.440432  0.498571  0.140824
    H   H70   0.559339  0.119800  0.498789  0.133520
    H   H71   0.880195  0.559546  0.501881  0.141448
    H   H72   0.440570  0.880133  0.501686  0.133547
    H   H73   0.619737  0.059451  0.001423  0.133672
    H   H74   0.060785  0.379796  0.001171  0.130975
    H   H75   0.380193  0.940437  0.998189  0.134640
    H   H76   0.939147  0.620127  0.998533  0.129604
    H   H77   0.620035  0.938903  0.998829  0.134688
    H   H78   0.059672  0.619640  0.001922  0.141162
    H   H79   0.379894  0.060963  0.001564  0.134276
    H   H80   0.940239  0.380280  0.998518  0.141087
    C   C169  0.114847  0.500718  0.499928  0.100244
    C   C170  0.500841  0.885073  0.499975  0.091294
    C   C171  0.885060  0.499271  0.500154  0.101375
    C   C172  0.499058  0.114857  0.500119  0.117994
    C   C173  0.614857  0.999164  0.000117  0.102176
    C   C174  0.000532  0.385066  0.999854  0.103931
    C   C175  0.385072  0.000713  0.999886  0.103165
    C   C176  0.999390  0.614854  0.000218  0.103121
    C   C177  0.192646  0.500507  0.499792  0.263823
    C   C178  0.500720  0.807274  0.499882  0.262638
    C   C179  0.807262  0.499475  0.500309  0.267697
    C   C180  0.499174  0.192657  0.500225  0.264393
    C   C181  0.692657  0.999356  0.000260  0.260892
    C   C182  0.000225  0.307268  0.999707  0.265696
    C   C183  0.307273  0.000521  0.999755  0.262408
    C   C184  0.999698  0.692653  0.000358  0.268680
    O   O33   0.499250  0.556114  0.469448  -0.686792
    O   O34   0.555918  0.500701  0.471049  -0.709698
    O   O35   0.498991  0.444021  0.471029  -0.703009
    O   O36   0.443825  0.500931  0.469427  -0.690566
    O   O37   0.500684  0.443818  0.530669  -0.688571
    O   O38   0.556088  0.499021  0.530690  -0.683089
    O   O39   0.500903  0.555911  0.529088  -0.705515
    O   O40   0.443995  0.499211  0.529067  -0.700393
    O   O41   0.000736  0.056085  0.969371  -0.690121
    O   O42   0.056096  0.000839  0.969386  -0.687376
    O   O43   0.000865  0.943993  0.971030  -0.708688
    O   O44   0.944003  0.000738  0.971016  -0.704974
    O   O45   0.999216  0.943840  0.030671  -0.682379
    O   O46   0.055929  0.999208  0.029027  -0.704134
    O   O47   0.999047  0.055933  0.029011  -0.700933
    O   O48   0.943836  0.999067  0.030656  -0.686712
    C   C185  0.500140  0.573634  0.499307  0.664836
    C   C186  0.573624  0.499854  0.500837  0.663569
    C   C187  0.499774  0.426298  0.500809  0.663292
    C   C188  0.426289  0.500078  0.499280  0.660402
    C   C189  0.999846  0.073630  0.999219  0.659511
    C   C190  0.073634  0.000020  0.999238  0.666090
    C   C191  0.000086  0.926295  0.000824  0.660240
    C   C192  0.926298  0.999905  0.000804  0.664885
    C   C193  0.983294  0.567962  0.321419  0.193860
    O   O49   0.970388  0.595808  0.343875  -0.580863
    H   H81   0.960783  0.562125  0.302273  -0.005574
    H   H82   0.008536  0.578683  0.307764  0.056006
    H   H83   0.942805  0.596235  0.340312  0.356718
    C   C194  0.568569  0.018558  0.321160  0.192352
    O   O50   0.596340  0.031755  0.343551  -0.590606
    H   H84   0.562256  0.041040  0.302113  0.043655
    H   H85   0.579628  0.993519  0.307419  -0.008027
    H   H86   0.616874  0.013044  0.341662  0.375229
    C   C195  0.016985  0.431051  0.321112  0.189913
    O   O51   0.029820  0.403070  0.343460  -0.579211
    H   H87   0.039560  0.437008  0.302062  -0.004317
    H   H88   0.991791  0.420409  0.307330  0.057166
    H   H89   0.057411  0.402650  0.339955  0.356466
    C   C196  0.432374  0.981990  0.321431  0.192739
    O   O52   0.404719  0.968744  0.343918  -0.593322
    H   H90   0.438573  0.959559  0.302302  0.043286
    H   H91   0.421253  0.007073  0.307802  -0.008590
    H   H92   0.384160  0.987440  0.342126  0.378006
    C   C197  0.978826  0.433186  0.678613  0.199293
    O   O53   0.964762  0.405965  0.656097  -0.593903
    H   H93   0.956496  0.440243  0.697590  0.044156
    H   H94   0.003387  0.421205  0.692428  -0.005498
    H   H95   0.982826  0.384848  0.657880  0.374416
    C   C198  0.567124  0.980004  0.678653  0.186817
    O   O54   0.594653  0.966536  0.656147  -0.587557
    H   H96   0.560493  0.957505  0.697591  0.047747
    H   H97   0.578586  0.004777  0.692520  -0.007125
    H   H98   0.615426  0.984982  0.658031  0.371920
    C   C199  0.020666  0.567797  0.679015  0.186783
    O   O55   0.034854  0.595132  0.656683  -0.589819
    H   H99   0.042903  0.560619  0.698047  0.047292
    H   H100  0.996048  0.579717  0.692789  -0.002193
    H   H101  0.016890  0.616318  0.658613  0.374341
    C   C200  0.431783  0.019329  0.679042  0.193863
    O   O56   0.404266  0.033226  0.656744  -0.574487
    H   H102  0.438658  0.041658  0.698077  -0.010532
    H   H103  0.420209  0.994572  0.692857  0.057174
    H   H104  0.404965  0.060820  0.660195  0.353935
    C   C201  0.479988  0.066940  0.821348  0.191934
    O   O57   0.466501  0.094477  0.843836  -0.591823
    H   H105  0.457484  0.060255  0.802431  0.049124
    H   H106  0.504735  0.078420  0.807453  -0.008955
    H   H107  0.484879  0.115302  0.841870  0.374781
    C   C202  0.067867  0.516936  0.821438  0.188749
    O   O58   0.095732  0.529750  0.843919  -0.579960
    H   H108  0.062034  0.539515  0.802359  -0.003792
    H   H109  0.078566  0.491734  0.807707  0.057187
    H   H110  0.096136  0.557350  0.840470  0.356896
    C   C203  0.519553  0.931689  0.821012  0.195013
    O   O59   0.533124  0.904044  0.843346  -0.587729
    H   H111  0.541986  0.938465  0.802052  0.038542
    H   H112  0.494755  0.920275  0.807148  -0.003052
    H   H113  0.514729  0.883236  0.841366  0.373190
    C   C204  0.930937  0.483310  0.821098  0.190089
    O   O60   0.902973  0.470390  0.843422  -0.579514
    H   H114  0.936879  0.460808  0.801971  -0.004715
    H   H115  0.920287  0.508557  0.807404  0.057089
    H   H116  0.902591  0.442805  0.839867  0.357067
    C   C205  0.481902  0.932441  0.178627  0.199743
    O   O61   0.468673  0.904771  0.156146  -0.595098
    H   H117  0.459468  0.938629  0.197757  0.042180
    H   H118  0.506992  0.921340  0.192258  -0.010467
    H   H119  0.487473  0.884296  0.157821  0.377304
    C   C206  0.067802  0.478892  0.178962  0.189846
    O   O62   0.095150  0.464800  0.156593  -0.591082
    H   H120  0.060622  0.456580  0.197918  0.046854
    H   H121  0.079712  0.503458  0.192823  -0.003198
    H   H122  0.116264  0.482856  0.158471  0.374053
    C   C207  0.518370  0.068663  0.178868  0.190730
    O   O63   0.531540  0.096440  0.156469  -0.591829
    H   H123  0.540862  0.062374  0.197912  0.044066
    H   H124  0.493325  0.079704  0.192609  -0.006918
    H   H125  0.512830  0.116974  0.158383  0.376098
    C   C208  0.933214  0.520803  0.178666  0.195718
    O   O64   0.906009  0.534968  0.156188  -0.593295
    H   H126  0.940289  0.543061  0.197709  0.045554
    H   H127  0.921209  0.496206  0.192410  -0.004190
    H   H128  0.884863  0.516935  0.157938  0.374616
