# Generated by REPEAT Assigner based on pymatgen
data_DB0-m3_o6_o19_f0_nbo.sym.56_sqe
_audit_creation_date              2022-05-24
_audit_creation_method            REPEAT_Assigner
_cell_length_a                    32.238946
_cell_length_b                    32.238956
_cell_length_c                    23.830639
_cell_angle_alpha                 90.000000
_cell_angle_beta                  90.000000
_cell_angle_gamma                 90.000000
_cell_volume                      24768.373905
_symmetry_space_group_name_H-M    P1
_symmetry_Int_Tables_number       1
loop_
    _symmetry_equiv_pos_site_id
    _symmetry_equiv_pos_as_xyz
    1  x,y,z
loop_
    _atom_site_type_symbol
    _atom_site_label
    _atom_site_fract_x
    _atom_site_fract_y
    _atom_site_fract_z
    _atom_type_partial_charge
    O   O1    0.963214  0.438222  0.501440  -0.657511
    O   O2    0.438233  0.034871  0.498855  -0.672563
    O   O3    0.036647  0.562229  0.498513  -0.656889
    O   O4    0.561640  0.964950  0.501109  -0.672089
    O   O5    0.034895  0.438527  0.499110  -0.672969
    O   O6    0.561943  0.036623  0.498324  -0.657544
    O   O7    0.964968  0.561932  0.500931  -0.671941
    O   O8    0.437938  0.963201  0.501727  -0.656808
    O   O9    0.463433  0.938194  0.001089  -0.657968
    O   O10   0.938259  0.534937  0.999123  -0.672780
    O   O11   0.536925  0.062170  0.998872  -0.657160
    O   O12   0.061698  0.465068  0.000827  -0.672623
    O   O13   0.535115  0.938461  0.998774  -0.672597
    O   O14   0.061967  0.536748  0.998505  -0.658098
    O   O15   0.465246  0.061897  0.001276  -0.673076
    O   O16   0.937997  0.463256  0.001536  -0.657314
    O   O17   0.061519  0.999182  0.452632  -0.672184
    O   O18   0.998948  0.938267  0.450367  -0.656787
    O   O19   0.938007  0.999168  0.450364  -0.655619
    O   O20   0.998911  0.061772  0.452633  -0.669313
    O   O21   0.938381  0.001242  0.547359  -0.669700
    O   O22   0.000968  0.938637  0.547373  -0.672163
    O   O23   0.061886  0.001205  0.549637  -0.656677
    O   O24   0.000981  0.062150  0.549627  -0.655090
    O   O25   0.561566  0.501193  0.952700  -0.670044
    O   O26   0.498975  0.438593  0.952627  -0.671701
    O   O27   0.438056  0.501155  0.950309  -0.657076
    O   O28   0.498961  0.562100  0.950373  -0.654739
    O   O29   0.438376  0.499140  0.047313  -0.671434
    O   O30   0.500941  0.438225  0.049634  -0.657484
    O   O31   0.561881  0.499126  0.049696  -0.654849
    O   O32   0.500979  0.561736  0.047370  -0.670042
    C   C1    0.999127  0.419122  0.500303  0.689812
    C   C2    0.418835  0.999101  0.500339  0.686697
    C   C3    0.000742  0.581330  0.499677  0.686570
    C   C4    0.581043  0.000714  0.499687  0.689399
    C   C5    0.499330  0.919078  0.999869  0.689255
    C   C6    0.918878  0.499153  0.000394  0.687690
    C   C7    0.501024  0.081285  0.000128  0.688492
    C   C8    0.081084  0.500844  0.999610  0.689292
    O   O33   0.965174  0.498999  0.416438  -0.664808
    O   O34   0.500682  0.036507  0.416081  -0.650736
    O   O35   0.036852  0.501006  0.416313  -0.651205
    O   O36   0.498743  0.964831  0.416653  -0.664780
    O   O37   0.034685  0.501424  0.583567  -0.665308
    O   O38   0.501168  0.034995  0.583343  -0.665172
    O   O39   0.963008  0.499478  0.583692  -0.650686
    O   O40   0.499167  0.963318  0.583923  -0.650572
    O   O41   0.465447  0.999232  0.916428  -0.665094
    O   O42   0.000674  0.536947  0.916313  -0.650954
    O   O43   0.537125  0.001200  0.916327  -0.650296
    O   O44   0.998761  0.465269  0.916427  -0.665339
    O   O45   0.534913  0.001097  0.083582  -0.664881
    O   O46   0.001232  0.534741  0.083562  -0.664754
    O   O47   0.463234  0.999189  0.083680  -0.651016
    O   O48   0.999261  0.463064  0.083682  -0.650827
    C   C9    0.001002  0.499896  0.390345  0.758897
    C   C10   0.499605  0.000574  0.390337  0.758207
    C   C11   0.998855  0.500561  0.609661  0.758844
    C   C12   0.500275  0.999259  0.609662  0.759251
    C   C13   0.501277  0.000203  0.890346  0.758121
    C   C14   0.999599  0.501103  0.890340  0.758415
    C   C15   0.499080  0.000155  0.109660  0.759059
    C   C16   0.000363  0.498914  0.109655  0.758102
    Zn  Zn1   0.952898  0.500224  0.499806  1.300849
    Zn  Zn2   0.499941  0.046945  0.499890  1.302052
    Zn  Zn3   0.046962  0.500233  0.500199  1.302393
    Zn  Zn4   0.499934  0.952879  0.500111  1.300587
    Zn  Zn5   0.453148  0.000202  0.999795  1.302593
    Zn  Zn6   0.999963  0.547035  0.000202  1.302062
    Zn  Zn7   0.547212  0.000161  0.000212  1.300710
    Zn  Zn8   0.999998  0.452972  0.999791  1.301691
    Zn  Zn9   0.999905  0.000162  0.436393  1.303485
    Zn  Zn10  0.999990  0.000252  0.563605  1.303443
    Zn  Zn11  0.499962  0.500206  0.936397  1.303410
    Zn  Zn12  0.499979  0.500122  0.063608  1.303499
    C   C17   0.080894  0.000147  0.501024  0.690307
    C   C18   0.000001  0.919261  0.498981  0.689224
    C   C19   0.918999  0.000218  0.498986  0.682913
    C   C20   0.999929  0.081156  0.501004  0.681293
    C   C21   0.580919  0.500181  0.001104  0.680709
    C   C22   0.499928  0.419218  0.001011  0.691130
    C   C23   0.419024  0.500112  0.998913  0.688608
    C   C24   0.499996  0.581114  0.998983  0.682694
    C   C25   0.000945  0.499623  0.330168  -0.110217
    C   C26   0.499420  0.000356  0.330162  -0.109282
    C   C27   0.998912  0.500760  0.669837  -0.110496
    C   C28   0.500564  0.999524  0.669836  -0.110772
    C   C29   0.501209  0.000097  0.830167  -0.109672
    C   C30   0.999361  0.501067  0.830166  -0.108289
    C   C31   0.499123  0.000168  0.169834  -0.110522
    C   C32   0.000573  0.498993  0.169834  -0.109197
    C   C33   0.000862  0.499390  0.279618  0.013510
    C   C34   0.499294  0.000247  0.279612  0.012187
    C   C35   0.999017  0.500891  0.720387  0.014150
    C   C36   0.500805  0.999739  0.720385  0.013654
    C   C37   0.501056  0.999956  0.779616  0.012718
    C   C38   0.999187  0.501005  0.779617  0.011075
    C   C39   0.499185  0.000187  0.220383  0.013677
    C   C40   0.000723  0.499144  0.220385  0.012261
    H   H1    0.054064  0.288489  0.550756  0.135318
    H   H2    0.287866  0.944822  0.550872  0.135718
    H   H3    0.945958  0.712132  0.549860  0.136539
    H   H4    0.712086  0.054122  0.551607  0.136579
    H   H5    0.945776  0.288018  0.448391  0.135987
    H   H6    0.711727  0.945826  0.449261  0.135923
    H   H7    0.055077  0.712236  0.449132  0.135690
    H   H8    0.288083  0.053932  0.450124  0.136900
    H   H9    0.553623  0.788254  0.051017  0.136123
    H   H10   0.787900  0.445287  0.051733  0.136044
    H   H11   0.445680  0.211848  0.050104  0.135799
    H   H12   0.212153  0.554658  0.050403  0.136283
    H   H13   0.445465  0.788178  0.948412  0.135366
    H   H14   0.211734  0.445578  0.949588  0.135040
    H   H15   0.554835  0.212433  0.949440  0.136640
    H   H16   0.788138  0.553519  0.949276  0.136739
    C   C41   0.030175  0.228817  0.529115  -0.150222
    C   C42   0.228349  0.969181  0.529440  -0.146520
    C   C43   0.970195  0.771717  0.528551  -0.147166
    C   C44   0.771569  0.029845  0.529867  -0.144683
    C   C45   0.970116  0.228558  0.470130  -0.149120
    C   C46   0.771374  0.969780  0.470890  -0.144630
    C   C47   0.030780  0.771776  0.470564  -0.143805
    C   C48   0.228473  0.029760  0.471444  -0.147924
    C   C49   0.529603  0.728668  0.029243  -0.150170
    C   C50   0.728383  0.469493  0.029967  -0.149357
    C   C51   0.469669  0.271540  0.028788  -0.146609
    C   C52   0.271620  0.530170  0.029030  -0.147393
    C   C53   0.469592  0.728629  0.970163  -0.153250
    C   C54   0.271392  0.469617  0.970990  -0.149633
    C   C55   0.530268  0.271866  0.970833  -0.140344
    C   C56   0.728518  0.529551  0.970972  -0.149511
    C   C57   0.000167  0.207329  0.499757  0.322299
    C   C58   0.207052  0.999527  0.500463  0.317516
    C   C59   0.000457  0.793106  0.499542  0.315299
    C   C60   0.792830  0.999817  0.500239  0.316029
    C   C61   0.499638  0.707288  0.999653  0.324039
    C   C62   0.707090  0.499594  0.000511  0.323433
    C   C63   0.499911  0.293061  0.999930  0.312145
    C   C64   0.292864  0.499866  0.999903  0.319446
    C   C65   0.969598  0.271308  0.470914  -0.248916
    C   C66   0.271219  0.030025  0.472269  -0.250310
    C   C67   0.031157  0.729028  0.471352  -0.250572
    C   C68   0.728625  0.969515  0.471783  -0.250731
    C   C69   0.030394  0.271566  0.528229  -0.247022
    C   C70   0.728820  0.030317  0.529086  -0.252516
    C   C71   0.969883  0.728972  0.527720  -0.250022
    C   C72   0.271098  0.968758  0.528648  -0.249920
    C   C73   0.469188  0.771379  0.971008  -0.246930
    C   C74   0.771266  0.529809  0.971790  -0.248570
    C   C75   0.530828  0.229120  0.971630  -0.251788
    C   C76   0.228642  0.469431  0.971780  -0.247858
    C   C77   0.529912  0.771417  0.028456  -0.247730
    C   C78   0.228875  0.530682  0.028198  -0.249688
    C   C79   0.469533  0.228793  0.027961  -0.249358
    C   C80   0.771134  0.469042  0.029153  -0.249068
    C   C81   0.999880  0.292779  0.499628  0.352205
    C   C82   0.292498  0.999354  0.500460  0.353636
    C   C83   0.000536  0.707662  0.499535  0.352801
    C   C84   0.707382  0.000012  0.500375  0.354589
    C   C85   0.499532  0.792739  0.999745  0.352600
    C   C86   0.792540  0.499387  0.000480  0.353550
    C   C87   0.500320  0.207618  0.999852  0.352418
    C   C88   0.207420  0.500175  0.999914  0.352898
    C   C89   0.000110  0.162857  0.500242  -0.291343
    C   C90   0.162588  0.999731  0.500632  -0.286085
    C   C91   0.000313  0.837568  0.499376  -0.286372
    C   C92   0.837300  0.999934  0.499747  -0.289347
    C   C93   0.499776  0.662817  0.999443  -0.290808
    C   C94   0.662621  0.499810  0.000702  -0.293704
    C   C95   0.499863  0.337524  0.000345  -0.283094
    C   C96   0.337329  0.499896  0.999509  -0.286856
    C   C97   0.999578  0.337262  0.499881  -0.207229
    C   C98   0.336980  0.999299  0.500465  -0.209310
    C   C99   0.000555  0.663183  0.499541  -0.208122
    C   C100  0.662900  0.000278  0.500112  -0.206481
    C   C101  0.499506  0.837222  0.999768  -0.208728
    C   C102  0.837023  0.499330  0.000495  -0.210640
    C   C103  0.500611  0.163139  0.999974  -0.207109
    C   C104  0.162939  0.500435  0.999753  -0.207976
    C   C105  0.999333  0.374628  0.500109  -0.029046
    C   C106  0.374344  0.999247  0.500424  -0.026612
    C   C107  0.000597  0.625819  0.499588  -0.027330
    C   C108  0.625535  0.000509  0.499881  -0.029863
    C   C109  0.499460  0.874587  0.999805  -0.027689
    C   C110  0.874388  0.499280  0.000468  -0.025951
    C   C111  0.500836  0.125775  0.000069  -0.028759
    C   C112  0.125575  0.500656  0.999651  -0.028265
    C   C113  0.000030  0.125543  0.500639  0.056358
    C   C114  0.125277  0.999930  0.500774  0.047739
    C   C115  0.000167  0.874879  0.499234  0.049137
    C   C116  0.874613  0.000067  0.499349  0.055204
    C   C117  0.499893  0.625502  0.999259  0.054926
    C   C118  0.625307  0.500001  0.000865  0.058408
    C   C119  0.499872  0.374836  0.000682  0.046509
    C   C120  0.374641  0.499979  0.999200  0.049335
    C   C121  0.062200  0.206402  0.560088  0.398702
    C   C122  0.052941  0.187041  0.610308  -0.102729
    Cl  Cl1   0.003084  0.190644  0.639244  -0.083560
    C   C123  0.083264  0.165269  0.638514  0.002154
    C   C124  0.122891  0.163116  0.617024  -0.218908
    C   C125  0.132329  0.183005  0.567470  -0.065217
    C   C126  0.102029  0.204670  0.539047  -0.292848
    H   H17   0.075999  0.150023  0.677693  0.094359
    H   H18   0.146637  0.146081  0.639253  0.154531
    H   H19   0.163508  0.181585  0.550949  0.118595
    H   H20   0.109412  0.219944  0.499917  0.147225
    C   C127  0.205768  0.937043  0.559973  0.401808
    C   C128  0.186823  0.945954  0.610588  -0.104418
    Cl  Cl2   0.190896  0.995543  0.640236  -0.081766
    C   C129  0.165135  0.915483  0.638625  -0.000122
    C   C130  0.162614  0.876062  0.616526  -0.219657
    C   C131  0.182049  0.866978  0.566527  -0.066660
    C   C132  0.203648  0.897421  0.538286  -0.290959
    H   H21   0.150262  0.922460  0.678158  0.094771
    H   H22   0.145658  0.852192  0.638624  0.156269
    H   H23   0.180353  0.835949  0.549557  0.119061
    H   H24   0.218609  0.890305  0.498845  0.146107
    C   C133  0.937873  0.794197  0.558867  0.391061
    C   C134  0.946642  0.813702  0.609148  -0.091189
    Cl  Cl3   0.996285  0.810413  0.638817  -0.084262
    C   C135  0.915979  0.835342  0.636865  -0.009599
    C   C136  0.876509  0.837244  0.614810  -0.213307
    C   C137  0.867571  0.817243  0.565170  -0.071686
    C   C138  0.898200  0.795680  0.537260  -0.286502
    H   H25   0.922848  0.850678  0.676110  0.096344
    H   H26   0.852496  0.854179  0.636652  0.155495
    H   H27   0.836521  0.818482  0.548189  0.119813
    H   H28   0.891199  0.780280  0.498094  0.147334
    C   C139  0.794214  0.061932  0.560426  0.395571
    C   C140  0.814415  0.052707  0.610065  -0.100950
    Cl  Cl4   0.811586  0.002796  0.638992  -0.084412
    C   C141  0.836398  0.083133  0.637774  0.006118
    C   C142  0.837969  0.122807  0.616348  -0.225353
    C   C143  0.817257  0.132198  0.567396  -0.062728
    C   C144  0.795305  0.101824  0.539538  -0.293371
    H   H29   0.852295  0.075906  0.676498  0.092969
    H   H30   0.855200  0.146624  0.638160  0.157368
    H   H31   0.818280  0.163389  0.550857  0.118151
    H   H32   0.779350  0.109192  0.500904  0.148635
    C   C145  0.938054  0.205878  0.439571  0.394629
    C   C146  0.947302  0.185674  0.389942  -0.099825
    Cl  Cl5   0.997212  0.188545  0.361019  -0.084452
    C   C147  0.916899  0.163655  0.362239  0.004883
    C   C148  0.877224  0.162052  0.383657  -0.223634
    C   C149  0.867809  0.182769  0.432598  -0.064898
    C   C150  0.898160  0.204756  0.460452  -0.291194
    H   H33   0.924145  0.147755  0.323523  0.093163
    H   H34   0.853425  0.144793  0.361849  0.157047
    H   H35   0.836617  0.181721  0.449131  0.118605
    H   H36   0.890773  0.220713  0.499078  0.148174
    C   C151  0.793818  0.937775  0.439917  0.398059
    C   C152  0.813180  0.947052  0.389704  -0.103054
    Cl  Cl6   0.809555  0.996911  0.360780  -0.083356
    C   C153  0.834963  0.916742  0.361487  0.001451
    C   C154  0.837125  0.877110  0.382957  -0.218762
    C   C155  0.817232  0.867652  0.432501  -0.063798
    C   C156  0.795557  0.897939  0.460937  -0.294142
    H   H37   0.850209  0.924022  0.322312  0.094777
    H   H38   0.854165  0.853375  0.360717  0.154467
    H   H39   0.818655  0.836468  0.449001  0.118077
    H   H40   0.780278  0.890540  0.500057  0.147481
    C   C157  0.062942  0.794323  0.440032  0.400544
    C   C158  0.054056  0.813262  0.389405  -0.103909
    Cl  Cl7   0.004467  0.809226  0.359750  -0.081895
    C   C159  0.084550  0.834913  0.361362  -0.000306
    C   C160  0.123969  0.837405  0.383471  -0.219776
    C   C161  0.133030  0.817977  0.433482  -0.066157
    C   C162  0.102563  0.796414  0.461727  -0.291189
    H   H41   0.077592  0.849780  0.321818  0.094871
    H   H42   0.147858  0.854333  0.361368  0.156232
    H   H43   0.164058  0.819652  0.450459  0.118931
    H   H44   0.109661  0.781458  0.501177  0.146245
    C   C163  0.206022  0.062102  0.441129  0.392344
    C   C164  0.186518  0.053351  0.390841  -0.092834
    Cl  Cl8   0.189786  0.003712  0.361157  -0.084136
    C   C165  0.164890  0.084029  0.363134  -0.007278
    C   C166  0.162997  0.123493  0.385211  -0.214650
    C   C167  0.182994  0.132411  0.434861  -0.069539
    C   C168  0.204547  0.101768  0.462757  -0.289022
    H   H45   0.149554  0.077174  0.323884  0.095804
    H   H46   0.146068  0.147516  0.363380  0.155346
    H   H47   0.181757  0.163455  0.451863  0.119358
    H   H48   0.219943  0.108753  0.501930  0.147848
    C   C169  0.561752  0.706163  0.059866  0.389619
    C   C170  0.552599  0.686042  0.109586  -0.094736
    Cl  Cl9   0.502681  0.688774  0.138522  -0.085099
    C   C171  0.583103  0.664211  0.137358  0.000501
    C   C172  0.622784  0.662739  0.115939  -0.219226
    C   C173  0.632103  0.683381  0.066908  -0.068295
    C   C174  0.601643  0.705152  0.038963  -0.287851
    H   H49   0.575932  0.648370  0.176138  0.093962
    H   H50   0.646660  0.645635  0.137813  0.155772
    H   H51   0.663303  0.682457  0.050388  0.119167
    H   H52   0.608943  0.721045  0.000259  0.147608
    C   C175  0.705782  0.437502  0.060765  0.400249
    C   C176  0.686275  0.446749  0.110890  -0.102753
    Cl  Cl10  0.689811  0.496591  0.139896  -0.083336
    C   C177  0.664445  0.416406  0.138981  0.000248
    C   C178  0.662339  0.376789  0.117443  -0.217558
    C   C179  0.682343  0.367373  0.067965  -0.066428
    C   C180  0.704106  0.397679  0.039694  -0.292401
    H   H53   0.649118  0.423646  0.178112  0.094886
    H   H54   0.645261  0.353030  0.139586  0.154524
    H   H55   0.680946  0.336208  0.051384  0.118855
    H   H56   0.719511  0.390303  0.000656  0.147114
    C   C181  0.437353  0.293914  0.059244  0.403180
    C   C182  0.446026  0.312708  0.110033  -0.106125
    Cl  Cl11  0.495501  0.308605  0.140007  -0.081221
    C   C183  0.415430  0.334316  0.137931  0.000700
    C   C184  0.376106  0.336872  0.115535  -0.219608
    C   C185  0.367248  0.317557  0.065384  -0.065460
    C   C186  0.397833  0.296092  0.037236  -0.293136
    H   H57   0.422230  0.349101  0.177581  0.094641
    H   H58   0.352130  0.353765  0.137510  0.155999
    H   H59   0.336278  0.319245  0.048240  0.118729
    H   H60   0.390913  0.281283  0.997627  0.146924
    C   C187  0.294257  0.562318  0.059473  0.386142
    C   C188  0.313890  0.553293  0.109585  -0.089798
    Cl  Cl12  0.310545  0.503549  0.138937  -0.084630
    C   C189  0.335681  0.583792  0.137419  -0.006892
    C   C190  0.337628  0.623344  0.115639  -0.215939
    C   C191  0.317502  0.632538  0.066173  -0.072494
    C   C192  0.295757  0.602081  0.038172  -0.282491
    H   H61   0.351105  0.576726  0.176541  0.095225
    H   H62   0.354692  0.647223  0.137573  0.156588
    H   H63   0.318793  0.663648  0.049386  0.119933
    H   H64   0.280238  0.609292  0.999164  0.146577
    C   C193  0.437595  0.706073  0.939321  0.402728
    C   C194  0.446852  0.686547  0.889214  -0.103688
    Cl  Cl13  0.496715  0.690026  0.860260  -0.083186
    C   C195  0.416506  0.664736  0.861104  0.001137
    C   C196  0.376877  0.662664  0.882610  -0.218903
    C   C197  0.367452  0.682688  0.932072  -0.063904
    C   C198  0.397760  0.704438  0.960355  -0.295129
    H   H65   0.423754  0.649389  0.821989  0.094770
    H   H66   0.353117  0.645594  0.860457  0.154569
    H   H67   0.336281  0.681312  0.948637  0.118170
    H   H68   0.390380  0.719856  0.999381  0.148041
    C   C199  0.293820  0.437345  0.940519  0.403914
    C   C200  0.312659  0.446079  0.889780  -0.107141
    Cl  Cl14  0.308528  0.495569  0.859863  -0.081252
    C   C201  0.334335  0.415529  0.861883  0.002155
    C   C202  0.336909  0.376190  0.884226  -0.221302
    C   C203  0.317544  0.367270  0.934323  -0.064162
    C   C204  0.296016  0.397810  0.962473  -0.293164
    H   H69   0.349156  0.422376  0.822272  0.094420
    H   H70   0.353853  0.352249  0.862250  0.156277
    H   H71   0.319245  0.336287  0.951423  0.118180
    H   H72   0.281173  0.390841  0.002043  0.146654
    C   C205  0.562410  0.294550  0.940436  0.383773
    C   C206  0.553397  0.314167  0.890310  -0.089817
    Cl  Cl15  0.503673  0.310766  0.860905  -0.084573
    C   C207  0.583891  0.335978  0.862497  -0.007036
    C   C208  0.623432  0.337958  0.884309  -0.214738
    C   C209  0.632616  0.317849  0.933789  -0.073782
    C   C210  0.602162  0.296089  0.961775  -0.281365
    H   H73   0.576834  0.351384  0.823360  0.095127
    H   H74   0.647310  0.355030  0.862386  0.156380
    H   H75   0.663720  0.319160  0.950592  0.120407
    H   H76   0.609367  0.280582  0.000795  0.146020
    C   C211  0.706066  0.561746  0.940365  0.390388
    C   C212  0.685989  0.552652  0.890593  -0.096341
    Cl  Cl16  0.688692  0.502750  0.861600  -0.084778
    C   C213  0.664224  0.583201  0.862820  0.002155
    C   C214  0.662770  0.622867  0.884295  -0.220720
    C   C215  0.683363  0.632123  0.933384  -0.066366
    C   C216  0.705073  0.601620  0.961327  -0.288812
    H   H77   0.648418  0.576079  0.823998  0.093662
    H   H78   0.645717  0.646778  0.862420  0.156041
    H   H79   0.682451  0.663310  0.949951  0.118658
    H   H80   0.720931  0.608870  0.000074  0.147671
