data_DB0-m6_o13_bcu_repeat
_audit_creation_date              2024-02-23
_audit_creation_method            'Materials Studio'
_symmetry_space_group_name_H-M    'P1'
_symmetry_Int_Tables_number       1
_symmetry_cell_setting            triclinic
loop_
_symmetry_equiv_pos_as_xyz
  x,y,z
_cell_length_a                    18.1609
_cell_length_b                    18.1591
_cell_length_c                    18.1415
_cell_angle_alpha                 115.4865
_cell_angle_beta                  115.5135
_cell_angle_gamma                 97.9837
loop_
_atom_site_label
_atom_site_type_symbol
_atom_site_fract_x
_atom_site_fract_y
_atom_site_fract_z
_atom_site_U_iso_or_equiv
_atom_site_adp_type
_atom_site_occupancy
N1     N     0.43639   0.48144   0.29161   0.00000  Uiso   1.00
N2     N     0.43311   0.51534   0.23954   0.00000  Uiso   1.00
N3     N     0.68975   0.64483   0.70815   0.00000  Uiso   1.00
N4     N     0.77567   0.69361   0.76028   0.00000  Uiso   1.00
N5     N     0.48009   0.69714   0.55102   0.00000  Uiso   1.00
N6     N     0.50556   0.78138   0.57768   0.00000  Uiso   1.00
N7     N     0.64592   0.42895   0.44857   0.00000  Uiso   1.00
N8     N     0.70344   0.42772   0.42180   0.00000  Uiso   1.00
N9     N     0.43623   0.64473   0.45473   0.00000  Uiso   1.00
N10    N     0.43274   0.69346   0.41746   0.00000  Uiso   1.00
N11    N     0.68979   0.48147   0.54485   0.00000  Uiso   1.00
N12    N     0.77569   0.51528   0.58199   0.00000  Uiso   1.00
N13    N     0.64591   0.69719   0.71676   0.00000  Uiso   1.00
N14    N     0.70347   0.78145   0.77553   0.00000  Uiso   1.00
N15    N     0.48015   0.42901   0.28298   0.00000  Uiso   1.00
N16    N     0.50574   0.42793   0.22428   0.00000  Uiso   1.00
C1     C     0.47632   0.48240   0.19813   0.00000  Uiso   1.00
C2     C     0.78410   0.77820   0.80173   0.00000  Uiso   1.00
C3     C     0.47595   0.77807   0.49367   0.00000  Uiso   1.00
C4     C     0.78408   0.48220   0.50574   0.00000  Uiso   1.00
N17    N     0.56364   0.35519   0.54509   0.00000  Uiso   1.00
N18    N     0.56713   0.30646   0.58236   0.00000  Uiso   1.00
N19    N     0.31008   0.51845   0.45497   0.00000  Uiso   1.00
N20    N     0.22417   0.48464   0.41783   0.00000  Uiso   1.00
N21    N     0.35396   0.30273   0.28306   0.00000  Uiso   1.00
N22    N     0.29640   0.21847   0.22430   0.00000  Uiso   1.00
N23    N     0.51972   0.57091   0.71684   0.00000  Uiso   1.00
N24    N     0.49413   0.57199   0.77555   0.00000  Uiso   1.00
N25    N     0.56348   0.51848   0.70822   0.00000  Uiso   1.00
N26    N     0.56676   0.48458   0.76029   0.00000  Uiso   1.00
N27    N     0.31011   0.35509   0.29168   0.00000  Uiso   1.00
N28    N     0.22420   0.30631   0.23955   0.00000  Uiso   1.00
N29    N     0.51978   0.30278   0.44880   0.00000  Uiso   1.00
N30    N     0.49431   0.21854   0.42214   0.00000  Uiso   1.00
N31    N     0.35395   0.57097   0.55125   0.00000  Uiso   1.00
N32    N     0.29642   0.57220   0.57802   0.00000  Uiso   1.00
Mn1    Mn    0.63149   0.50002   0.63140   0.00000  Uiso   1.00
Mn2    Mn    0.36838   0.49990   0.36842   0.00000  Uiso   1.00
Mn3    Mn    0.49994   0.64390   0.64383   0.00000  Uiso   1.00
Mn4    Mn    0.49993   0.35603   0.35600   0.00000  Uiso   1.00
C5     C     0.52392   0.22185   0.50615   0.00000  Uiso   1.00
C6     C     0.21578   0.51772   0.49409   0.00000  Uiso   1.00
C7     C     0.21577   0.22172   0.19809   0.00000  Uiso   1.00
C8     C     0.52355   0.51752   0.80169   0.00000  Uiso   1.00
C9     C     0.87090   0.85357   0.87091   0.00000  Uiso   1.00
C10    C     0.12897   0.14635   0.12891   0.00000  Uiso   1.00
C11    C     0.97018   0.09370   0.04618   0.00000  Uiso   1.00
C12    C     0.05304   0.16239   0.11383   0.00000  Uiso   1.00
C13    C     0.12108   0.06053   0.07575   0.00000  Uiso   1.00
C14    C     0.03770   0.99172   0.00742   0.00000  Uiso   1.00
C15    C     0.96217   0.00820   0.99240   0.00000  Uiso   1.00
C16    C     0.87879   0.93938   0.92407   0.00000  Uiso   1.00
C17    C     0.94683   0.83753   0.88599   0.00000  Uiso   1.00
C18    C     0.02969   0.90622   0.95365   0.00000  Uiso   1.00
H1     H     0.82007   0.95272   0.91346   0.00000  Uiso   1.00
H2     H     0.94248   0.77097   0.84533   0.00000  Uiso   1.00
H3     H     0.91161   0.10749   0.03526   0.00000  Uiso   1.00
H4     H     0.08826   0.89243   0.96456   0.00000  Uiso   1.00
H5     H     0.05739   0.22895   0.15450   0.00000  Uiso   1.00
H6     H     0.17980   0.04720   0.08636   0.00000  Uiso   1.00
C19    C     0.87087   0.49988   0.51718   0.00000  Uiso   1.00
C20    C     0.12899   0.50004   0.48264   0.00000  Uiso   1.00
C21    C     0.97023   0.42379   0.37637   0.00000  Uiso   1.00
C22    C     0.05310   0.43905   0.39060   0.00000  Uiso   1.00
C23    C     0.12107   0.54539   0.56058   0.00000  Uiso   1.00
C24    C     0.03768   0.53028   0.54595   0.00000  Uiso   1.00
C25    C     0.96218   0.46964   0.45387   0.00000  Uiso   1.00
C26    C     0.87879   0.45453   0.43925   0.00000  Uiso   1.00
C27    C     0.94677   0.56087   0.60923   0.00000  Uiso   1.00
C28    C     0.02964   0.57613   0.62346   0.00000  Uiso   1.00
H7     H     0.82009   0.40632   0.36715   0.00000  Uiso   1.00
H8     H     0.94239   0.59725   0.67145   0.00000  Uiso   1.00
H9     H     0.91168   0.37603   0.30396   0.00000  Uiso   1.00
H10    H     0.08819   0.62389   0.69586   0.00000  Uiso   1.00
H11    H     0.05747   0.40267   0.32837   0.00000  Uiso   1.00
H12    H     0.17977   0.59360   0.63268   0.00000  Uiso   1.00
C29    C     0.51772   0.14647   0.51756   0.00000  Uiso   1.00
C30    C     0.48214   0.85345   0.48226   0.00000  Uiso   1.00
C31    C     0.45184   0.90623   0.37611   0.00000  Uiso   1.00
C32    C     0.45069   0.83746   0.39017   0.00000  Uiso   1.00
C33    C     0.51523   0.93927   0.56041   0.00000  Uiso   1.00
C34    C     0.51585   0.00817   0.54597   0.00000  Uiso   1.00
C35    C     0.48402   0.99175   0.45385   0.00000  Uiso   1.00
C36    C     0.48464   0.06065   0.43941   0.00000  Uiso   1.00
C37    C     0.54918   0.16246   0.60966   0.00000  Uiso   1.00
C38    C     0.54803   0.09369   0.62371   0.00000  Uiso   1.00
H13    H     0.46042   0.04737   0.36726   0.00000  Uiso   1.00
H14    H     0.57542   0.22903   0.67204   0.00000  Uiso   1.00
H15    H     0.42688   0.89251   0.30367   0.00000  Uiso   1.00
H16    H     0.57299   0.10741   0.69616   0.00000  Uiso   1.00
H17    H     0.42445   0.77089   0.32779   0.00000  Uiso   1.00
H18    H     0.53945   0.95255   0.63256   0.00000  Uiso   1.00
C39    C     0.48258   0.50008   0.12901   0.00000  Uiso   1.00
C40    C     0.51729   0.49984   0.87081   0.00000  Uiso   1.00
C41    C     0.54729   0.42379   0.95359   0.00000  Uiso   1.00
C42    C     0.54833   0.43894   0.88586   0.00000  Uiso   1.00
C43    C     0.48471   0.54522   0.92400   0.00000  Uiso   1.00
C44    C     0.48422   0.53024   0.99240   0.00000  Uiso   1.00
C45    C     0.51565   0.46968   0.00743   0.00000  Uiso   1.00
C46    C     0.51516   0.45470   0.07582   0.00000  Uiso   1.00
C47    C     0.45154   0.56098   0.11396   0.00000  Uiso   1.00
C48    C     0.45258   0.57613   0.04623   0.00000  Uiso   1.00
H19    H     0.53902   0.40655   0.08645   0.00000  Uiso   1.00
H20    H     0.42570   0.59735   0.15469   0.00000  Uiso   1.00
H21    H     0.57192   0.37611   0.96454   0.00000  Uiso   1.00
H22    H     0.42795   0.62381   0.03528   0.00000  Uiso   1.00
H23    H     0.57417   0.40256   0.84513   0.00000  Uiso   1.00
H24    H     0.46085   0.59337   0.91337   0.00000  Uiso   1.00
