data_DB0-m2_o11_o29_f0_pcu.sym.8_repeat
_audit_creation_date              2024-02-23
_audit_creation_method            'Materials Studio'
_symmetry_space_group_name_H-M    'P1'
_symmetry_Int_Tables_number       1
_symmetry_cell_setting            triclinic
loop_
_symmetry_equiv_pos_as_xyz
  x,y,z
_cell_length_a                    27.5506
_cell_length_b                    11.0434
_cell_length_c                    9.5446
_cell_angle_alpha                 90.0205
_cell_angle_beta                  90.0156
_cell_angle_gamma                 89.9936
loop_
_atom_site_label
_atom_site_type_symbol
_atom_site_fract_x
_atom_site_fract_y
_atom_site_fract_z
_atom_site_U_iso_or_equiv
_atom_site_adp_type
_atom_site_occupancy
O1     O     0.49721   0.32069   0.62031   0.00000  Uiso   1.00
O2     O     0.50222   0.31990   0.37932   0.00000  Uiso   1.00
C1     C     0.49986   0.26372   0.50021   0.00000  Uiso   1.00
O3     O     0.42783   0.49113   0.61429   0.00000  Uiso   1.00
O4     O     0.43010   0.50033   0.37340   0.00000  Uiso   1.00
C2     C     0.40618   0.49609   0.49205   0.00000  Uiso   1.00
Cu1    Cu    0.49814   0.49667   0.63961   0.00000  Uiso   1.00
Cu2    Cu    0.50081   0.49594   0.35938   0.00000  Uiso   1.00
O5     O     0.49600   0.67240   0.61888   0.00000  Uiso   1.00
O6     O     0.50230   0.67204   0.37903   0.00000  Uiso   1.00
O7     O     0.56886   0.49387   0.62533   0.00000  Uiso   1.00
O8     O     0.57111   0.49995   0.38487   0.00000  Uiso   1.00
C3     C     0.49904   0.72892   0.49909   0.00000  Uiso   1.00
C4     C     0.59277   0.49695   0.50679   0.00000  Uiso   1.00
C5     C     0.17580   0.41123   0.42353   0.00000  Uiso   1.00
O9     O     0.20030   0.31749   0.36816   0.00000  Uiso   1.00
N1     N     0.20042   0.50438   0.48070   0.00000  Uiso   1.00
C6     C     0.17632   0.59754   0.53970   0.00000  Uiso   1.00
C7     C     0.27827   0.49370   0.35937   0.00000  Uiso   1.00
C8     C     0.32836   0.49169   0.36201   0.00000  Uiso   1.00
C9     C     0.32675   0.50773   0.61134   0.00000  Uiso   1.00
C10    C     0.27676   0.50984   0.60847   0.00000  Uiso   1.00
C11    C     0.25225   0.50278   0.48264   0.00000  Uiso   1.00
C12    C     0.10025   0.50337   0.48686   0.00000  Uiso   1.00
C13    C     0.12556   0.40980   0.42575   0.00000  Uiso   1.00
C14    C     0.10058   0.31492   0.36706   0.00000  Uiso   1.00
C15    C     0.12611   0.59799   0.54363   0.00000  Uiso   1.00
C16    C     0.35291   0.49819   0.48826   0.00000  Uiso   1.00
H1     H     0.34486   0.51460   0.71124   0.00000  Uiso   1.00
H2     H     0.25689   0.51572   0.70588   0.00000  Uiso   1.00
H3     H     0.11934   0.24134   0.31573   0.00000  Uiso   1.00
C17    C     0.64599   0.49645   0.50991   0.00000  Uiso   1.00
C18    C     0.97381   0.39959   0.44911   0.00000  Uiso   1.00
C19    C     0.97404   0.59978   0.55048   0.00000  Uiso   1.00
C20    C     0.94891   0.49886   0.50245   0.00000  Uiso   1.00
C21    C     0.94714   0.29777   0.40979   0.00000  Uiso   1.00
C22    C     0.89740   0.29723   0.41622   0.00000  Uiso   1.00
C23    C     0.87277   0.39738   0.46321   0.00000  Uiso   1.00
C24    C     0.89840   0.49726   0.50756   0.00000  Uiso   1.00
C25    C     0.87286   0.59565   0.55663   0.00000  Uiso   1.00
C26    C     0.82263   0.59333   0.55989   0.00000  Uiso   1.00
N2     N     0.79832   0.49500   0.51480   0.00000  Uiso   1.00
C27    C     0.82257   0.39747   0.46715   0.00000  Uiso   1.00
C28    C     0.72084   0.50872   0.63688   0.00000  Uiso   1.00
C29    C     0.67074   0.50848   0.63526   0.00000  Uiso   1.00
C30    C     0.67188   0.48383   0.38665   0.00000  Uiso   1.00
C31    C     0.72187   0.48253   0.38880   0.00000  Uiso   1.00
C32    C     0.74655   0.49526   0.51370   0.00000  Uiso   1.00
O10    O     0.79769   0.29925   0.42523   0.00000  Uiso   1.00
C33    C     0.02449   0.40367   0.43765   0.00000  Uiso   1.00
C34    C     0.04972   0.50211   0.49165   0.00000  Uiso   1.00
C35    C     0.02493   0.59911   0.55074   0.00000  Uiso   1.00
C36    C     0.05083   0.31189   0.37212   0.00000  Uiso   1.00
H4     H     0.65136   0.51870   0.73297   0.00000  Uiso   1.00
H5     H     0.73985   0.51789   0.73541   0.00000  Uiso   1.00
H6     H     0.87837   0.21640   0.38379   0.00000  Uiso   1.00
H7     H     0.96324   0.21416   0.37605   0.00000  Uiso   1.00
H8     H     0.03446   0.23623   0.31955   0.00000  Uiso   1.00
O11    O     0.20131   0.69145   0.59283   0.00000  Uiso   1.00
C37    C     0.10173   0.69220   0.60576   0.00000  Uiso   1.00
H9     H     0.34789   0.48464   0.26417   0.00000  Uiso   1.00
H10    H     0.25955   0.48951   0.25994   0.00000  Uiso   1.00
H11    H     0.12100   0.76684   0.65333   0.00000  Uiso   1.00
C38    C     0.94734   0.69955   0.59627   0.00000  Uiso   1.00
C39    C     0.89756   0.69701   0.59965   0.00000  Uiso   1.00
O12    O     0.79780   0.69073   0.60445   0.00000  Uiso   1.00
C40    C     0.05195   0.69287   0.60989   0.00000  Uiso   1.00
H12    H     0.96332   0.78396   0.62765   0.00000  Uiso   1.00
H13    H     0.65351   0.47399   0.28728   0.00000  Uiso   1.00
H14    H     0.87855   0.77656   0.63609   0.00000  Uiso   1.00
H15    H     0.74167   0.47315   0.29161   0.00000  Uiso   1.00
H16    H     0.03625   0.76824   0.66461   0.00000  Uiso   1.00
C41    C     0.50240   0.92932   0.38759   0.00000  Uiso   1.00
C42    C     0.49857   0.86154   0.50336   0.00000  Uiso   1.00
H17    H     0.50573   0.88498   0.28676   0.00000  Uiso   1.00
H18    H     0.49480   0.90122   0.60603   0.00000  Uiso   1.00
C43    C     0.50211   0.06358   0.38802   0.00000  Uiso   1.00
C44    C     0.50011   0.13108   0.50458   0.00000  Uiso   1.00
H19    H     0.50385   0.10821   0.28709   0.00000  Uiso   1.00
H20    H     0.49876   0.09127   0.60765   0.00000  Uiso   1.00
C45    C     0.47490   0.41600   0.92638   0.00000  Uiso   1.00
N3     N     0.49565   0.49673   0.84926   0.00000  Uiso   1.00
H21    H     0.50351   0.57758   0.89732   0.00000  Uiso   1.00
C46    C     0.47284   0.42871   0.08114   0.00000  Uiso   1.00
N4     N     0.50270   0.49564   0.14985   0.00000  Uiso   1.00
H22    H     0.44622   0.37622   0.13845   0.00000  Uiso   1.00
H23    H     0.53221   0.52946   0.09705   0.00000  Uiso   1.00
O13    O     0.45499   0.31469   0.86644   0.00000  Uiso   1.00
C47    C     0.40482   0.33131   0.87366   0.00000  Uiso   1.00
H24    H     0.39639   0.42831   0.89094   0.00000  Uiso   1.00
H25    H     0.38982   0.27683   0.96108   0.00000  Uiso   1.00
H26    H     0.38803   0.30135   0.77390   0.00000  Uiso   1.00
