# Generated by REPEAT Assigner based on pymatgen
data_DB0-m2_o6_o25_f0_pcu.sym.65_sqe
_audit_creation_date              2022-05-24
_audit_creation_method            REPEAT_Assigner
_cell_length_a                    15.897862
_cell_length_b                    16.043133
_cell_length_c                    14.615425
_cell_angle_alpha                 90.009267
_cell_angle_beta                  90.022236
_cell_angle_gamma                 89.994308
_cell_volume                      3727.685901
_symmetry_space_group_name_H-M    P1
_symmetry_Int_Tables_number       1
loop_
    _symmetry_equiv_pos_site_id
    _symmetry_equiv_pos_as_xyz
    1  x,y,z
loop_
    _atom_site_type_symbol
    _atom_site_label
    _atom_site_fract_x
    _atom_site_fract_y
    _atom_site_fract_z
    _atom_type_partial_charge
    O   O1   0.503188  0.377474  0.576618  -0.603712
    O   O2   0.497166  0.622522  0.423387  -0.603720
    O   O3   0.497069  0.380291  0.419231  -0.596603
    O   O4   0.503285  0.619706  0.580774  -0.596827
    C   C1   0.500083  0.340068  0.497052  0.805218
    C   C2   0.500272  0.659928  0.502953  0.805374
    O   O5   0.378058  0.495764  0.578433  -0.623661
    O   O6   0.622296  0.504233  0.421572  -0.623396
    O   O7   0.377821  0.504349  0.421158  -0.610909
    O   O8   0.622533  0.495648  0.578847  -0.611014
    C   C3   0.338758  0.500040  0.499839  0.787080
    C   C4   0.661596  0.499956  0.500166  0.786703
    Cu  Cu1  0.500287  0.498423  0.591548  0.949113
    Cu  Cu2  0.500067  0.501574  0.408458  0.947869
    C   C5   0.972817  0.432692  0.542685  -0.161698
    C   C6   0.027537  0.567305  0.457320  -0.162359
    C   C7   0.027576  0.432670  0.457358  -0.166703
    C   C8   0.972778  0.567326  0.542647  -0.166359
    H   H1   0.052669  0.376812  0.421979  0.068120
    H   H2   0.947685  0.623185  0.578026  0.068192
    H   H3   0.947757  0.376850  0.578095  0.067586
    H   H4   0.052597  0.623146  0.421910  0.067661
    H   H5   0.947629  0.499929  0.343890  0.067284
    H   H6   0.052725  0.500067  0.656115  0.067358
    C   C9   0.248508  0.500037  0.499940  -0.108033
    C   C10  0.751846  0.499959  0.500065  -0.107316
    C   C11  0.027607  0.500036  0.585327  -0.175872
    C   C12  0.972747  0.499961  0.414678  -0.175229
    C   C13  0.080728  0.500014  0.500001  0.723613
    C   C14  0.919626  0.499983  0.500004  0.723548
    C   C15  0.172724  0.500029  0.499984  -0.422442
    C   C16  0.827630  0.499968  0.500022  -0.423305
    H   H7   0.500489  0.091634  0.632372  0.139173
    H   H8   0.499865  0.908363  0.367633  0.138845
    C   C17  0.500425  0.963827  0.589061  -0.131839
    C   C18  0.499935  0.036170  0.410944  -0.134566
    C   C19  0.500232  0.914035  0.510179  0.158754
    C   C20  0.500126  0.085961  0.489826  0.160289
    C   C21  0.500000  0.950667  0.424889  -0.195335
    C   C22  0.500357  0.049330  0.575116  -0.197588
    C   C23  0.500246  0.824442  0.508627  -0.084247
    C   C24  0.500110  0.175555  0.491379  -0.083993
    C   C25  0.500101  0.250680  0.494669  -0.231836
    C   C26  0.500253  0.749316  0.505337  -0.231624
    H   H9   0.589996  0.599858  0.082334  0.163474
    H   H10  0.410359  0.400137  0.917671  0.163266
    C   C27  0.550670  0.554328  0.951833  -0.168240
    C   C28  0.449686  0.445668  0.048173  -0.169198
    H   H11  0.590197  0.596966  0.914039  0.160967
    H   H12  0.410159  0.403030  0.085967  0.161094
    C   C29  0.500375  0.498303  0.905685  0.244598
    C   C30  0.499980  0.501693  0.094321  0.246451
    C   C31  0.449850  0.443989  0.953848  -0.174345
    C   C32  0.550505  0.556007  0.046157  -0.175410
    C   C33  0.500283  0.496985  0.807526  0.052136
    C   C34  0.500072  0.503011  0.192479  0.050409
    N   N1   0.500122  0.503577  0.271635  -0.138656
    N   N2   0.500232  0.496420  0.728370  -0.140044
    C   C35  0.500702  0.934485  0.689008  0.703000
    C   C36  0.579063  0.968129  0.736657  -0.398328
    C   C37  0.422539  0.968034  0.737064  -0.395074
    C   C38  0.500811  0.840538  0.704337  -0.368102
    H   H13  0.576103  0.036490  0.746433  0.074230
    H   H14  0.635381  0.952477  0.695326  0.067497
    H   H15  0.585636  0.939466  0.805284  0.079639
    H   H16  0.425431  0.036406  0.746774  0.073165
    H   H17  0.416388  0.939393  0.805744  0.078064
    H   H18  0.366028  0.952273  0.696051  0.067439
    H   H19  0.558773  0.812287  0.675799  0.086106
    H   H20  0.442727  0.812220  0.676144  0.085613
    H   H21  0.501030  0.826672  0.778648  0.057339
    C   C39  0.499662  0.065512  0.310998  0.704536
    C   C40  0.577820  0.031951  0.262941  -0.395459
    C   C41  0.421295  0.031879  0.263349  -0.399216
    C   C42  0.499567  0.159458  0.295669  -0.369328
    H   H22  0.574915  0.963581  0.253222  0.073177
    H   H23  0.634332  0.047697  0.303956  0.067584
    H   H24  0.583980  0.060594  0.194264  0.078147
    H   H25  0.424244  0.963516  0.253583  0.074472
    H   H26  0.414732  0.060540  0.194719  0.079783
    H   H27  0.364979  0.047546  0.304678  0.067707
    H   H28  0.557652  0.187768  0.323869  0.085918
    H   H29  0.441607  0.187718  0.324199  0.086425
    H   H30  0.499355  0.173325  0.221357  0.057571
