# Generated by REPEAT Assigner based on pymatgen
data_DB0-m29_o82_o86_f0_pts.sym.15
_audit_creation_date              2022-05-24
_audit_creation_method            REPEAT_Assigner
_cell_length_a                    14.353932
_cell_length_b                    14.432564
_cell_length_c                    11.274246
_cell_angle_alpha                 93.813483
_cell_angle_beta                  94.106972
_cell_angle_gamma                 109.477000
_cell_volume                      2186.139165
_symmetry_space_group_name_H-M    P1
_symmetry_Int_Tables_number       1
loop_
    _symmetry_equiv_pos_site_id
    _symmetry_equiv_pos_as_xyz
    1  x,y,z
loop_
    _atom_site_type_symbol
    _atom_site_label
    _atom_site_fract_x
    _atom_site_fract_y
    _atom_site_fract_z
    _atom_type_partial_charge
    C   C1   0.240476  0.971026  0.814348  0.003268
    C   C2   0.144236  0.946515  0.762357  -0.150023
    C   C3   0.067309  0.943182  0.830429  -0.051977
    C   C4   0.916852  0.038224  0.876447  -0.093467
    C   C5   0.256103  0.981241  0.938727  -0.085057
    C   C6   0.177011  0.975844  0.007045  0.165615
    C   C7   0.084341  0.968327  0.953139  -0.019289
    C   C8   0.009692  0.977080  0.024671  0.010951
    C   C9   0.828694  0.045131  0.830008  -0.227811
    C   C10  0.745194  0.012784  0.889533  0.083069
    C   C11  0.922699  0.994653  0.981555  0.034915
    C   C12  0.844082  0.980946  0.052349  0.213504
    C   C13  0.753407  0.986810  0.005014  -0.152168
    C   C14  0.189982  0.976865  0.129870  -0.380714
    C   C15  0.112975  0.968497  0.197698  0.471302
    C   C16  0.023511  0.969565  0.146305  -0.097928
    C   C17  0.948939  0.965577  0.218289  0.008701
    C   C18  0.859562  0.968131  0.171688  -0.275054
    H   H1   0.127375  0.930316  0.666744  0.118536
    H   H2   0.993421  0.918341  0.784650  0.100935
    H   H3   0.980820  0.069378  0.828763  0.113739
    H   H4   0.825013  0.072277  0.743377  0.182529
    H   H5   0.257845  0.977594  0.176440  0.144274
    H   H6   0.958149  0.959740  0.313051  0.085247
    H   H7   0.806417  0.967069  0.234609  0.168283
    O   O1   0.614095  0.029331  0.068616  -0.557832
    C   C19  0.667923  0.971277  0.076537  0.564041
    O   O2   0.450419  0.797955  0.136722  -0.374581
    O   O3   0.643520  0.898085  0.143938  -0.463479
    O   O4   0.485517  0.911055  0.295769  -0.552416
    C   C20  0.458316  0.817545  0.253044  0.534065
    Fe  Fe1  0.502738  0.003264  0.169986  1.415031
    O   O5   0.377071  0.938075  0.061843  -0.560339
    O   O6   0.419295  0.094148  0.007304  -0.508331
    C   C21  0.355889  0.003747  0.000067  0.671372
    O   O7   0.529563  0.138580  0.252423  -0.614835
    O   O8   0.386055  0.066857  0.336094  -0.548842
    C   C22  0.459399  0.146009  0.317730  0.741053
    O   O9   0.452385  0.881331  0.567503  -0.654044
    O   O10  0.611374  0.926815  0.518507  -0.571833
    C   C23  0.521306  0.861764  0.510536  0.854456
    O   O11  0.645354  0.061245  0.742843  -0.648960
    O   O12  0.569645  0.928487  0.840448  -0.508676
    C   C24  0.649245  0.003314  0.826299  0.682991
    O   O13  0.299624  0.967753  0.619037  -0.461594
    O   O14  0.525750  0.112818  0.536008  -0.525573
    C   C25  0.501302  0.188462  0.574548  0.564412
    O   O15  0.414384  0.005467  0.779445  -0.477685
    C   C26  0.321075  0.980631  0.735402  0.528845
    O   O16  0.466897  0.188898  0.679269  -0.523732
    Fe  Fe2  0.508355  0.016304  0.656482  1.436288
    C   C27  0.467667  0.242977  0.376700  -0.070018
    C   C28  0.500974  0.266843  0.497064  -0.109716
    C   C29  0.525247  0.364047  0.545686  0.095783
    C   C30  0.575217  0.394304  0.659075  -0.127430
    C   C31  0.597492  0.489664  0.707400  -0.215341
    C   C32  0.394055  0.283852  0.198368  -0.385472
    C   C33  0.441003  0.311075  0.312595  0.196255
    C   C34  0.457285  0.405534  0.364087  -0.174290
    C   C35  0.360860  0.347508  0.136648  0.656790
    C   C36  0.376377  0.443069  0.187698  -0.597543
    C   C37  0.503153  0.432924  0.479063  0.096416
    C   C38  0.525015  0.528845  0.528733  -0.073685
    C   C39  0.571458  0.556304  0.643259  0.201110
    C   C40  0.593130  0.650910  0.694166  -0.189319
    C   C41  0.428390  0.472744  0.300690  0.268716
    C   C42  0.451337  0.569516  0.351141  -0.119996
    C   C43  0.500662  0.597418  0.464433  0.091010
    C   C44  0.522597  0.693075  0.515567  0.014106
    C   C45  0.568797  0.718998  0.631408  -0.043869
    C   C46  0.339264  0.509356  0.132439  0.747411
    C   C47  0.362325  0.603947  0.184288  -0.457581
    C   C48  0.425164  0.638148  0.288347  0.190781
    C   C49  0.457623  0.738169  0.332997  -0.011697
    C   C50  0.500720  0.763030  0.450810  -0.125814
    H   H8   0.601432  0.346275  0.711133  0.146301
    H   H9   0.636159  0.511963  0.796008  0.139815
    H   H10  0.377536  0.210488  0.155756  0.115965
    H   H11  0.629702  0.672518  0.783861  0.129646
    H   H12  0.588666  0.792119  0.676440  0.083742
    H   H13  0.325349  0.648750  0.142076  0.177928
    N   N1   0.312274  0.311998  0.019736  -0.764202
    H   H14  0.361530  0.291154  0.969313  0.332561
    H   H15  0.250954  0.249211  0.026901  0.266171
    N   N2   0.274161  0.483829  0.024515  -0.851278
    H   H16  0.311712  0.470505  0.952933  0.359509
    H   H17  0.210861  0.423922  0.034658  0.339918
    N   N3   0.128087  0.962352  0.322809  -0.811782
    H   H18  0.185785  0.025962  0.358893  0.318079
    H   H19  0.150340  0.901392  0.334513  0.349843
