# Generated by REPEAT Assigner based on pymatgen
data_DB0-m3_o146_o20_f0_fsc.sym.127_sqe
_audit_creation_date              2022-05-24
_audit_creation_method            REPEAT_Assigner
_cell_length_a                    15.291108
_cell_length_b                    11.857669
_cell_length_c                    12.822286
_cell_angle_alpha                 90.182559
_cell_angle_beta                  90.000000
_cell_angle_gamma                 90.000000
_cell_volume                      2324.885342
_symmetry_space_group_name_H-M    P1
_symmetry_Int_Tables_number       1
loop_
    _symmetry_equiv_pos_site_id
    _symmetry_equiv_pos_as_xyz
    1  x,y,z
loop_
    _atom_site_type_symbol
    _atom_site_label
    _atom_site_fract_x
    _atom_site_fract_y
    _atom_site_fract_z
    _atom_type_partial_charge
    C   C1   0.293408  0.745143  0.003367  -0.069431
    C   C2   0.686804  0.277397  0.995502  -0.063703
    C   C3   0.068229  0.952022  0.003318  -0.027053
    C   C4   0.911592  0.069488  0.997256  -0.045219
    C   C5   0.171163  0.826255  0.092910  -0.139894
    C   C6   0.810415  0.197761  0.907812  -0.126954
    H   H1   0.130817  0.831962  0.161953  0.088760
    H   H2   0.852059  0.193681  0.839887  0.081419
    C   C7   0.271428  0.805755  0.915194  -0.087393
    C   C8   0.709204  0.218550  0.084454  -0.125861
    H   H3   0.309205  0.797434  0.844352  0.106330
    H   H4   0.671535  0.227643  0.155294  0.112630
    C   C9   0.243613  0.757143  0.092752  -0.110419
    C   C10  0.737609  0.266231  0.906927  -0.090819
    H   H5   0.258583  0.709501  0.162196  0.113716
    H   H6   0.723137  0.314075  0.837450  0.104899
    C   C11  0.149460  0.886940  0.005144  0.202291
    C   C12  0.830903  0.135803  0.995210  0.197796
    C   C13  0.200067  0.877074  0.916452  -0.208093
    C   C14  0.780931  0.148050  0.084162  -0.168864
    H   H7   0.182123  0.922222  0.846546  0.118810
    H   H8   0.799545  0.105611  0.155155  0.117409
    C   C15  0.294553  0.275353  0.000407  -0.082764
    C   C16  0.686132  0.743649  0.996422  -0.028666
    C   C17  0.068550  0.068737  0.001230  0.064178
    C   C18  0.911126  0.952473  0.998199  0.062488
    C   C19  0.179522  0.178856  0.911179  -0.169219
    C   C20  0.784219  0.868442  0.083839  -0.114433
    H   H9   0.144979  0.160583  0.839532  0.097873
    H   H10  0.806759  0.906356  0.155664  0.098828
    C   C21  0.266246  0.228916  0.093261  -0.189732
    C   C22  0.732715  0.759120  0.905281  -0.259748
    H   H11  0.300641  0.247444  0.164842  0.117734
    H   H12  0.715832  0.709948  0.837316  0.133508
    C   C23  0.251256  0.248969  0.909088  -0.114347
    C   C24  0.712376  0.798431  0.086001  -0.163341
    H   H13  0.271484  0.284499  0.835440  0.114805
    H   H14  0.678353  0.785475  0.158860  0.117641
    C   C25  0.149996  0.133771  0.003783  0.103630
    C   C26  0.829629  0.887214  0.992291  0.003109
    C   C27  0.193084  0.160195  0.096524  0.086176
    C   C28  0.803741  0.831473  0.901231  0.204078
    C   C29  0.989578  0.894872  0.002618  -0.204317
    C   C30  0.990306  0.126328  0.996660  -0.175685
    H   H15  0.989353  0.803703  0.003210  0.105987
    H   H16  0.990677  0.217463  0.995060  0.093372
    O   O1   0.585709  0.624840  0.088421  -0.650643
    O   O2   0.393708  0.396509  0.909789  -0.660784
    O   O3   0.580493  0.630144  0.908694  -0.640946
    O   O4   0.399281  0.390511  0.089370  -0.629004
    C   C31  0.612993  0.663688  0.998241  0.724095
    C   C32  0.366877  0.356784  0.999727  0.733555
    O   O5   0.584447  0.395962  0.907875  -0.663228
    O   O6   0.394945  0.624944  0.090182  -0.660110
    O   O7   0.583148  0.390657  0.087543  -0.636916
    O   O8   0.396567  0.630794  0.910639  -0.641748
    C   C33  0.613648  0.357117  0.996999  0.713112
    C   C34  0.365974  0.664307  0.001214  0.716867
    Zn  Zn1  0.489377  0.510504  0.883335  1.082806
    Zn  Zn2  0.490124  0.510603  0.114787  1.061904
    N   N1   0.487983  0.511191  0.746398  -0.166672
    N   N2   0.491438  0.509925  0.251724  -0.162635
    C   C35  0.488411  0.511051  0.656165  0.301254
    C   C36  0.490993  0.510068  0.341957  0.301144
    C   C37  0.489270  0.510728  0.546046  0.013118
    C   C38  0.490125  0.510394  0.452074  0.011307
    C   C39  0.163833  0.116142  0.200733  -0.226514
    C   C40  0.134460  0.210858  0.273836  0.564262
    C   C41  0.053112  0.268948  0.232243  -0.385970
    C   C42  0.114488  0.161731  0.380398  -0.428856
    H   H17  0.219981  0.071728  0.236787  0.037958
    H   H18  0.109970  0.054477  0.193910  0.061771
    H   H19  0.187016  0.274314  0.283407  -0.085171
    H   H20  0.000371  0.206239  0.219500  0.078663
    H   H21  0.067905  0.312824  0.158112  0.072921
    H   H22  0.030331  0.332617  0.289655  0.064146
    H   H23  0.060850  0.099125  0.374118  0.082243
    H   H24  0.094516  0.230136  0.434554  0.089615
    H   H25  0.173695  0.120066  0.412057  0.074389
    C   C43  0.855147  0.838297  0.800956  -0.238755
    C   C44  0.799155  0.871197  0.706874  0.509974
    C   C45  0.766750  0.991638  0.716621  -0.379588
    C   C46  0.853806  0.860574  0.608473  -0.440657
    H   H26  0.883568  0.753790  0.785783  0.045177
    H   H27  0.909874  0.898930  0.806103  0.058948
    H   H28  0.742128  0.814617  0.697970  -0.067290
    H   H29  0.823252  0.050025  0.716883  0.097302
    H   H30  0.727976  0.002500  0.788977  0.056801
    H   H31  0.724372  0.011752  0.648999  0.068140
    H   H32  0.912399  0.915383  0.614017  0.087724
    H   H33  0.814272  0.886103  0.539994  0.095358
    H   H34  0.874769  0.771746  0.597849  0.079421
