# Generated by REPEAT Assigner based on pymatgen
data_DB0-m2_o7_o13_f0_pcu.sym.61
_audit_creation_date              2022-05-24
_audit_creation_method            REPEAT_Assigner
_cell_length_a                    12.986302
_cell_length_b                    17.679077
_cell_length_c                    16.250104
_cell_angle_alpha                 89.975061
_cell_angle_beta                  95.497729
_cell_angle_gamma                 90.009644
_cell_volume                      3713.631435
_symmetry_space_group_name_H-M    P1
_symmetry_Int_Tables_number       1
loop_
    _symmetry_equiv_pos_site_id
    _symmetry_equiv_pos_as_xyz
    1  x,y,z
loop_
    _atom_site_type_symbol
    _atom_site_label
    _atom_site_fract_x
    _atom_site_fract_y
    _atom_site_fract_z
    _atom_type_partial_charge
    O   O1   0.502382  0.390814  0.571394  -0.626456
    O   O2   0.497068  0.612063  0.432538  -0.590336
    O   O3   0.493602  0.392290  0.429521  -0.582542
    O   O4   0.505275  0.610680  0.574540  -0.625958
    C   C1   0.497418  0.356014  0.499999  0.697079
    C   C2   0.501401  0.646874  0.503871  0.710758
    O   O5   0.350154  0.504492  0.562045  -0.604178
    O   O6   0.649142  0.498285  0.441792  -0.586174
    O   O7   0.348478  0.500753  0.420534  -0.610278
    O   O8   0.650763  0.502250  0.583162  -0.602669
    C   C3   0.300650  0.502883  0.487871  0.697583
    C   C4   0.698537  0.499905  0.515894  0.672139
    Cu  Cu1  0.500383  0.500418  0.584335  0.920207
    Cu  Cu2  0.498682  0.502393  0.419623  0.889158
    C   C5   0.812029  0.499948  0.524299  -0.032231
    C   C6   0.187102  0.502720  0.479520  -0.024343
    C   C7   0.026343  0.500943  0.393955  -0.275963
    C   C8   0.972756  0.501098  0.609970  -0.264610
    C   C9   0.132931  0.502032  0.401950  -0.114908
    C   C10  0.866107  0.500446  0.601921  -0.099544
    C   C11  0.133177  0.502560  0.548904  -0.248685
    C   C12  0.865924  0.499973  0.454930  -0.238322
    C   C13  0.026277  0.501479  0.540661  0.229748
    C   C14  0.972794  0.500741  0.463232  0.227821
    H   H1   0.825068  0.499736  0.393751  0.131971
    H   H2   0.173958  0.503210  0.610068  0.135440
    H   H3   0.825948  0.500240  0.657125  0.120509
    H   H4   0.172658  0.502321  0.346555  0.131425
    H   H5   0.985211  0.500186  0.332942  0.148229
    H   H6   0.014052  0.501282  0.670971  0.137300
    C   C15  0.457386  0.847175  0.566881  -0.188758
    C   C16  0.486824  0.156509  0.422316  -0.069282
    C   C17  0.464745  0.769094  0.569499  0.043915
    C   C18  0.489961  0.234706  0.424255  -0.043772
    H   H7   0.437763  0.738858  0.621105  0.066111
    H   H8   0.487321  0.265478  0.366654  0.083133
    C   C19  0.499635  0.729815  0.503924  -0.146426
    C   C20  0.494672  0.273086  0.498716  -0.102991
    C   C21  0.528857  0.769115  0.436420  -0.076534
    C   C22  0.495491  0.232713  0.571567  -0.069124
    H   H9   0.556716  0.739580  0.384726  0.112536
    H   H10  0.498768  0.261275  0.630533  0.121689
    C   C23  0.524729  0.846945  0.434974  -0.192466
    C   C24  0.491581  0.154855  0.569839  -0.197008
    H   H11  0.549565  0.877457  0.382694  0.139666
    H   H12  0.492747  0.123617  0.627136  0.141514
    C   C25  0.488246  0.886004  0.499490  0.287132
    C   C26  0.486710  0.116615  0.495635  0.221835
    C   C27  0.486702  0.967189  0.497367  -0.164779
    C   C28  0.486375  0.035364  0.496193  -0.113456
    C   C29  0.590953  0.524190  0.840008  -0.129170
    C   C30  0.436014  0.451998  0.165996  -0.193661
    C   C31  0.586689  0.523892  0.754555  0.014279
    C   C32  0.436173  0.454318  0.251089  0.132022
    H   H13  0.653744  0.541376  0.725419  0.117443
    H   H14  0.387281  0.415838  0.281451  0.088712
    N   N1   0.501957  0.499552  0.707593  -0.060281
    N   N2   0.497178  0.503506  0.296467  -0.165405
    C   C33  0.417627  0.476957  0.743369  -0.012924
    C   C34  0.559437  0.551339  0.259905  0.047221
    H   H15  0.349690  0.457338  0.706012  0.136345
    H   H16  0.607294  0.590917  0.296871  0.124877
    C   C35  0.418146  0.477243  0.828261  -0.208270
    C   C36  0.561154  0.550807  0.175230  -0.239541
    H   H17  0.350748  0.458400  0.856814  0.144330
    H   H18  0.610637  0.589596  0.145964  0.145137
    C   C37  0.504840  0.500548  0.877136  0.280469
    C   C38  0.499803  0.500668  0.127842  0.305281
    C   C39  0.502644  0.501376  0.965433  -0.142383
    C   C40  0.501081  0.501390  0.039528  -0.137889
    C   C41  0.408400  0.888079  0.631627  0.501146
    O   O9   0.334343  0.928701  0.611391  -0.431868
    C   C42  0.444486  0.880626  0.720023  -0.060352
    C   C43  0.380908  0.904036  0.778747  -0.060203
    C   C44  0.414749  0.900661  0.861702  -0.091792
    C   C45  0.512601  0.874634  0.886691  -0.138637
    C   C46  0.576740  0.851888  0.828658  -0.056875
    C   C47  0.542998  0.854648  0.745504  -0.054201
    H   H19  0.303892  0.924938  0.760603  0.090811
    H   H20  0.364607  0.918880  0.907237  0.110667
    H   H21  0.539164  0.872553  0.951754  0.111699
    H   H22  0.654006  0.832510  0.848628  0.081085
    H   H23  0.595417  0.838026  0.701048  0.049767
    C   C48  0.479581  0.116796  0.342350  0.409344
    O   O10  0.413043  0.068635  0.327728  -0.426272
    C   C49  0.547921  0.136002  0.278038  0.029206
    C   C50  0.517496  0.118313  0.196416  -0.097095
    C   C51  0.581040  0.134767  0.135486  -0.063505
    C   C52  0.675842  0.168254  0.155678  -0.137810
    C   C53  0.707334  0.185070  0.236954  -0.055859
    C   C54  0.643895  0.168887  0.298069  -0.135879
    H   H24  0.443148  0.092427  0.179258  0.098774
    H   H25  0.556308  0.121505  0.071719  0.098707
    H   H26  0.725544  0.181185  0.107837  0.117309
    H   H27  0.782056  0.210871  0.252885  0.096518
    H   H28  0.671286  0.181319  0.361492  0.080574
    C   C55  0.688870  0.543760  0.889632  0.449235
    O   O11  0.715353  0.507284  0.951811  -0.413169
    C   C56  0.760859  0.601285  0.862675  -0.061920
    C   C57  0.865317  0.594723  0.887660  -0.066507
    C   C58  0.934397  0.647799  0.863803  -0.045644
    C   C59  0.899693  0.708065  0.815123  -0.130852
    C   C60  0.795707  0.715574  0.790896  -0.090509
    C   C61  0.726192  0.663054  0.815390  -0.041273
    H   H29  0.894261  0.547313  0.924967  0.083123
    H   H30  0.015991  0.641909  0.883058  0.080153
    H   H31  0.953830  0.749694  0.796429  0.112297
    H   H32  0.768551  0.763104  0.753026  0.116082
    H   H33  0.644705  0.671159  0.797436  0.050534
    C   C62  0.372909  0.395285  0.117823  0.485025
    O   O12  0.413500  0.355219  0.069064  -0.424225
    C   C63  0.263099  0.383287  0.129657  -0.049482
    C   C64  0.216605  0.315127  0.106667  -0.092523
    C   C65  0.113255  0.303485  0.115640  -0.061520
    C   C66  0.055281  0.360219  0.146482  -0.132318
    C   C67  0.100829  0.428566  0.168525  -0.050838
    C   C68  0.204336  0.440206  0.160237  -0.083250
    H   H34  0.260847  0.269909  0.082439  0.101829
    H   H35  0.077671  0.249829  0.098161  0.102007
    H   H36  0.974027  0.351338  0.152891  0.119156
    H   H37  0.055287  0.473432  0.191894  0.094881
    H   H38  0.237804  0.494750  0.176529  0.062750
