# Generated by REPEAT Assigner based on pymatgen
data_DB0-m2_o10_o21_f0_pcu.sym.6
_audit_creation_date              2022-05-24
_audit_creation_method            REPEAT_Assigner
_cell_length_a                    14.002725
_cell_length_b                    8.783289
_cell_length_c                    7.289430
_cell_angle_alpha                 104.235758
_cell_angle_beta                  91.657099
_cell_angle_gamma                 90.597560
_cell_volume                      868.490592
_symmetry_space_group_name_H-M    P1
_symmetry_Int_Tables_number       1
loop_
    _symmetry_equiv_pos_site_id
    _symmetry_equiv_pos_as_xyz
    1  x,y,z
loop_
    _atom_site_type_symbol
    _atom_site_label
    _atom_site_fract_x
    _atom_site_fract_y
    _atom_site_fract_z
    _atom_type_partial_charge
    O   O1   0.503389  0.290577  0.627047  -0.373968
    O   O2   0.496773  0.711532  0.374447  -0.414505
    O   O3   0.493716  0.258309  0.303300  -0.421882
    O   O4   0.505968  0.743789  0.697541  -0.432413
    C   C1   0.498077  0.202190  0.453921  0.510560
    C   C2   0.501758  0.800243  0.547440  0.490638
    O   O5   0.370069  0.513161  0.679839  -0.630688
    O   O6   0.629839  0.478711  0.319601  -0.609612
    O   O7   0.353671  0.481008  0.357424  -0.643049
    O   O8   0.646256  0.511694  0.642044  -0.623169
    C   C3   0.317689  0.502092  0.525213  0.930823
    C   C4   0.682261  0.499451  0.475765  0.896706
    Cu  Cu1  0.512391  0.523046  0.688100  0.680089
    Cu  Cu2  0.489526  0.481313  0.313046  0.741146
    C   C5   0.783949  0.496366  0.460553  -0.322164
    C   C6   0.215967  0.502421  0.539806  -0.329053
    C   C7   0.970898  0.490856  0.424382  0.045923
    C   C8   0.029000  0.505890  0.575331  0.062753
    C   C9   0.130551  0.503677  0.554546  0.091072
    C   C10  0.869276  0.493884  0.445518  0.096055
    C   C11  0.497062  0.032036  0.426044  0.000571
    C   C12  0.503045  0.970289  0.574924  0.037907
    N   N1   0.476221  0.453731  0.032842  -0.016104
    N   N2   0.521760  0.546586  0.968186  0.046890
    H   H1   0.422689  0.394917  0.942835  0.217997
    H   H2   0.577779  0.606628  0.056879  0.189513
    Cl  Cl1  0.982342  0.530276  0.801218  -0.024496
    Cl  Cl2  0.018070  0.468766  0.199126  -0.016865
    Cl  Cl3  0.487706  0.909567  0.196395  -0.083672
    Cl  Cl4  0.512381  0.092337  0.804367  -0.097003
