# Generated by REPEAT Assigner based on pymatgen
data_DB0-m3_o3_o9_f0_nbo.sym.95_sqe
_audit_creation_date              2022-05-24
_audit_creation_method            REPEAT_Assigner
_cell_length_a                    44.194506
_cell_length_b                    38.868323
_cell_length_c                    21.820405
_cell_angle_alpha                 90.000000
_cell_angle_beta                  61.465557
_cell_angle_gamma                 90.000000
_cell_volume                      32929.379141
_symmetry_space_group_name_H-M    P1
_symmetry_Int_Tables_number       1
loop_
    _symmetry_equiv_pos_site_id
    _symmetry_equiv_pos_as_xyz
    1  x,y,z
loop_
    _atom_site_type_symbol
    _atom_site_label
    _atom_site_fract_x
    _atom_site_fract_y
    _atom_site_fract_z
    _atom_type_partial_charge
    O   O1    0.051372  0.528962  0.454424  -0.672376
    O   O2    0.948788  0.530078  0.545036  -0.655937
    O   O3    0.551372  0.028962  0.454424  -0.672339
    O   O4    0.448788  0.030078  0.545036  -0.655965
    O   O5    0.051727  0.469635  0.456254  -0.687571
    O   O6    0.949117  0.470732  0.550111  -0.734816
    O   O7    0.551727  0.969635  0.456254  -0.687554
    O   O8    0.449117  0.970732  0.550111  -0.734844
    C   C1    0.067680  0.499383  0.440894  0.608452
    C   C2    0.932896  0.500279  0.562124  0.662601
    C   C3    0.567680  0.999383  0.440894  0.608398
    C   C4    0.432896  0.000279  0.562124  0.662618
    O   O9    0.996907  0.528919  0.595357  -0.707428
    O   O10   0.001805  0.530165  0.408101  -0.698139
    O   O11   0.496907  0.028919  0.595357  -0.707410
    O   O12   0.501805  0.030165  0.408101  -0.698146
    O   O13   0.999527  0.469590  0.593911  -0.676579
    O   O14   0.002633  0.470796  0.408421  -0.698669
    O   O15   0.499527  0.969590  0.593911  -0.676568
    O   O16   0.502633  0.970796  0.408421  -0.698673
    C   C5    0.997311  0.499326  0.624000  0.672515
    C   C6    0.003066  0.500312  0.378947  0.686047
    C   C7    0.497311  0.999326  0.624000  0.672504
    C   C8    0.503066  0.000312  0.378947  0.686053
    Zn  Zn1   0.000133  0.538802  0.501218  1.322108
    Zn  Zn2   0.500133  0.038802  0.501218  1.322108
    Zn  Zn3   0.000355  0.460901  0.501661  1.328207
    Zn  Zn4   0.500355  0.960901  0.501661  1.328213
    H   H1    0.882404  0.604113  0.738707  0.115212
    H   H2    0.116981  0.606224  0.259320  0.120908
    H   H3    0.382404  0.104113  0.738707  0.115214
    H   H4    0.616981  0.106224  0.259320  0.120907
    C   C9    0.927185  0.599948  0.751680  -0.112785
    C   C10   0.070548  0.601733  0.252422  -0.115598
    C   C11   0.427185  0.099948  0.751680  -0.112776
    C   C12   0.570548  0.101733  0.252422  -0.115595
    H   H5    0.928227  0.627190  0.760446  0.104638
    H   H6    0.068628  0.629050  0.245668  0.109491
    H   H7    0.428227  0.127190  0.760446  0.104637
    H   H8    0.568628  0.129050  0.245668  0.109488
    C   C13   0.951340  0.578103  0.753379  -0.184634
    C   C14   0.046191  0.579627  0.252294  -0.190182
    C   C15   0.451340  0.078103  0.753379  -0.184645
    C   C16   0.546191  0.079627  0.252294  -0.190180
    H   H9    0.971275  0.588336  0.763480  0.117815
    H   H10   0.025247  0.589692  0.245283  0.117716
    H   H11   0.471276  0.088336  0.763480  0.117814
    H   H12   0.525247  0.089692  0.245283  0.117712
    C   C17   0.950322  0.543355  0.741466  0.260922
    C   C18   0.048380  0.544780  0.261622  0.267712
    C   C19   0.450322  0.043355  0.741466  0.260932
    C   C20   0.548380  0.044780  0.261622  0.267721
    C   C21   0.924408  0.530424  0.729755  -0.091014
    C   C22   0.075567  0.532020  0.269195  -0.086312
    C   C23   0.424408  0.030424  0.729755  -0.091021
    C   C24   0.575567  0.032020  0.269195  -0.086321
    H   H13   0.922795  0.503112  0.722419  0.077101
    H   H14   0.078039  0.504647  0.274388  0.070640
    H   H15   0.422795  0.003112  0.722419  0.077100
    H   H16   0.578039  0.004647  0.274388  0.070642
    C   C25   0.899996  0.552254  0.729015  -0.182050
    C   C26   0.100281  0.554081  0.267851  -0.147329
    C   C27   0.399996  0.052254  0.729015  -0.182045
    C   C28   0.600281  0.054081  0.267851  -0.147330
    H   H17   0.879447  0.542099  0.720881  0.133909
    H   H18   0.121997  0.543988  0.271949  0.115988
    H   H19   0.379447  0.042099  0.720881  0.133907
    H   H20   0.621997  0.043988  0.271949  0.115988
    C   C29   0.901523  0.587029  0.739451  -0.132938
    C   C30   0.097622  0.588954  0.260135  -0.152698
    C   C31   0.401523  0.087029  0.739451  -0.132944
    C   C32   0.597622  0.088954  0.260135  -0.152697
    C   C33   0.975880  0.518328  0.808743  -0.286829
    C   C34   0.022355  0.519418  0.195691  -0.287887
    C   C35   0.475880  0.018328  0.808743  -0.286830
    C   C36   0.522355  0.019418  0.195691  -0.287897
    H   H21   0.959039  0.534684  0.851623  0.153617
    H   H22   0.038556  0.536198  0.153012  0.158978
    H   H23   0.459039  0.034684  0.851623  0.153616
    H   H24   0.538556  0.036198  0.153012  0.158983
    C   C37   0.997623  0.495713  0.817265  0.146940
    C   C38   0.000969  0.496225  0.187484  0.135284
    C   C39   0.497623  0.995713  0.817265  0.146951
    C   C40   0.500969  0.996225  0.187484  0.135316
    C   C41   0.018892  0.474458  0.762717  -0.113721
    C   C42   0.980638  0.474383  0.241807  -0.114389
    C   C43   0.518892  0.974458  0.762717  -0.113734
    C   C44   0.480638  0.974383  0.241807  -0.114404
    C   C45   0.018195  0.476218  0.700441  -0.238011
    C   C46   0.981960  0.476121  0.303490  -0.233670
    C   C47   0.518195  0.976218  0.700441  -0.238039
    C   C48   0.481960  0.976121  0.303490  -0.233682
    H   H25   0.034640  0.459314  0.658256  0.124601
    H   H26   0.966258  0.458801  0.345533  0.119111
    H   H27   0.534640  0.959314  0.658256  0.124617
    H   H28   0.466258  0.958801  0.345533  0.119117
    C   C49   0.996692  0.498975  0.691535  0.120738
    C   C50   0.003161  0.499452  0.311940  0.122072
    C   C51   0.496692  0.998975  0.691535  0.120743
    C   C52   0.503161  0.999452  0.311940  0.122080
    C   C53   0.975229  0.520202  0.746246  -0.080924
    C   C54   0.023573  0.521285  0.257550  -0.080367
    C   C55   0.475229  0.020202  0.746246  -0.080917
    C   C56   0.523573  0.021285  0.257550  -0.080371
    C   C57   0.075671  0.448931  0.728353  -0.218836
    C   C58   0.924338  0.447765  0.276102  -0.226893
    C   C59   0.575671  0.948931  0.728353  -0.218877
    C   C60   0.424338  0.947765  0.276102  -0.226901
    H   H29   0.087462  0.469848  0.691934  0.120727
    H   H30   0.912153  0.468780  0.312028  0.121734
    H   H31   0.587462  0.969848  0.691934  0.120730
    H   H32   0.412153  0.968780  0.312028  0.121735
    C   C61   0.095942  0.423165  0.732890  -0.102126
    C   C62   0.904564  0.421371  0.271946  -0.103703
    C   C63   0.595942  0.923165  0.732890  -0.102019
    C   C64   0.404564  0.921371  0.271946  -0.103706
    H   H33   0.123568  0.423964  0.700218  0.101334
    H   H34   0.876912  0.421784  0.304379  0.103877
    H   H35   0.623568  0.923964  0.700218  0.101317
    H   H36   0.376912  0.921784  0.304379  0.103880
    C   C65   0.080944  0.396112  0.778302  -0.147462
    C   C66   0.920103  0.394171  0.227287  -0.147989
    C   C67   0.580944  0.896112  0.778302  -0.147618
    C   C68   0.420103  0.894171  0.227287  -0.147987
    H   H37   0.096780  0.375663  0.781223  0.120638
    H   H38   0.904665  0.373225  0.224700  0.120447
    H   H39   0.596780  0.875663  0.781223  0.120717
    H   H40   0.404665  0.873225  0.224700  0.120447
    C   C69   0.045688  0.394881  0.819245  -0.120051
    C   C70   0.955397  0.393432  0.186694  -0.120475
    C   C71   0.545688  0.894881  0.819245  -0.120219
    C   C72   0.455397  0.893432  0.186694  -0.120491
    H   H41   0.033871  0.373217  0.853418  0.079801
    H   H42   0.967643  0.371664  0.153153  0.082585
    H   H43   0.533871  0.873217  0.853418  0.079899
    H   H44   0.467643  0.871664  0.153153  0.082599
    C   C73   0.025455  0.421019  0.815932  -0.136705
    C   C74   0.975120  0.420217  0.189513  -0.146857
    C   C75   0.525455  0.921019  0.815932  -0.136609
    C   C76   0.475120  0.920217  0.189513  -0.146840
    H   H45   0.997781  0.419734  0.847637  0.070892
    H   H46   0.002825  0.419360  0.158051  0.074525
    H   H47   0.497781  0.919734  0.847637  0.070880
    H   H48   0.502825  0.919360  0.158051  0.074514
    C   C77   0.040437  0.448163  0.770544  0.336366
    C   C78   0.959596  0.447476  0.234198  0.353702
    C   C79   0.540437  0.948163  0.770544  0.336395
    C   C80   0.459596  0.947476  0.234198  0.353713
    C   C81   0.376598  0.498753  0.075357  -0.258713
    C   C82   0.624340  0.480241  0.922464  -0.247055
    C   C83   0.876598  0.998753  0.075357  -0.258617
    C   C84   0.124339  0.980241  0.922464  -0.247027
    H   H49   0.389827  0.499395  0.019217  0.157876
    H   H50   0.610602  0.467078  0.971648  0.147212
    H   H51   0.889827  0.999395  0.019217  0.157861
    H   H52   0.110602  0.967077  0.971648  0.147197
    C   C85   0.340939  0.499582  0.111363  0.212000
    C   C86   0.660018  0.479744  0.886389  0.179674
    C   C87   0.840939  0.999582  0.111363  0.211862
    C   C88   0.160018  0.979744  0.886389  0.179675
    C   C89   0.324023  0.497760  0.183595  -0.047708
    C   C90   0.677246  0.496249  0.822140  -0.019408
    C   C91   0.824023  0.997760  0.183595  -0.047657
    C   C92   0.177246  0.996249  0.822140  -0.019400
    C   C93   0.342864  0.494905  0.218738  -0.129797
    C   C94   0.658376  0.511727  0.794234  -0.140795
    C   C95   0.842864  0.994905  0.218738  -0.129805
    C   C96   0.158376  0.011727  0.794234  -0.140799
    H   H53   0.329887  0.493662  0.275057  0.108539
    H   H54   0.671201  0.525066  0.744862  0.115555
    H   H55   0.829887  0.993662  0.275057  0.108534
    H   H56   0.171201  0.025066  0.744862  0.115554
    C   C97   0.378315  0.494446  0.182746  -0.166006
    C   C98   0.622922  0.511087  0.829482  -0.180528
    C   C99   0.878315  0.994446  0.182746  -0.165970
    C   C100  0.122922  0.011087  0.829482  -0.180517
    H   H57   0.392332  0.492501  0.211814  0.122615
    H   H58   0.608771  0.523571  0.806779  0.136309
    H   H59   0.892332  0.992501  0.211814  0.122607
    H   H60   0.108771  0.023571  0.806780  0.136305
    C   C101  0.395409  0.496406  0.110807  0.010115
    C   C102  0.605790  0.495767  0.894139  0.005210
    C   C103  0.895409  0.996406  0.110807  0.010027
    C   C104  0.105790  0.995767  0.894139  0.005157
    C   C105  0.268853  0.473499  0.272455  -0.137504
    C   C106  0.732126  0.492149  0.711619  -0.126848
    C   C107  0.768853  0.973499  0.272455  -0.137500
    C   C108  0.232126  0.992149  0.711619  -0.126855
    H   H61   0.282884  0.452968  0.281075  0.107946
    H   H62   0.717869  0.486043  0.684300  0.114632
    H   H63   0.782884  0.952968  0.281075  0.107946
    H   H64   0.217869  0.986044  0.684300  0.114636
    C   C109  0.233377  0.473855  0.309603  -0.191499
    C   C110  0.767587  0.493662  0.674500  -0.177432
    C   C111  0.733377  0.973855  0.309603  -0.191551
    C   C112  0.267587  0.993663  0.674500  -0.177428
    H   H65   0.220363  0.453939  0.347824  0.123042
    H   H66   0.780592  0.489060  0.618896  0.103318
    H   H67   0.720363  0.953939  0.347824  0.123059
    H   H68   0.280592  0.989060  0.618896  0.103316
    C   C113  0.214865  0.499672  0.298918  0.063776
    C   C114  0.786487  0.499781  0.708512  0.044420
    C   C115  0.714865  0.999672  0.298918  0.063794
    C   C116  0.286487  0.999781  0.708512  0.044413
    C   C117  0.232414  0.525269  0.250906  -0.105866
    C   C118  0.769817  0.505399  0.779440  -0.104057
    C   C119  0.732414  0.025269  0.250906  -0.105763
    C   C120  0.269817  0.005399  0.779441  -0.104042
    H   H69   0.218604  0.545493  0.240818  0.119549
    H   H70   0.784554  0.510740  0.806120  0.096274
    H   H71   0.718604  0.045493  0.240818  0.119510
    H   H72   0.284554  0.010740  0.806120  0.096273
    C   C121  0.267883  0.524751  0.213486  -0.241611
    C   C122  0.734346  0.505094  0.816270  -0.198190
    C   C123  0.767883  0.024751  0.213486  -0.241732
    C   C124  0.234346  0.005094  0.816270  -0.198203
    H   H73   0.281166  0.545075  0.176479  0.106706
    H   H74   0.721820  0.511045  0.871291  0.095463
    H   H75   0.781166  0.045075  0.176479  0.106743
    H   H76   0.221820  0.011045  0.871291  0.095470
    C   C125  0.286278  0.498637  0.223476  0.195929
    C   C126  0.715181  0.497564  0.782988  0.116992
    C   C127  0.786278  0.998637  0.223476  0.195957
    C   C128  0.215181  0.997564  0.782988  0.117002
    C   C129  0.159017  0.469119  0.348576  -0.106094
    C   C130  0.842242  0.473895  0.680696  -0.213966
    C   C131  0.659017  0.969119  0.348576  -0.106126
    C   C132  0.342242  0.973895  0.680696  -0.213986
    H   H77   0.172479  0.445090  0.328791  0.112907
    H   H78   0.828677  0.453533  0.717391  0.127084
    H   H79   0.672479  0.945090  0.328791  0.112918
    H   H80   0.328677  0.953533  0.717391  0.127094
    C   C133  0.123517  0.469041  0.382816  -0.186589
    C   C134  0.877707  0.473559  0.644002  -0.133782
    C   C135  0.623517  0.969041  0.382816  -0.186579
    C   C136  0.377707  0.973559  0.644002  -0.133770
    H   H81   0.110217  0.444870  0.389577  0.127627
    H   H82   0.891596  0.453086  0.653193  0.134325
    H   H83   0.610217  0.944870  0.389577  0.127621
    H   H84   0.391596  0.953087  0.653193  0.134325
    C   C137  0.105449  0.499476  0.406447  0.144274
    C   C138  0.895222  0.499905  0.598182  0.093399
    C   C139  0.605449  0.999476  0.406447  0.144319
    C   C140  0.395222  0.999905  0.598182  0.093396
    C   C141  0.123360  0.529927  0.396429  -0.138447
    C   C142  0.876970  0.526182  0.588195  -0.123360
    C   C143  0.623360  0.029927  0.396429  -0.138482
    C   C144  0.376970  0.026182  0.588195  -0.123355
    H   H85   0.109877  0.554054  0.414877  0.112145
    H   H86   0.890317  0.546932  0.552420  0.105428
    H   H87   0.609877  0.054054  0.414877  0.112141
    H   H88   0.390317  0.046932  0.552420  0.105428
    C   C145  0.158897  0.530007  0.361808  -0.095893
    C   C146  0.841428  0.525753  0.623002  -0.144430
    C   C147  0.658897  0.030007  0.361808  -0.095901
    C   C148  0.341428  0.025753  0.623002  -0.144439
    H   H89   0.172308  0.554118  0.354968  0.094192
    H   H90   0.827217  0.546205  0.614679  0.103792
    H   H91   0.672308  0.054118  0.354968  0.094215
    H   H92   0.327217  0.046205  0.614679  0.103794
    C   C149  0.176998  0.499615  0.337345  0.026154
    C   C150  0.824052  0.499810  0.669861  0.158744
    C   C151  0.676998  0.999615  0.337345  0.026159
    C   C152  0.324052  0.999810  0.669861  0.158751
    O   O17   0.968637  0.444254  0.030633  -0.656695
    O   O18   0.028064  0.444363  0.976521  -0.672835
    O   O19   0.468637  0.944254  0.030633  -0.656696
    O   O20   0.528064  0.944363  0.976521  -0.672813
    C   C153  0.998368  0.428248  0.003733  0.533157
    C   C154  0.498368  0.928248  0.003733  0.533148
    O   O21   0.968350  0.495166  0.941228  -0.724548
    O   O22   0.030060  0.496874  0.063676  -0.723078
    O   O23   0.468350  0.995166  0.941228  -0.724549
    O   O24   0.530060  0.996874  0.063677  -0.723085
    O   O25   0.027810  0.495826  0.883212  -0.733481
    O   O26   0.970643  0.494643  0.121678  -0.727563
    O   O27   0.527810  0.995826  0.883212  -0.733488
    O   O28   0.470643  0.994643  0.121678  -0.727588
    C   C155  0.997993  0.495222  0.883802  0.726681
    C   C156  0.000465  0.495489  0.121079  0.720186
    C   C157  0.497993  0.995222  0.883802  0.726671
    C   C158  0.500465  0.995489  0.121079  0.720191
    Zn  Zn5   0.960197  0.495666  0.040785  1.333951
    Zn  Zn6   0.038214  0.495472  0.964162  1.337727
    Zn  Zn7   0.460197  0.995666  0.040785  1.333961
    Zn  Zn8   0.538214  0.995472  0.964162  1.337721
    O   O29   0.970363  0.546793  0.029729  -0.687491
    O   O30   0.029764  0.546899  0.972984  -0.667633
    O   O31   0.470363  0.046793  0.029729  -0.687498
    O   O32   0.529764  0.046899  0.972984  -0.667629
    C   C159  0.000045  0.562961  0.001225  0.610482
    C   C160  0.500045  0.062961  0.001225  0.610491
    O   O33   0.500430  0.443829  0.055682  -0.684434
    O   O34   0.500830  0.444889  0.949682  -0.697153
    O   O35   0.000430  0.943829  0.055682  -0.684389
    O   O36   0.000830  0.944889  0.949682  -0.697127
    C   C161  0.500640  0.428237  0.002202  0.631709
    C   C162  0.000640  0.928237  0.002202  0.631688
    O   O37   0.450114  0.494572  0.108069  -0.678080
    O   O38   0.551277  0.497145  0.896443  -0.710068
    O   O39   0.950114  0.994572  0.108069  -0.678099
    O   O40   0.051277  0.997145  0.896443  -0.710064
    O   O41   0.448656  0.497031  0.003968  -0.768945
    O   O42   0.552727  0.494160  0.000645  -0.771603
    O   O43   0.948656  0.997031  0.003968  -0.768975
    O   O44   0.052727  0.994160  0.000645  -0.771620
    C   C163  0.433217  0.495863  0.072402  0.743425
    C   C164  0.568093  0.495590  0.932246  0.780112
    C   C165  0.933217  0.995863  0.072402  0.743520
    C   C166  0.068093  0.995590  0.932246  0.780199
    Zn  Zn9   0.501815  0.495122  0.070488  1.336324
    Zn  Zn10  0.499573  0.496156  0.934130  1.342243
    Zn  Zn11  0.001815  0.995122  0.070488  1.336302
    Zn  Zn12  0.999573  0.996156  0.934130  1.342218
    O   O45   0.500877  0.546398  0.054644  -0.704793
    O   O46   0.500637  0.547453  0.949233  -0.683658
    O   O47   0.000877  0.046398  0.054644  -0.704780
    O   O48   0.000637  0.047453  0.949233  -0.683658
    C   C167  0.500758  0.563038  0.002398  0.655999
    C   C168  0.000758  0.063038  0.002398  0.655968
    C   C169  0.499088  0.618402  0.059810  -0.147850
    C   C170  0.501791  0.618996  0.947989  -0.146460
    C   C171  0.999088  0.118402  0.059810  -0.147852
    C   C172  0.001791  0.118996  0.947989  -0.146448
    H   H93   0.497925  0.604788  0.104051  0.126341
    H   H94   0.503231  0.605909  0.902995  0.122179
    H   H95   0.997925  0.104788  0.104051  0.126344
    H   H96   0.003231  0.105909  0.902995  0.122181
    C   C173  0.498673  0.653878  0.060734  -0.153119
    C   C174  0.501392  0.654431  0.948943  -0.144885
    C   C175  0.998673  0.153878  0.060734  -0.153125
    C   C176  0.001392  0.154431  0.948943  -0.144903
    H   H97   0.496681  0.667053  0.106111  0.115044
    H   H98   0.503105  0.668030  0.904216  0.113256
    H   H99   0.996681  0.167053  0.106111  0.115045
    H   H100  0.003105  0.168030  0.904216  0.113258
    C   C177  0.499751  0.672161  0.005358  0.094379
    C   C178  0.999751  0.172161  0.005358  0.094392
    C   C179  0.500594  0.600749  0.003450  0.090400
    C   C180  0.000594  0.100749  0.003450  0.090410
    C   C181  0.480778  0.727782  0.980062  -0.107157
    C   C182  0.517120  0.728186  0.032934  -0.111653
    C   C183  0.980778  0.227782  0.980062  -0.107175
    C   C184  0.017120  0.228186  0.032934  -0.111662
    H   H101  0.465993  0.714245  0.960048  0.107033
    H   H102  0.532156  0.714968  0.052753  0.109194
    H   H103  0.965993  0.214246  0.960048  0.107037
    H   H104  0.032156  0.214968  0.052753  0.109198
    C   C185  0.980454  0.263226  0.980244  -0.156384
    C   C186  0.016873  0.263650  0.032941  -0.141278
    C   C187  0.480454  0.763226  0.980244  -0.156423
    C   C188  0.516873  0.763650  0.032941  -0.141309
    H   H105  0.966390  0.276429  0.958189  0.108132
    H   H106  0.030785  0.277210  0.054908  0.103221
    H   H107  0.466390  0.776429  0.958189  0.108141
    H   H108  0.530785  0.777210  0.054908  0.103234
    C   C189  0.998568  0.281449  0.006518  0.071804
    C   C190  0.498568  0.781449  0.006518  0.071854
    C   C191  0.499161  0.709971  0.006282  0.028570
    C   C192  0.999161  0.209971  0.006282  0.028571
    C   C193  0.028178  0.337379  0.990717  -0.136912
    C   C194  0.968750  0.337124  0.020540  -0.146979
    C   C195  0.528178  0.837379  0.990717  -0.136956
    C   C196  0.468750  0.837124  0.020540  -0.146990
    H   H109  0.051959  0.324085  0.977690  0.106569
    H   H110  0.944995  0.323644  0.034152  0.114825
    H   H111  0.551959  0.824085  0.977690  0.106577
    H   H112  0.444995  0.823644  0.034152  0.114835
    C   C197  0.028158  0.372824  0.989864  -0.135067
    C   C198  0.968709  0.372570  0.019731  -0.143677
    C   C199  0.528158  0.872824  0.989864  -0.135035
    C   C200  0.468709  0.872570  0.019731  -0.143693
    H   H113  0.051735  0.386341  0.977616  0.109904
    H   H114  0.945099  0.385886  0.031449  0.111044
    H   H115  0.551735  0.886341  0.977616  0.109903
    H   H116  0.445099  0.885886  0.031449  0.111056
    C   C201  0.998425  0.390601  0.004333  0.278362
    C   C202  0.498425  0.890601  0.004333  0.278355
    C   C203  0.998481  0.319255  0.006031  0.057283
    C   C204  0.498481  0.819255  0.006031  0.057271
    C   C205  0.502710  0.372904  0.944326  -0.166786
    C   C206  0.498252  0.372201  0.057680  -0.136247
    C   C207  0.002710  0.872904  0.944326  -0.166590
    C   C208  0.998252  0.872201  0.057680  -0.136135
    H   H117  0.504458  0.386557  0.899620  0.131519
    H   H118  0.496633  0.385256  0.102859  0.117763
    H   H119  0.004458  0.886557  0.899619  0.131477
    H   H120  0.996633  0.885256  0.102859  0.117745
    C   C209  0.502676  0.337425  0.943687  -0.139119
    C   C210  0.497937  0.336754  0.057211  -0.148013
    C   C211  0.002676  0.837425  0.943687  -0.139179
    C   C212  0.997937  0.836754  0.057211  -0.147959
    H   H121  0.503842  0.324223  0.899032  0.114087
    H   H122  0.496672  0.323037  0.101445  0.115494
    H   H123  0.003842  0.824223  0.899032  0.114087
    H   H124  0.996672  0.823037  0.101445  0.115448
    C   C213  0.500179  0.319108  0.000219  0.075259
    C   C214  0.000179  0.819108  0.000219  0.075254
    C   C215  0.500544  0.390511  0.001319  0.103865
    C   C216  0.000544  0.890511  0.001319  0.103619
    C   C217  0.478020  0.263323  0.059309  -0.121950
    C   C218  0.521684  0.263347  0.940247  -0.135917
    C   C219  0.978020  0.763323  0.059309  -0.121957
    C   C220  0.021684  0.763347  0.940247  -0.135932
    H   H125  0.460375  0.276761  0.106264  0.104334
    H   H126  0.539409  0.276807  0.893395  0.108658
    H   H127  0.960375  0.776761  0.106264  0.104332
    H   H128  0.039409  0.776807  0.893395  0.108663
    C   C221  0.977831  0.727868  0.059144  -0.168442
    C   C222  0.021752  0.727877  0.940298  -0.156161
    C   C223  0.477831  0.227868  0.059144  -0.168446
    C   C224  0.521752  0.227877  0.940298  -0.156166
    H   H129  0.960783  0.714425  0.106592  0.119619
    H   H130  0.038800  0.714424  0.892864  0.115711
    H   H131  0.460783  0.214425  0.106592  0.119614
    H   H132  0.538800  0.214424  0.892864  0.115704
    C   C225  0.999790  0.709885  0.999726  0.107476
    C   C226  0.499790  0.209885  0.999726  0.107448
    C   C227  0.499922  0.281322  0.999853  0.069138
    C   C228  0.999922  0.781322  0.999853  0.069149
    C   C229  0.030534  0.654157  0.967125  -0.093410
    C   C230  0.969235  0.654071  0.033015  -0.109398
    C   C231  0.530534  0.154157  0.967125  -0.093513
    C   C232  0.469235  0.154071  0.033015  -0.109404
    H   H133  0.054846  0.667655  0.942016  0.102471
    H   H134  0.944874  0.667491  0.057850  0.104816
    H   H135  0.554846  0.167655  0.942016  0.102523
    H   H136  0.444874  0.167491  0.057851  0.104822
    C   C233  0.030625  0.618692  0.967800  -0.199747
    C   C234  0.969273  0.618606  0.033246  -0.177486
    C   C235  0.530625  0.118692  0.967800  -0.199700
    C   C236  0.469273  0.118606  0.033246  -0.177497
    H   H137  0.055020  0.605372  0.942133  0.139659
    H   H138  0.944926  0.605220  0.059247  0.134436
    H   H139  0.555020  0.105372  0.942133  0.139640
    H   H140  0.444926  0.105220  0.059247  0.134437
    C   C237  0.999983  0.600690  0.000785  0.136105
    C   C238  0.499983  0.100690  0.000785  0.136107
    C   C239  0.999852  0.672097  0.999869  0.026078
    C   C240  0.499852  0.172097  0.999870  0.026144
    N   N1    0.321581  0.499897  0.075124  -0.069291
    C   C241  0.330614  0.524586  0.019735  -0.066932
    C   C242  0.347965  0.507590  0.948314  0.323164
    O   O49   0.328837  0.479381  0.946365  -0.474395
    C   C243  0.330211  0.454870  0.991770  0.293978
    C   C244  0.309306  0.467014  0.066201  -0.025057
    H   H141  0.347762  0.544648  0.022475  0.031282
    H   H142  0.306723  0.537328  0.026725  0.024642
    H   H143  0.374811  0.500053  0.932902  -0.035412
    H   H144  0.349296  0.526779  0.909507  -0.005132
    H   H145  0.357130  0.449510  0.979743  -0.020180
    H   H146  0.318922  0.430486  0.985610  -0.001152
    H   H147  0.311515  0.447868  0.101524  -0.000028
    H   H148  0.281897  0.469385  0.079076  0.024086
    N   N2    0.678786  0.460310  0.911828  -0.013336
    C   C245  0.669859  0.463513  0.984381  -0.066469
    C   C246  0.651503  0.431615  0.025806  0.237191
    O   O50   0.669844  0.401870  0.992897  -0.436890
    C   C247  0.668612  0.399113  0.930305  0.242426
    C   C248  0.690363  0.427021  0.880606  -0.036836
    H   H149  0.653503  0.486523  0.007586  0.032746
    H   H150  0.693890  0.466979  0.987885  0.030124
    H   H151  0.624662  0.430162  0.034866  0.006727
    H   H152  0.650070  0.433520  0.077825  0.009286
    H   H153  0.641777  0.400558  0.939076  -0.024637
    H   H154  0.679273  0.373779  0.906366  0.014871
    H   H155  0.688355  0.425141  0.831978  0.015687
    H   H156  0.717623  0.423434  0.867984  0.026061
    N   N3    0.821581  0.999897  0.075124  -0.069229
    C   C249  0.830614  0.024586  0.019735  -0.066940
    C   C250  0.847965  0.007590  0.948314  0.323142
    O   O51   0.828837  0.979381  0.946365  -0.474383
    C   C251  0.830211  0.954870  0.991770  0.293961
    C   C252  0.809306  0.967014  0.066201  -0.025044
    H   H157  0.847762  0.044648  0.022475  0.031286
    H   H158  0.806723  0.037328  0.026725  0.024639
    H   H159  0.874811  0.000053  0.932902  -0.035407
    H   H160  0.849296  0.026779  0.909507  -0.005128
    H   H161  0.857130  0.949510  0.979743  -0.020175
    H   H162  0.818922  0.930486  0.985610  -0.001151
    H   H163  0.811515  0.947868  0.101524  -0.000025
    H   H164  0.781897  0.969385  0.079076  0.024077
    N   N4    0.178786  0.960310  0.911828  -0.013459
    C   C253  0.169859  0.963513  0.984381  -0.066364
    C   C254  0.151503  0.931614  0.025806  0.237378
    O   O52   0.169844  0.901869  0.992897  -0.436927
    C   C255  0.168612  0.899112  0.930305  0.242416
    C   C256  0.190363  0.927021  0.880606  -0.036716
    H   H165  0.153503  0.986522  0.007586  0.032717
    H   H166  0.193890  0.966979  0.987885  0.030101
    H   H167  0.124662  0.930161  0.034866  0.006691
    H   H168  0.150070  0.933520  0.077825  0.009187
    H   H169  0.141777  0.900558  0.939076  -0.024655
    H   H170  0.179272  0.873779  0.906366  0.014881
    H   H171  0.188355  0.925141  0.831978  0.015666
    H   H172  0.217623  0.923434  0.867984  0.026010
