data_DB0-m3_o11_o23_f0_pcu.sym.1_repeat
_audit_creation_date              2024-02-23
_audit_creation_method            'Materials Studio'
_symmetry_space_group_name_H-M    'P1'
_symmetry_Int_Tables_number       1
_symmetry_cell_setting            triclinic
loop_
_symmetry_equiv_pos_as_xyz
  x,y,z
_cell_length_a                    15.9508
_cell_length_b                    11.1378
_cell_length_c                    9.9101
_cell_angle_alpha                 89.9974
_cell_angle_beta                  89.9750
_cell_angle_gamma                 89.9982
loop_
_atom_site_label
_atom_site_type_symbol
_atom_site_fract_x
_atom_site_fract_y
_atom_site_fract_z
_atom_site_U_iso_or_equiv
_atom_site_adp_type
_atom_site_occupancy
O1     O     0.49952   0.32156   0.61885   0.00000  Uiso   1.00
O2     O     0.50262   0.32047   0.38628   0.00000  Uiso   1.00
C1     C     0.50089   0.26497   0.50291   0.00000  Uiso   1.00
O3     O     0.37404   0.50024   0.60906   0.00000  Uiso   1.00
O4     O     0.37727   0.49890   0.37630   0.00000  Uiso   1.00
C2     C     0.33670   0.49939   0.49140   0.00000  Uiso   1.00
Zn1    Zn    0.49807   0.50088   0.65273   0.00000  Uiso   1.00
Zn2    Zn    0.50287   0.49875   0.34549   0.00000  Uiso   1.00
O5     O     0.49916   0.67905   0.61245   0.00000  Uiso   1.00
O6     O     0.50230   0.67840   0.37892   0.00000  Uiso   1.00
O7     O     0.62372   0.50090   0.62231   0.00000  Uiso   1.00
O8     O     0.62696   0.49954   0.38876   0.00000  Uiso   1.00
C3     C     0.50045   0.73457   0.49584   0.00000  Uiso   1.00
C4     C     0.66420   0.50023   0.50681   0.00000  Uiso   1.00
C5     C     0.05002   0.43083   0.61814   0.00000  Uiso   1.00
C6     C     0.04525   0.44054   0.36877   0.00000  Uiso   1.00
C7     C     0.95073   0.43191   0.37949   0.00000  Uiso   1.00
H1     H     0.92844   0.34858   0.63913   0.00000  Uiso   1.00
H2     H     0.06850   0.33520   0.60871   0.00000  Uiso   1.00
H3     H     0.06230   0.49484   0.27905   0.00000  Uiso   1.00
H4     H     0.07211   0.34922   0.35778   0.00000  Uiso   1.00
H5     H     0.93202   0.33631   0.38807   0.00000  Uiso   1.00
H6     H     0.92176   0.47083   0.28765   0.00000  Uiso   1.00
C8     C     0.75415   0.50028   0.50881   0.00000  Uiso   1.00
C9     C     0.07952   0.49970   0.49493   0.00000  Uiso   1.00
C10    C     0.95552   0.43984   0.62893   0.00000  Uiso   1.00
C11    C     0.92138   0.50005   0.50330   0.00000  Uiso   1.00
C12    C     0.95316   0.62819   0.49652   0.00000  Uiso   1.00
C13    C     0.04802   0.62794   0.50284   0.00000  Uiso   1.00
C14    C     0.82969   0.50022   0.50750   0.00000  Uiso   1.00
C15    C     0.17120   0.49950   0.49073   0.00000  Uiso   1.00
C16    C     0.24675   0.49940   0.48941   0.00000  Uiso   1.00
H7     H     0.06883   0.66919   0.59901   0.00000  Uiso   1.00
H8     H     0.07350   0.68088   0.41737   0.00000  Uiso   1.00
H9     H     0.92781   0.68065   0.58245   0.00000  Uiso   1.00
H10    H     0.07908   0.46896   0.71031   0.00000  Uiso   1.00
H11    H     0.93860   0.49360   0.71913   0.00000  Uiso   1.00
H12    H     0.93245   0.67021   0.40070   0.00000  Uiso   1.00
C17    C     0.50228   0.93445   0.39004   0.00000  Uiso   1.00
C18    C     0.50036   0.86601   0.50093   0.00000  Uiso   1.00
H13    H     0.50386   0.89164   0.29189   0.00000  Uiso   1.00
H14    H     0.49856   0.90441   0.60075   0.00000  Uiso   1.00
C19    C     0.50217   0.06756   0.39286   0.00000  Uiso   1.00
C20    C     0.50115   0.13340   0.50622   0.00000  Uiso   1.00
H15    H     0.50299   0.11279   0.29609   0.00000  Uiso   1.00
H16    H     0.50046   0.09314   0.60519   0.00000  Uiso   1.00
C21    C     0.54439   0.57169   0.92334   0.00000  Uiso   1.00
N1     N     0.49451   0.50495   0.85443   0.00000  Uiso   1.00
H17    H     0.59058   0.62598   0.87123   0.00000  Uiso   1.00
H18    H     0.44461   0.46766   0.90479   0.00000  Uiso   1.00
C22    C     0.53762   0.58166   0.07190   0.00000  Uiso   1.00
N2     N     0.50762   0.49583   0.14382   0.00000  Uiso   1.00
H19    H     0.56187   0.66131   0.12104   0.00000  Uiso   1.00
H20    H     0.49543   0.41636   0.09511   0.00000  Uiso   1.00
