# Generated by REPEAT Assigner based on pymatgen
data_DB0-m29_o90_o52_f0_pts.sym.140
_audit_creation_date              2022-05-24
_audit_creation_method            REPEAT_Assigner
_cell_length_a                    9.405371
_cell_length_b                    17.170800
_cell_length_c                    19.136998
_cell_angle_alpha                 103.750731
_cell_angle_beta                  85.591260
_cell_angle_gamma                 76.862874
_cell_volume                      2895.311471
_symmetry_space_group_name_H-M    P1
_symmetry_Int_Tables_number       1
loop_
    _symmetry_equiv_pos_site_id
    _symmetry_equiv_pos_as_xyz
    1  x,y,z
loop_
    _atom_site_type_symbol
    _atom_site_label
    _atom_site_fract_x
    _atom_site_fract_y
    _atom_site_fract_z
    _atom_type_partial_charge
    H   H1   0.959872  0.018081  0.654670  0.190310
    C   C1   0.103437  0.013610  0.735992  0.039290
    C   C2   0.114860  0.008897  0.806708  0.042103
    H   H2   0.218265  0.009268  0.827567  0.080712
    C   C3   0.994114  0.003877  0.850380  -0.367447
    C   C4   0.863917  0.001078  0.822108  0.014104
    H   H3   0.769328  0.995740  0.854632  0.056460
    C   C5   0.851631  0.007445  0.752362  0.063693
    C   C6   0.970190  0.015053  0.709846  -0.143925
    N   N1   0.883847  0.997281  0.967855  -0.214697
    N   N2   0.889694  0.996799  0.036569  -0.261720
    C   C7   0.014307  0.001226  0.065559  0.753040
    N   N3   0.132733  0.005852  0.024021  -0.209145
    N   N4   0.126900  0.006316  0.955327  -0.261080
    C   C8   0.002319  0.001926  0.926333  0.749565
    C   C9   0.152796  0.003632  0.169732  0.005741
    H   H4   0.246993  0.008975  0.136937  0.050899
    C   C10  0.165539  0.998151  0.239640  0.096505
    C   C11  0.047586  0.990363  0.282479  -0.148022
    H   H5   0.058295  0.987656  0.337692  0.190165
    C   C12  0.914767  0.990108  0.256365  0.017426
    C   C13  0.902841  0.993964  0.185437  0.056338
    H   H6   0.799734  0.992509  0.164555  0.080308
    C   C14  0.022754  0.999725  0.141602  -0.378861
    O   O1   0.657582  0.992163  0.283786  -0.514380
    C   C15  0.788004  0.987509  0.305028  0.531265
    O   O2   0.670120  0.831283  0.311803  -0.485283
    O   O3   0.803473  0.983332  0.371714  -0.481587
    O   O4   0.553471  0.909383  0.422009  -0.494566
    C   C16  0.628269  0.837115  0.380278  0.468587
    Fe  Fe1  0.513824  0.992334  0.365014  1.457902
    O   O5   0.334735  0.968514  0.322689  -0.593399
    O   O6   0.388977  0.043511  0.245468  -0.477759
    C   C17  0.302842  0.002396  0.269326  0.567930
    O   O7   0.500414  0.103092  0.433367  -0.571023
    O   O8   0.256165  0.117182  0.425603  -0.470366
    C   C18  0.362291  0.145182  0.454902  0.555436
    C   C19  0.325762  0.225440  0.508910  0.028931
    C   C20  0.244569  0.292415  0.489013  0.042627
    H   H7   0.215118  0.282500  0.434716  0.047057
    C   C21  0.201193  0.370128  0.537213  -0.409901
    C   C22  0.242459  0.380796  0.605799  0.108322
    H   H8   0.210920  0.440832  0.644712  0.041487
    C   C23  0.320523  0.313923  0.626774  -0.188623
    H   H9   0.346188  0.324115  0.681767  0.158987
    C   C24  0.360337  0.235210  0.579605  0.049220
    N   N5   0.063532  0.515252  0.563235  -0.285227
    N   N6   0.978218  0.577283  0.544273  -0.234857
    C   C25  0.936042  0.565229  0.477723  0.770645
    N   N7   0.981969  0.489784  0.430579  -0.256692
    N   N8   0.067176  0.427843  0.449507  -0.255607
    C   C26  0.109196  0.439754  0.516012  0.803969
    C   C27  0.799240  0.620735  0.387746  0.157047
    H   H10  0.826843  0.558913  0.352037  -0.003424
    C   C28  0.717845  0.685499  0.364899  -0.203043
    C   C29  0.680735  0.765675  0.410547  0.127715
    C   C30  0.713505  0.777388  0.481642  -0.002333
    C   C31  0.796970  0.712203  0.503036  0.047103
    H   H11  0.826078  0.723740  0.557411  0.052585
    C   C32  0.842956  0.634043  0.455858  -0.406967
    O   O9   0.679321  0.038137  0.670410  -0.541234
    O   O10  0.634865  0.956416  0.743080  -0.485587
    C   C33  0.715215  0.002099  0.722135  0.582929
    O   O11  0.531004  0.894349  0.559561  -0.581687
    O   O12  0.773434  0.893682  0.559450  -0.503983
    C   C34  0.670903  0.858620  0.534481  0.599576
    O   O13  0.427639  0.177472  0.679169  -0.554835
    O   O14  0.363488  0.004685  0.707466  -0.506233
    C   C35  0.231292  0.015350  0.687639  0.509889
    O   O15  0.458854  0.088099  0.568168  -0.500476
    C   C36  0.422580  0.164591  0.609116  0.572097
    O   O16  0.214873  0.024460  0.622335  -0.497320
    Fe  Fe2  0.505863  0.007294  0.626799  1.439397
    C   C37  0.665578  0.666637  0.293809  0.291106
    C   C38  0.741779  0.605320  0.233916  -0.141062
    C   C39  0.652986  0.607472  0.181406  -0.244328
    C   C40  0.528517  0.669428  0.212824  0.070530
    O   O17  0.535075  0.705573  0.281409  -0.130335
    H   H12  0.850169  0.564377  0.228652  0.151883
    H   H13  0.675539  0.568550  0.126335  0.170804
    H   H14  0.435016  0.687062  0.185296  0.115332
