# Generated by REPEAT Assigner based on pymatgen
data_DB0-m3_o18_o23_f0_pcu.sym.28
_audit_creation_date              2022-05-24
_audit_creation_method            REPEAT_Assigner
_cell_length_a                    14.850105
_cell_length_b                    16.029350
_cell_length_c                    15.958194
_cell_angle_alpha                 89.973934
_cell_angle_beta                  103.589035
_cell_angle_gamma                 86.041235
_cell_volume                      3682.954878
_symmetry_space_group_name_H-M    P1
_symmetry_Int_Tables_number       1
loop_
    _symmetry_equiv_pos_site_id
    _symmetry_equiv_pos_as_xyz
    1  x,y,z
loop_
    _atom_site_type_symbol
    _atom_site_label
    _atom_site_fract_x
    _atom_site_fract_y
    _atom_site_fract_z
    _atom_type_partial_charge
    O   O1   0.381739  0.605018  0.474117  -0.638193
    O   O2   0.534837  0.637469  0.507369  -0.625470
    C   C1   0.445482  0.659512  0.488049  0.684771
    O   O3   0.423152  0.483496  0.607816  -0.710555
    O   O4   0.576495  0.515908  0.641039  -0.719920
    C   C2   0.499923  0.499645  0.663369  0.949592
    Zn  Zn1  0.398290  0.478435  0.477609  0.992625
    Zn  Zn2  0.600264  0.521386  0.521299  1.027709
    O   O5   0.463717  0.362350  0.491540  -0.628478
    O   O6   0.616816  0.394802  0.524793  -0.647396
    O   O7   0.422057  0.483910  0.357870  -0.717045
    O   O8   0.575403  0.516323  0.391090  -0.746966
    C   C3   0.553074  0.340308  0.510873  0.706306
    C   C4   0.498623  0.500179  0.335535  0.993575
    C   C5   0.405021  0.533884  0.930771  -0.183576
    C   C6   0.573782  0.553635  0.968781  -0.163005
    C   C7   0.568474  0.559338  0.062381  -0.161423
    H   H1   0.386180  0.595575  0.045358  0.051388
    H   H2   0.391574  0.599390  0.906237  0.046599
    H   H3   0.643189  0.525715  0.965210  0.035682
    H   H4   0.563290  0.617277  0.939286  0.046368
    H   H5   0.546231  0.624327  0.076168  0.054345
    H   H6   0.637928  0.542306  0.104820  0.041300
    C   C8   0.498480  0.500174  0.245599  -0.175169
    C   C9   0.499275  0.499486  0.920257  0.662453
    C   C10  0.403610  0.531426  0.025288  -0.182706
    C   C11  0.498884  0.500131  0.078524  0.723911
    C   C12  0.528799  0.412861  0.052731  -0.049018
    C   C13  0.517928  0.410701  0.955916  -0.178507
    C   C14  0.498561  0.500127  0.170116  -0.467395
    C   C15  0.499815  0.499574  0.828739  -0.376164
    C   C16  0.500026  0.499615  0.753293  -0.219028
    H   H7   0.460130  0.372832  0.924460  0.064317
    H   H8   0.583107  0.382669  0.941973  0.058603
    H   H9   0.350142  0.495732  0.893785  0.045700
    H   H10  0.349092  0.491604  0.035459  0.062155
    H   H11  0.603511  0.400052  0.083892  0.031897
    C   C17  0.415260  0.749021  0.481751  -0.071448
    C   C18  0.583300  0.250800  0.517272  -0.069606
    C   C19  0.293899  0.857191  0.456189  -0.310283
    C   C20  0.321946  0.773662  0.462090  -0.061396
    C   C21  0.480027  0.808827  0.495493  -0.134359
    C   C22  0.452521  0.894320  0.489748  -0.007316
    C   C23  0.358229  0.916800  0.469785  0.316140
    C   C24  0.515774  0.957675  0.503175  0.066121
    C   C25  0.482794  0.042143  0.496094  0.063626
    C   C26  0.387152  0.061152  0.475808  -0.176748
    C   C27  0.326539  0.999315  0.463042  -0.303571
    C   C28  0.611417  0.938667  0.523592  -0.177327
    C   C29  0.672030  0.000505  0.536392  -0.301209
    C   C30  0.640339  0.083021  0.529522  0.310061
    C   C31  0.546046  0.105499  0.509454  -0.000966
    C   C32  0.704667  0.142631  0.543112  -0.300576
    C   C33  0.676617  0.226160  0.537088  -0.065447
    C   C34  0.518536  0.190992  0.503514  -0.126709
    H   H12  0.252765  0.016496  0.447414  0.142785
    H   H13  0.447080  0.214011  0.488282  0.088960
    H   H14  0.728678  0.271370  0.548075  0.104980
    H   H15  0.745806  0.983324  0.552136  0.140682
    H   H16  0.220464  0.875880  0.440681  0.140840
    H   H17  0.269884  0.728453  0.451122  0.105233
    H   H18  0.551482  0.785808  0.510501  0.094943
    H   H19  0.354911  0.123524  0.468929  0.152980
    H   H20  0.643658  0.876295  0.530634  0.149940
    H   H21  0.778104  0.123943  0.558723  0.138018
    N   N1   0.732955  0.549826  0.549912  -0.053140
    N   N2   0.265610  0.449962  0.448947  -0.044258
    C   C35  0.849961  0.630269  0.627260  -0.294030
    C   C36  0.759469  0.609532  0.607553  0.015012
    C   C37  0.793580  0.509342  0.510440  -0.074699
    C   C38  0.886655  0.528361  0.528236  0.002163
    C   C39  0.913307  0.589912  0.587709  0.313679
    C   C40  0.953313  0.488394  0.488811  0.044223
    C   C41  0.045268  0.511348  0.510093  0.048194
    C   C42  0.068336  0.573773  0.570417  -0.122004
    C   C43  0.003134  0.612045  0.608309  -0.291448
    C   C44  0.930251  0.425954  0.428504  -0.125341
    C   C45  0.995454  0.387681  0.390612  -0.289267
    C   C46  0.085275  0.409833  0.411192  0.308865
    C   C47  0.111921  0.471392  0.470655  0.002617
    C   C48  0.148620  0.369485  0.371633  -0.290315
    C   C49  0.239106  0.390243  0.391320  0.002122
    C   C50  0.204986  0.490435  0.488426  -0.070807
    H   H22  0.023392  0.660290  0.654868  0.158782
    H   H23  0.232672  0.537054  0.533585  0.145350
    H   H24  0.288974  0.358410  0.360579  0.152572
    H   H25  0.975201  0.339425  0.344066  0.161634
    H   H26  0.870924  0.678459  0.673708  0.153996
    H   H27  0.709603  0.641366  0.638295  0.136105
    H   H28  0.765888  0.462737  0.465267  0.150634
    H   H29  0.136577  0.595686  0.590839  0.143523
    H   H30  0.862016  0.404023  0.408102  0.146739
    H   H31  0.127662  0.321284  0.325195  0.155910
    N   N3   0.478111  0.348470  0.082035  0.571463
    O   O9   0.390670  0.341025  0.047226  -0.380557
    O   O10  0.523349  0.292672  0.138289  -0.375350
