# Generated by REPEAT Assigner based on pymatgen
data_DB0-m3_o19_o27_f0_nbo.sym.64
_audit_creation_date              2022-05-24
_audit_creation_method            REPEAT_Assigner
_cell_length_a                    23.765357
_cell_length_b                    23.765361
_cell_length_c                    38.685031
_cell_angle_alpha                 90.000000
_cell_angle_beta                  90.000000
_cell_angle_gamma                 90.000000
_cell_volume                      21849.007206
_symmetry_space_group_name_H-M    P1
_symmetry_Int_Tables_number       1
loop_
    _symmetry_equiv_pos_site_id
    _symmetry_equiv_pos_as_xyz
    1  x,y,z
loop_
    _atom_site_type_symbol
    _atom_site_label
    _atom_site_fract_x
    _atom_site_fract_y
    _atom_site_fract_z
    _atom_type_partial_charge
    O   O1    0.550046  0.083529  0.499339  -0.607028
    O   O2    0.916389  0.549894  0.500753  -0.604187
    O   O3    0.449979  0.916423  0.500714  -0.603814
    O   O4    0.083637  0.450089  0.499298  -0.607743
    O   O5    0.547147  0.916505  0.499157  -0.621704
    O   O6    0.916609  0.452729  0.499116  -0.621435
    O   O7    0.452873  0.083448  0.500722  -0.625509
    O   O8    0.083418  0.547259  0.500761  -0.626265
    O   O9    0.047251  0.583467  0.999241  -0.626554
    O   O10   0.416507  0.047182  0.999415  -0.625471
    O   O11   0.952720  0.416657  0.000881  -0.621708
    O   O12   0.583466  0.952910  0.000705  -0.621281
    O   O13   0.049885  0.416438  0.999246  -0.604431
    O   O14   0.416441  0.950012  0.000874  -0.607036
    O   O15   0.950081  0.583686  0.000701  -0.608261
    O   O16   0.583531  0.050075  0.999072  -0.603714
    C   C1    0.501454  0.109592  0.500069  0.648696
    C   C2    0.890395  0.501269  0.499894  0.641549
    C   C3    0.498568  0.890360  0.499894  0.641802
    C   C4    0.109631  0.498717  0.500068  0.650027
    C   C5    0.998709  0.609680  0.999933  0.650821
    C   C6    0.390370  0.998601  0.000165  0.646087
    C   C7    0.001260  0.390444  0.000105  0.642092
    C   C8    0.609603  0.001490  0.999870  0.639535
    O   O17   0.550022  0.001087  0.448333  -0.640089
    O   O18   0.998933  0.547136  0.448452  -0.655927
    O   O19   0.452987  0.998959  0.448414  -0.655865
    O   O20   0.001194  0.450103  0.448290  -0.639830
    O   O21   0.547027  0.001155  0.551550  -0.653904
    O   O22   0.001254  0.452861  0.551511  -0.654374
    O   O23   0.450011  0.998697  0.551632  -0.635205
    O   O24   0.998663  0.549872  0.551673  -0.635134
    O   O25   0.049866  0.498713  0.948328  -0.634947
    O   O26   0.500980  0.049924  0.948325  -0.636644
    O   O27   0.952855  0.501304  0.948488  -0.654325
    O   O28   0.498532  0.952908  0.948489  -0.655588
    O   O29   0.047125  0.498980  0.051549  -0.655669
    O   O30   0.499163  0.950156  0.051709  -0.640295
    O   O31   0.950092  0.501241  0.051708  -0.639761
    O   O32   0.501281  0.047192  0.051545  -0.656744
    C   C9    0.501485  0.000005  0.432222  0.610535
    C   C10   0.000046  0.498674  0.432220  0.609279
    C   C11   0.498538  0.999961  0.567753  0.604036
    C   C12   0.999993  0.501312  0.567753  0.604677
    C   C13   0.001306  0.500043  0.932246  0.603682
    C   C14   0.499643  0.001363  0.932246  0.608057
    C   C15   0.998662  0.500093  0.067779  0.608698
    C   C16   0.500318  0.998728  0.067778  0.612600
    Zn  Zn1   0.563751  0.999763  0.500101  1.280647
    Zn  Zn2   0.000132  0.563733  0.499919  1.279929
    Zn  Zn3   0.436272  0.000187  0.499866  1.279157
    Zn  Zn4   0.999892  0.436252  0.500047  1.280677
    Zn  Zn5   0.063725  0.500180  0.000082  1.279993
    Zn  Zn6   0.499773  0.063785  0.000081  1.280216
    Zn  Zn7   0.936244  0.499941  0.999952  1.281232
    Zn  Zn8   0.500203  0.936305  0.999951  1.281390
    C   C17   0.501402  0.169916  0.500203  -0.085174
    C   C18   0.830071  0.501133  0.499784  -0.083089
    C   C19   0.498621  0.830035  0.499785  -0.083323
    C   C20   0.169954  0.498850  0.500203  -0.084982
    C   C21   0.998843  0.670002  0.999798  -0.084758
    C   C22   0.330047  0.998654  0.000270  -0.082209
    C   C23   0.001126  0.330120  0.000214  -0.083107
    C   C24   0.669927  0.001438  0.999741  -0.082059
    C   C25   0.501305  0.220599  0.500344  0.011689
    C   C26   0.779388  0.500988  0.499668  0.010816
    C   C27   0.498718  0.779351  0.499669  0.010591
    C   C28   0.220637  0.498989  0.500344  0.011082
    C   C29   0.998986  0.720685  0.999657  0.010589
    C   C30   0.279363  0.998753  0.000380  0.009647
    C   C31   0.000984  0.279436  0.000331  0.010612
    C   C32   0.720611  0.001343  0.999607  0.010753
    C   C33   0.501128  0.279992  0.500528  -0.000200
    C   C34   0.719995  0.500792  0.499505  0.000786
    C   C35   0.498894  0.719958  0.499506  0.001807
    C   C36   0.280029  0.499176  0.500529  0.000142
    C   C37   0.999179  0.780077  0.999472  0.000577
    C   C38   0.219970  0.998933  0.000533  0.001013
    C   C39   0.000794  0.220044  0.000493  0.001037
    C   C40   0.780004  0.001169  0.999432  0.000217
    C   C41   0.500924  0.330684  0.500698  -0.072919
    C   C42   0.669303  0.500614  0.499347  -0.074155
    C   C43   0.499096  0.669266  0.499347  -0.074694
    C   C44   0.330721  0.499347  0.500698  -0.073621
    C   C45   0.999354  0.830769  0.999302  -0.073937
    C   C46   0.169278  0.999139  0.000683  -0.073731
    C   C47   0.000621  0.169352  0.000652  -0.074512
    C   C48   0.830696  0.000969  0.999271  -0.072764
    C   C49   0.470446  0.039768  0.376168  0.428010
    C   C50   0.960031  0.467981  0.376170  0.420615
    C   C51   0.532277  0.960007  0.376184  0.424546
    C   C52   0.039758  0.529855  0.376181  0.424705
    C   C53   0.468478  0.959689  0.623909  0.425929
    C   C54   0.959666  0.531231  0.623922  0.427286
    C   C55   0.528874  0.040557  0.623752  0.433029
    C   C56   0.040571  0.470884  0.623741  0.436974
    C   C57   0.970877  0.540618  0.876258  0.436553
    C   C58   0.459014  0.970912  0.876271  0.434626
    C   C59   0.031225  0.459714  0.876079  0.427327
    C   C60   0.539881  0.031306  0.876066  0.428257
    C   C61   0.967964  0.460073  0.123827  0.420911
    C   C62   0.460658  0.029890  0.123830  0.425080
    C   C63   0.029838  0.539799  0.123821  0.424438
    C   C64   0.540420  0.968060  0.123818  0.421866
    C   C65   0.471206  0.039874  0.340504  0.000279
    C   C66   0.959706  0.469014  0.340511  0.008729
    C   C67   0.531312  0.959704  0.340524  0.003882
    C   C68   0.039844  0.529164  0.340516  0.004383
    C   C69   0.469435  0.959635  0.659573  0.001078
    C   C70   0.959594  0.530211  0.659584  0.002689
    C   C71   0.528151  0.040809  0.659415  -0.001625
    C   C72   0.040802  0.471544  0.659405  -0.002762
    C   C73   0.971533  0.540845  0.840594  -0.002444
    C   C74   0.458753  0.971572  0.840606  -0.000332
    C   C75   0.030201  0.459637  0.840416  0.002394
    C   C76   0.539928  0.030287  0.840405  0.002555
    C   C77   0.968995  0.459744  0.159486  0.008526
    C   C78   0.460598  0.029197  0.159494  0.006062
    C   C79   0.029144  0.539882  0.159486  0.004913
    C   C80   0.540769  0.969093  0.159478  0.007265
    H   H1    0.448127  0.072344  0.327058  0.080757
    H   H2    0.927167  0.446014  0.327077  0.077852
    H   H3    0.554318  0.927160  0.327098  0.079196
    H   H4    0.072292  0.552287  0.327079  0.079968
    H   H5    0.447039  0.926759  0.673084  0.080816
    H   H6    0.926697  0.552565  0.673102  0.080078
    H   H7    0.550629  0.073768  0.672797  0.079990
    H   H8    0.073768  0.449066  0.672781  0.080591
    H   H9    0.949054  0.573809  0.827218  0.080294
    H   H10   0.425797  0.949069  0.827237  0.079274
    H   H11   0.052552  0.426738  0.826899  0.080114
    H   H12   0.572807  0.052656  0.826881  0.080390
    H   H13   0.945993  0.427203  0.172918  0.078063
    H   H14   0.428139  0.052295  0.172938  0.079093
    H   H15   0.052265  0.572329  0.172925  0.079781
    H   H16   0.573325  0.946107  0.172906  0.078141
    C   C81   0.501206  0.999737  0.322496  -0.620181
    C   C82   0.999713  0.499174  0.322496  -0.624208
    C   C83   0.498851  0.000274  0.677509  -0.613972
    C   C84   0.000242  0.500791  0.677509  -0.617892
    C   C85   0.000777  0.500282  0.822490  -0.617085
    C   C86   0.499286  0.000842  0.822491  -0.617627
    C   C87   0.999153  0.499749  0.177504  -0.624505
    C   C88   0.500754  0.999228  0.177504  -0.623429
    C   C89   0.501409  0.999934  0.394311  -0.235351
    C   C90   0.999953  0.498832  0.394310  -0.231647
    C   C91   0.498624  0.000069  0.605680  -0.238541
    C   C92   0.000076  0.501145  0.605681  -0.241442
    C   C93   0.001140  0.500126  0.894319  -0.240771
    C   C94   0.499502  0.001201  0.894319  -0.242003
    C   C95   0.998817  0.499996  0.105690  -0.231519
    C   C96   0.500469  0.998894  0.105690  -0.235327
    N   N1    0.535596  0.964938  0.267087  -0.361924
    N   N2    0.034135  0.533958  0.267083  -0.362067
    N   N3    0.466493  0.034184  0.267077  -0.362313
    N   N4    0.964889  0.464855  0.267080  -0.360930
    N   N5    0.533569  0.035098  0.732828  -0.360891
    N   N6    0.035047  0.466021  0.732824  -0.362226
    N   N7    0.464474  0.965839  0.733008  -0.362226
    N   N8    0.965787  0.535115  0.733012  -0.362402
    N   N9    0.035091  0.465818  0.766988  -0.361644
    N   N10   0.533752  0.035151  0.766991  -0.361849
    N   N11   0.965997  0.535077  0.767176  -0.361529
    N   N12   0.464493  0.966057  0.767172  -0.360845
    N   N13   0.033931  0.534166  0.232919  -0.362121
    N   N14   0.535564  0.964890  0.232923  -0.360376
    N   N15   0.964828  0.464919  0.232917  -0.361353
    N   N16   0.466316  0.033992  0.232913  -0.361401
    O   O33   0.417522  0.501550  0.471156  -0.646832
    O   O34   0.502243  0.417502  0.471153  -0.646133
    O   O35   0.583061  0.502179  0.469225  -0.627443
    O   O36   0.501551  0.583041  0.469228  -0.626987
    O   O37   0.416963  0.497648  0.530820  -0.626732
    O   O38   0.497654  0.582447  0.528892  -0.645921
    O   O39   0.582502  0.498528  0.528895  -0.646025
    O   O40   0.498596  0.416909  0.530823  -0.626111
    O   O41   0.916936  0.998644  0.969161  -0.626197
    O   O42   0.997674  0.917011  0.969179  -0.626626
    O   O43   0.082473  0.997701  0.971122  -0.645850
    O   O44   0.998554  0.082549  0.971103  -0.646208
    O   O45   0.917500  0.002292  0.028832  -0.646356
    O   O46   0.002176  0.083110  0.030774  -0.627699
    O   O47   0.083039  0.001600  0.030787  -0.627001
    O   O48   0.001548  0.917571  0.028845  -0.646634
    C   C97   0.500885  0.999379  0.215420  1.019753
    C   C98   0.999310  0.499611  0.215420  1.021428
    C   C99   0.499174  0.000675  0.784578  1.019504
    C   C100  0.000611  0.500388  0.784578  1.019854
    C   C101  0.000354  0.500632  0.715422  1.021339
    C   C102  0.498969  0.000401  0.715422  1.017679
    C   C103  0.999579  0.499336  0.284579  1.021204
    C   C104  0.501098  0.999620  0.284580  1.021239
    C   C105  0.391073  0.499550  0.500909  0.704804
    C   C106  0.500621  0.391036  0.500909  0.702922
    C   C107  0.608951  0.500404  0.499139  0.704932
    C   C108  0.499399  0.608914  0.499139  0.704193
    C   C109  0.891049  0.000669  0.999071  0.702769
    C   C110  0.999562  0.891121  0.999091  0.704731
    C   C111  0.108926  0.999447  0.000881  0.703662
    C   C112  0.000415  0.108999  0.000859  0.705579
    Zn  Zn9   0.500060  0.500026  0.461891  1.281873
    Zn  Zn10  0.499961  0.499928  0.538156  1.280482
    Zn  Zn11  0.999958  0.000008  0.961843  1.280521
    Zn  Zn12  0.000020  0.000108  0.038108  1.282115
    N   N17   0.442553  0.084170  0.393433  -0.865697
    C   C113  0.386231  0.073117  0.403415  0.650779
    C   C114  0.364218  0.101376  0.431572  -0.353907
    C   C115  0.310047  0.090910  0.442500  -0.011901
    C   C116  0.277211  0.052388  0.425216  -0.246742
    C   C117  0.298498  0.024547  0.396873  -0.062662
    C   C118  0.352722  0.034750  0.385848  -0.332770
    H   H17   0.465801  0.102069  0.412990  0.408548
    H   H18   0.389424  0.131835  0.445384  0.144313
    H   H19   0.293329  0.112986  0.464663  0.090443
    H   H20   0.234700  0.044199  0.433777  0.127734
    H   H21   0.272566  0.994566  0.383177  0.118208
    H   H22   0.367361  0.012252  0.363357  0.137327
    N   N18   0.915762  0.439909  0.393455  -0.865340
    C   C119  0.926882  0.383483  0.403189  0.652056
    C   C120  0.898719  0.361144  0.431285  -0.355257
    C   C121  0.909216  0.306845  0.441959  -0.016784
    C   C122  0.947679  0.274210  0.424484  -0.242413
    C   C123  0.975434  0.295829  0.396204  -0.063796
    C   C124  0.965198  0.350179  0.385430  -0.333866
    H   H23   0.897968  0.462958  0.413136  0.410952
    H   H24   0.868302  0.386186  0.445243  0.144773
    H   H25   0.887206  0.289866  0.464072  0.091953
    H   H26   0.955892  0.231598  0.432846  0.126469
    H   H27   0.005373  0.270058  0.382359  0.118385
    H   H28   0.987630  0.365073  0.362978  0.137047
    N   N19   0.560291  0.915713  0.393479  -0.866163
    C   C125  0.616701  0.926801  0.403261  0.653122
    C   C126  0.638959  0.898635  0.431380  -0.354719
    C   C127  0.693241  0.909103  0.442099  -0.018487
    C   C128  0.725938  0.947541  0.424646  -0.241195
    C   C129  0.704399  0.975299  0.396345  -0.064445
    C   C130  0.650067  0.965090  0.385526  -0.334784
    H   H29   0.537192  0.897920  0.413139  0.410653
    H   H30   0.613867  0.868239  0.445321  0.144650
    H   H31   0.710156  0.887092  0.464230  0.092397
    H   H32   0.768535  0.955731  0.433045  0.126441
    H   H33   0.730220  0.005217  0.382518  0.118474
    H   H34   0.635237  0.987522  0.363057  0.137623
    N   N20   0.084150  0.557743  0.393459  -0.864941
    C   C131  0.073053  0.614031  0.403494  0.647644
    C   C132  0.101302  0.635998  0.431669  -0.349991
    C   C133  0.090792  0.690133  0.442648  -0.015128
    C   C134  0.052238  0.722979  0.425398  -0.244797
    C   C135  0.024408  0.701739  0.397038  -0.064126
    C   C136  0.034653  0.647551  0.385961  -0.330525
    H   H35   0.102078  0.534464  0.412991  0.408445
    H   H36   0.131786  0.610785  0.445454  0.143577
    H   H37   0.112860  0.706815  0.464824  0.091137
    H   H38   0.044016  0.765463  0.434000  0.127394
    H   H39   0.994402  0.727680  0.383369  0.118345
    H   H40   0.012164  0.632948  0.363458  0.136929
    N   N21   0.441346  0.914713  0.606746  -0.872212
    C   C137  0.384542  0.924299  0.597216  0.655878
    C   C138  0.362494  0.894900  0.569514  -0.348490
    C   C139  0.307827  0.903848  0.559020  -0.017958
    C   C140  0.274535  0.942003  0.576280  -0.244237
    C   C141  0.295877  0.971005  0.604163  -0.061563
    C   C142  0.350590  0.962319  0.614757  -0.341187
    H   H41   0.464654  0.897316  0.587046  0.414099
    H   H42   0.388058  0.864703  0.555733  0.140514
    H   H43   0.291077  0.880867  0.537216  0.092217
    H   H44   0.231636  0.949004  0.568058  0.126633
    H   H45   0.269603  0.000716  0.617836  0.117801
    H   H46   0.365236  0.985735  0.636889  0.138515
    N   N22   0.914680  0.558362  0.606769  -0.872811
    C   C143  0.924217  0.615197  0.597289  0.656368
    C   C144  0.894803  0.637284  0.569606  -0.348861
    C   C145  0.903705  0.691984  0.559159  -0.019500
    C   C146  0.941829  0.725268  0.576451  -0.243447
    C   C147  0.970847  0.703887  0.604316  -0.061346
    C   C148  0.962207  0.649141  0.614862  -0.341449
    H   H47   0.897311  0.535083  0.587046  0.414367
    H   H48   0.864631  0.611726  0.555801  0.140778
    H   H49   0.880712  0.708764  0.537369  0.092886
    H   H50   0.948794  0.768193  0.568267  0.126468
    H   H51   0.000533  0.730155  0.618013  0.117590
    H   H52   0.985634  0.634465  0.636982  0.138729
    N   N23   0.555877  0.085452  0.606433  -0.870941
    C   C149  0.612639  0.075882  0.596804  0.656874
    C   C150  0.634565  0.105348  0.569095  -0.353565
    C   C151  0.689170  0.096396  0.558482  -0.013470
    C   C152  0.722526  0.058171  0.575636  -0.244400
    C   C153  0.701313  0.029107  0.603532  -0.065988
    C   C154  0.646659  0.037794  0.614243  -0.335956
    H   H53   0.532444  0.102748  0.586754  0.410928
    H   H54   0.608949  0.135607  0.555403  0.142397
    H   H55   0.705819  0.119430  0.536671  0.091244
    H   H56   0.765378  0.051165  0.567322  0.126845
    H   H57   0.727639  0.999340  0.617120  0.118663
    H   H58   0.632116  0.014313  0.636374  0.137274
    N   N24   0.085494  0.443940  0.606414  -0.872581
    C   C155  0.075956  0.387194  0.596739  0.657530
    C   C156  0.105424  0.365348  0.569006  -0.353411
    C   C157  0.096502  0.310761  0.558350  -0.013614
    C   C158  0.058306  0.277342  0.575482  -0.243998
    C   C159  0.029240  0.298476  0.603400  -0.066290
    C   C160  0.037898  0.353111  0.614155  -0.336057
    H   H59   0.102787  0.467422  0.586757  0.411100
    H   H60   0.135659  0.391014  0.555330  0.142406
    H   H61   0.119536  0.294175  0.536520  0.091214
    H   H62   0.051323  0.234505  0.567133  0.126651
    H   H63   0.999497  0.272100  0.616972  0.118833
    H   H64   0.014419  0.367591  0.636303  0.137274
    N   N25   0.943936  0.585543  0.893584  -0.872200
    C   C161  0.887190  0.576009  0.903261  0.657095
    C   C162  0.865347  0.605482  0.930993  -0.353515
    C   C163  0.810760  0.596562  0.941651  -0.013561
    C   C164  0.777339  0.558365  0.924522  -0.244409
    C   C165  0.798470  0.529295  0.896605  -0.066142
    C   C166  0.853105  0.537949  0.885848  -0.335317
    H   H65   0.967420  0.602838  0.913240  0.410955
    H   H66   0.891014  0.635718  0.944667  0.142495
    H   H67   0.794176  0.619600  0.963480  0.091293
    H   H68   0.734502  0.551385  0.932872  0.126767
    H   H69   0.772093  0.499550  0.883035  0.118759
    H   H70   0.867583  0.514467  0.863701  0.136940
    N   N26   0.414133  0.943929  0.893616  -0.871300
    C   C167  0.423766  0.887210  0.903317  0.657095
    C   C168  0.394431  0.865382  0.931108  -0.354174
    C   C169  0.403455  0.810823  0.941788  -0.013535
    C   C170  0.441618  0.777415  0.924620  -0.243190
    C   C171  0.470548  0.798530  0.896643  -0.067349
    C   C172  0.461789  0.853137  0.885865  -0.334621
    H   H71   0.396841  0.967409  0.913274  0.410658
    H   H72   0.364225  0.891040  0.944815  0.142741
    H   H73   0.380527  0.794251  0.963664  0.091134
    H   H74   0.448680  0.734600  0.932987  0.126416
    H   H75   0.500264  0.772162  0.883043  0.119044
    H   H76   0.485157  0.867606  0.863671  0.136928
    N   N27   0.058359  0.414730  0.893232  -0.872578
    C   C173  0.115194  0.424271  0.902710  0.656588
    C   C174  0.137284  0.394862  0.930395  -0.348986
    C   C175  0.191984  0.403768  0.940839  -0.019028
    C   C176  0.225266  0.441890  0.923545  -0.243997
    C   C177  0.203881  0.470903  0.895678  -0.061186
    C   C178  0.149135  0.462259  0.885134  -0.341731
    H   H77   0.035081  0.397362  0.912956  0.414188
    H   H78   0.111728  0.364690  0.944202  0.140814
    H   H79   0.208766  0.380778  0.962630  0.092783
    H   H80   0.268191  0.448858  0.931727  0.126616
    H   H81   0.230147  0.500588  0.881979  0.117704
    H   H82   0.134457  0.485682  0.863013  0.138594
    N   N28   0.584873  0.058457  0.893203  -0.875773
    C   C179  0.575347  0.115302  0.902664  0.661931
    C   C180  0.604872  0.137443  0.930287  -0.351030
    C   C181  0.595993  0.192155  0.940717  -0.018970
    C   C182  0.557779  0.225397  0.923471  -0.243416
    C   C183  0.528648  0.203961  0.895666  -0.059613
    C   C184  0.537265  0.149203  0.885135  -0.345805
    H   H83   0.602274  0.035195  0.912923  0.415010
    H   H84   0.635121  0.111919  0.944053  0.141022
    H   H85   0.619077  0.208977  0.962459  0.092976
    H   H86   0.550832  0.268330  0.931642  0.126039
    H   H87   0.498889  0.230195  0.882004  0.117309
    H   H88   0.513741  0.134487  0.863065  0.139437
    N   N29   0.939893  0.415806  0.106540  -0.865560
    C   C185  0.883468  0.426928  0.096805  0.651988
    C   C186  0.861130  0.398767  0.068708  -0.354978
    C   C187  0.806831  0.409266  0.058033  -0.017586
    C   C188  0.774196  0.447730  0.075508  -0.241546
    C   C189  0.795815  0.475483  0.103788  -0.064104
    C   C190  0.850164  0.465244  0.114564  -0.333964
    H   H89   0.962942  0.398013  0.086858  0.410902
    H   H90   0.886171  0.368350  0.054750  0.144758
    H   H91   0.789853  0.387258  0.035919  0.092108
    H   H92   0.731585  0.455944  0.067145  0.126295
    H   H93   0.770044  0.505422  0.117633  0.118387
    H   H94   0.865057  0.487674  0.137017  0.137250
    N   N30   0.416225  0.057742  0.106570  -0.865356
    C   C191  0.427233  0.114060  0.096559  0.648333
    C   C192  0.398860  0.136048  0.068438  -0.350034
    C   C193  0.409273  0.190213  0.057481  -0.015695
    C   C194  0.447856  0.223068  0.074700  -0.245133
    C   C195  0.475812  0.201805  0.103007  -0.063521
    C   C196  0.465663  0.147588  0.114061  -0.330529
    H   H95   0.398297  0.034461  0.087038  0.408856
    H   H96   0.368349  0.110828  0.054680  0.143414
    H   H97   0.387106  0.206913  0.035347  0.091410
    H   H98   0.456004  0.265575  0.066115  0.127510
    H   H99   0.505844  0.227752  0.116651  0.118086
    H   H100  0.488256  0.132969  0.136521  0.136812
    N   N31   0.057726  0.584194  0.106546  -0.864750
    C   C197  0.114015  0.573099  0.096511  0.648408
    C   C198  0.135982  0.601350  0.068337  -0.350888
    C   C199  0.190119  0.590844  0.057360  -0.014176
    C   C200  0.222965  0.552290  0.074609  -0.245223
    C   C201  0.201725  0.524458  0.102969  -0.064083
    C   C202  0.147536  0.534701  0.114044  -0.330917
    H   H101  0.034448  0.602123  0.087013  0.408267
    H   H102  0.110769  0.631834  0.054552  0.143749
    H   H103  0.206801  0.612913  0.035184  0.090879
    H   H104  0.265449  0.544070  0.066008  0.127449
    H   H105  0.227666  0.494452  0.116638  0.118433
    H   H106  0.132932  0.512210  0.136546  0.136881
    N   N32   0.584685  0.940007  0.106519  -0.864825
    C   C203  0.573556  0.883591  0.096769  0.652998
    C   C204  0.601613  0.861307  0.068616  -0.356295
    C   C205  0.591097  0.807018  0.057928  -0.016295
    C   C206  0.552721  0.774340  0.075446  -0.243900
    C   C207  0.525074  0.795904  0.103781  -0.061906
    C   C208  0.535330  0.850244  0.114569  -0.335748
    H   H107  0.602448  0.963073  0.086834  0.410625
    H   H108  0.631957  0.886385  0.054621  0.144938
    H   H109  0.613021  0.790083  0.035771  0.091973
    H   H110  0.544494  0.731737  0.067073  0.127050
    H   H111  0.495206  0.770099  0.117659  0.117860
    H   H112  0.512990  0.865097  0.137065  0.137901
