# Generated by REPEAT Assigner based on pymatgen
data_DB0-m3_o10_o17_f0_pcu.sym.70_sqe
_audit_creation_date              2022-05-24
_audit_creation_method            REPEAT_Assigner
_cell_length_a                    7.758284
_cell_length_b                    8.921024
_cell_length_c                    15.035728
_cell_angle_alpha                 90.004390
_cell_angle_beta                  83.962773
_cell_angle_gamma                 91.444028
_cell_volume                      1034.546541
_symmetry_space_group_name_H-M    P1
_symmetry_Int_Tables_number       1
loop_
    _symmetry_equiv_pos_site_id
    _symmetry_equiv_pos_as_xyz
    1  x,y,z
loop_
    _atom_site_type_symbol
    _atom_site_label
    _atom_site_fract_x
    _atom_site_fract_y
    _atom_site_fract_z
    _atom_type_partial_charge
    O   O1   0.372685  0.711718  0.497394  -0.654012
    O   O2   0.613917  0.242588  0.485438  -0.718447
    O   O3   0.669717  0.687816  0.480555  -0.579032
    O   O4   0.315104  0.266578  0.502490  -0.742017
    C   C1   0.531493  0.769151  0.488353  0.726181
    C   C2   0.454286  0.185497  0.494832  0.909162
    O   O5   0.345359  0.487541  0.632167  -0.639091
    O   O6   0.639814  0.465611  0.351249  -0.639839
    O   O7   0.644315  0.468407  0.616004  -0.624364
    O   O8   0.341426  0.484327  0.367387  -0.503571
    C   C3   0.494576  0.477439  0.665340  0.686357
    C   C4   0.490515  0.473268  0.318082  0.555036
    Zn  Zn1  0.296381  0.492436  0.502489  0.952465
    Zn  Zn2  0.689421  0.462109  0.480836  1.079793
    C   C5   0.343675  0.423161  0.183322  -0.273158
    C   C6   0.644873  0.499123  0.800534  -0.290277
    C   C7   0.490893  0.467260  0.221144  0.115990
    C   C8   0.493383  0.472309  0.762432  0.012611
    C   C9   0.640247  0.504044  0.167259  -0.320779
    C   C10  0.341850  0.438639  0.816091  -0.241909
    C   C11  0.641954  0.500884  0.075612  0.209229
    C   C12  0.342638  0.431632  0.907815  0.149370
    C   C13  0.492679  0.463383  0.037640  -0.084468
    C   C14  0.493062  0.464752  0.945908  0.005538
    C   C15  0.343324  0.424259  0.091466  0.227626
    C   C16  0.644015  0.499288  0.892255  0.212140
    C   C17  0.792535  0.536653  0.022023  -0.163806
    C   C18  0.193323  0.391667  0.961568  -0.162266
    C   C19  0.793958  0.534383  0.930337  -0.255032
    C   C20  0.194124  0.386468  0.053282  -0.233480
    H   H1   0.230597  0.385034  0.225985  0.092224
    H   H2   0.763335  0.522886  0.758207  0.180238
    H   H3   0.754939  0.537777  0.197274  0.136704
    H   H4   0.223443  0.414849  0.786161  0.137482
    H   H5   0.909651  0.565992  0.051823  0.111138
    H   H6   0.075817  0.363469  0.931877  0.119788
    H   H7   0.912158  0.562124  0.888486  0.147737
    H   H8   0.077042  0.354972  0.095227  0.128324
    C   C21  0.559382  0.931906  0.486959  -0.160858
    C   C22  0.426458  0.022730  0.496124  -0.337873
    H   H9   0.690490  0.978506  0.478743  0.138151
    H   H10  0.295361  0.976106  0.504358  0.190688
    N   N1   0.947697  0.445065  0.465179  -0.074123
    N   N2   0.038401  0.511261  0.517562  0.379498
    N   N3   0.020476  0.453312  0.377899  -0.255803
    C   C23  0.062299  0.595405  0.349947  0.610910
    O   O9   0.094467  0.692484  0.403281  -0.387704
    C   C24  0.069113  0.636470  0.253416  -0.507103
    H   H11  0.955111  0.391464  0.333763  0.284226
    H   H12  0.029540  0.540478  0.213154  0.165645
    H   H13  0.203062  0.673557  0.228590  0.163136
    H   H14  0.979988  0.729835  0.245940  0.142809
    N   N4   0.955979  0.534205  0.601325  -0.540118
    C   C25  0.936177  0.681928  0.617367  0.756857
    O   O10  0.916662  0.766538  0.555802  -0.487363
    C   C26  0.951637  0.745474  0.708085  -0.590353
    H   H15  0.012465  0.480453  0.650950  0.293355
    H   H16  0.006044  0.662673  0.751619  0.119569
    H   H17  0.822608  0.780840  0.738469  0.163272
    H   H18  0.040977  0.844790  0.701451  0.163599
