# Generated by REPEAT Assigner based on pymatgen
data_DB0-m3_o12_o30_tfz
_audit_creation_date              2022-05-24
_audit_creation_method            REPEAT_Assigner
_cell_length_a                    11.297128
_cell_length_b                    19.035106
_cell_length_c                    18.923684
_cell_angle_alpha                 60.098884
_cell_angle_beta                  86.438115
_cell_angle_gamma                 84.914853
_cell_volume                      3513.055880
_symmetry_space_group_name_H-M    P1
_symmetry_Int_Tables_number       1
loop_
    _symmetry_equiv_pos_site_id
    _symmetry_equiv_pos_as_xyz
    1  x,y,z
loop_
    _atom_site_type_symbol
    _atom_site_label
    _atom_site_fract_x
    _atom_site_fract_y
    _atom_site_fract_z
    _atom_type_partial_charge
    O   O1   0.651130  0.575842  0.417469  -0.710428
    O   O2   0.522893  0.379263  0.498574  -0.676186
    O   O3   0.481859  0.497577  0.381219  -0.666663
    O   O4   0.694558  0.458186  0.535095  -0.721414
    C   C1   0.729437  0.522779  0.468956  0.792279
    C   C2   0.502431  0.418413  0.420167  0.641013
    O   O5   0.518113  0.501918  0.618208  -0.666909
    O   O6   0.305429  0.541310  0.464329  -0.720689
    O   O7   0.348835  0.423652  0.581958  -0.710365
    O   O8   0.477077  0.620224  0.500847  -0.675805
    Zn  Zn1  0.471698  0.577016  0.422912  1.303170
    Zn  Zn2  0.528261  0.422524  0.576463  1.303747
    C   C3   0.497538  0.581081  0.579254  0.639994
    C   C4   0.270538  0.476720  0.530466  0.791763
    C   C5   0.499946  0.373792  0.376031  0.167241
    C   C6   0.496022  0.374158  0.249670  0.174557
    C   C7   0.494369  0.248632  0.375711  0.167463
    C   C8   0.498566  0.415598  0.291998  -0.275818
    H   H1   0.500456  0.480930  0.259282  0.160492
    C   C9   0.494348  0.290630  0.291592  -0.279386
    H   H2   0.492413  0.258027  0.258591  0.163230
    C   C10  0.497320  0.290268  0.417927  -0.280573
    H   H3   0.498052  0.257440  0.483753  0.169557
    C   C11  0.500015  0.625707  0.623386  0.170652
    C   C12  0.505585  0.750870  0.623701  0.167776
    C   C13  0.503933  0.625347  0.749744  0.176501
    C   C14  0.502638  0.709231  0.581487  -0.282429
    H   H4   0.501909  0.742056  0.515661  0.169424
    C   C15  0.505603  0.708875  0.707821  -0.280633
    H   H5   0.507535  0.741480  0.740820  0.164426
    C   C16  0.501394  0.583904  0.707418  -0.278816
    H   H6   0.499507  0.518573  0.740135  0.161269
    O   O9   0.512973  0.619460  0.879050  -0.665839
    O   O10  0.313205  0.460766  0.001047  -0.719120
    O   O11  0.334394  0.577981  0.002260  -0.714562
    O   O12  0.492703  0.502101  0.878117  -0.664371
    C   C17  0.503580  0.580728  0.838789  0.627740
    C   C18  0.266122  0.525782  0.002151  0.798687
    O   O13  0.665580  0.421521  0.997153  -0.713668
    O   O14  0.507254  0.497401  0.121292  -0.664950
    O   O15  0.486984  0.380036  0.120371  -0.664227
    O   O16  0.686749  0.538739  0.998364  -0.717878
    Zn  Zn3  0.513836  0.576540  0.000420  1.299726
    Zn  Zn4  0.486136  0.423005  0.998996  1.299064
    C   C19  0.733843  0.473725  0.997260  0.797488
    C   C20  0.496375  0.418774  0.160626  0.627792
    O   O17  0.646125  0.994944  0.581830  -0.708419
    O   O18  0.518721  0.119866  0.380507  -0.668983
    O   O19  0.471180  0.121111  0.498495  -0.675381
    O   O20  0.696544  0.994456  0.463717  -0.718171
    C   C21  0.727466  0.993437  0.529985  0.793381
    C   C22  0.493843  0.160103  0.419748  0.642073
    O   O21  0.528777  0.878382  0.500911  -0.673781
    O   O22  0.303422  0.005038  0.535685  -0.718244
    O   O23  0.353816  0.004557  0.417565  -0.708421
    O   O24  0.481230  0.879643  0.618891  -0.670394
    Zn  Zn5  0.467147  0.000488  0.576823  1.301558
    Zn  Zn6  0.532782  0.999015  0.422629  1.300008
    C   C23  0.506112  0.839399  0.579657  0.642091
    C   C24  0.272485  0.006059  0.469419  0.794586
    H   H7   0.088087  0.560936  0.434357  0.147549
    H   H8   0.911891  0.438573  0.565060  0.148026
    C   C25  0.855826  0.537868  0.453185  -0.247609
    C   C26  0.937339  0.490444  0.507916  -0.058369
    H   H9   0.117458  0.409299  0.602594  0.141050
    C   C27  0.144147  0.461638  0.546234  -0.247894
    C   C28  0.062636  0.509065  0.491500  -0.057549
    H   H10  0.882509  0.590208  0.396824  0.140954
    H   H11  0.099898  0.437197  0.997909  0.146137
    H   H12  0.900061  0.562317  0.001502  0.145030
    C   C29  0.863094  0.458330  0.996916  -0.256368
    C   C30  0.935482  0.508539  0.999479  -0.053616
    H   H13  0.100073  0.594908  0.004166  0.143964
    C   C31  0.136872  0.541183  0.002495  -0.254463
    C   C32  0.064479  0.490976  0.999931  -0.056848
    H   H14  0.899897  0.404605  0.995246  0.144414
    H   H15  0.084060  0.996509  0.565011  0.145423
    H   H16  0.915897  0.002982  0.434405  0.146020
    C   C33  0.852876  0.992915  0.545773  -0.253105
    C   C34  0.937802  0.998797  0.491380  -0.055525
    H   H17  0.123826  0.009719  0.397370  0.143132
    C   C35  0.147073  0.006579  0.453639  -0.255227
    C   C36  0.062152  0.000694  0.508036  -0.053944
    H   H18  0.876116  0.989777  0.602042  0.142592
