data_DB0-m3_o12_o29_f0_pcu.sym.4_repeat
_audit_creation_date              2024-02-23
_audit_creation_method            'Materials Studio'
_symmetry_space_group_name_H-M    'P1'
_symmetry_Int_Tables_number       1
_symmetry_cell_setting            triclinic
loop_
_symmetry_equiv_pos_as_xyz
  x,y,z
_cell_length_a                    10.3371
_cell_length_b                    11.2969
_cell_length_c                    27.6392
_cell_angle_alpha                 90.0026
_cell_angle_beta                  80.4681
_cell_angle_gamma                 92.5169
loop_
_atom_site_label
_atom_site_type_symbol
_atom_site_fract_x
_atom_site_fract_y
_atom_site_fract_z
_atom_site_U_iso_or_equiv
_atom_site_adp_type
_atom_site_occupancy
O1     O     0.42147   0.69040   0.50592   0.00000  Uiso   1.00
O2     O     0.57916   0.31045   0.49390   0.00000  Uiso   1.00
O3     O     0.64380   0.66078   0.49432   0.00000  Uiso   1.00
O4     O     0.35684   0.34007   0.50542   0.00000  Uiso   1.00
C1     C     0.54440   0.73025   0.49996   0.00000  Uiso   1.00
C2     C     0.45624   0.27060   0.49982   0.00000  Uiso   1.00
O5     O     0.37687   0.51173   0.57806   0.00000  Uiso   1.00
O6     O     0.62381   0.48899   0.42173   0.00000  Uiso   1.00
O7     O     0.59829   0.47998   0.56716   0.00000  Uiso   1.00
O8     O     0.40231   0.52099   0.43262   0.00000  Uiso   1.00
C3     C     0.48503   0.49282   0.59554   0.00000  Uiso   1.00
C4     C     0.51566   0.50800   0.40428   0.00000  Uiso   1.00
Zn1    Zn    0.35363   0.51920   0.50670   0.00000  Uiso   1.00
Zn2    Zn    0.64701   0.48165   0.49309   0.00000  Uiso   1.00
C5     C     0.48442   0.59716   0.82440   0.00000  Uiso   1.00
C6     C     0.50036   0.40386   0.17713   0.00000  Uiso   1.00
O9     O     0.50481   0.69755   0.79761   0.00000  Uiso   1.00
O10    O     0.46707   0.30665   0.20523   0.00000  Uiso   1.00
N1     N     0.46185   0.49361   0.80238   0.00000  Uiso   1.00
N2     N     0.53710   0.50518   0.19778   0.00000  Uiso   1.00
C7     C     0.44439   0.39190   0.82859   0.00000  Uiso   1.00
C8     C     0.56785   0.60418   0.17039   0.00000  Uiso   1.00
C9     C     0.55691   0.42457   0.72170   0.00000  Uiso   1.00
C10    C     0.44862   0.58087   0.27800   0.00000  Uiso   1.00
C11    C     0.56482   0.42228   0.67132   0.00000  Uiso   1.00
C12    C     0.44060   0.58293   0.32840   0.00000  Uiso   1.00
C13    C     0.38507   0.55158   0.67854   0.00000  Uiso   1.00
C14    C     0.61105   0.44384   0.32162   0.00000  Uiso   1.00
C15    C     0.37846   0.55328   0.72880   0.00000  Uiso   1.00
C16    C     0.61692   0.44148   0.27141   0.00000  Uiso   1.00
C17    C     0.46507   0.49033   0.75053   0.00000  Uiso   1.00
C18    C     0.53513   0.50960   0.24950   0.00000  Uiso   1.00
C19    C     0.47680   0.49672   0.90118   0.00000  Uiso   1.00
C20    C     0.52135   0.50126   0.09911   0.00000  Uiso   1.00
C21    C     0.49187   0.59989   0.87396   0.00000  Uiso   1.00
C22    C     0.49232   0.40068   0.12764   0.00000  Uiso   1.00
C23    C     0.51536   0.70545   0.89628   0.00000  Uiso   1.00
C24    C     0.45180   0.29803   0.10692   0.00000  Uiso   1.00
C25    C     0.45191   0.39226   0.87812   0.00000  Uiso   1.00
C26    C     0.56030   0.60340   0.12086   0.00000  Uiso   1.00
C27    C     0.47916   0.48819   0.64918   0.00000  Uiso   1.00
C28    C     0.52164   0.51234   0.35070   0.00000  Uiso   1.00
H1     H     0.31739   0.60297   0.66228   0.00000  Uiso   1.00
H2     H     0.67490   0.38868   0.33813   0.00000  Uiso   1.00
H3     H     0.30500   0.60420   0.75104   0.00000  Uiso   1.00
H4     H     0.68585   0.38595   0.24933   0.00000  Uiso   1.00
H5     H     0.52473   0.78830   0.87622   0.00000  Uiso   1.00
H6     H     0.42584   0.21821   0.12852   0.00000  Uiso   1.00
C29    C     0.53587   0.60366   0.02192   0.00000  Uiso   1.00
C30    C     0.46858   0.39295   0.97778   0.00000  Uiso   1.00
C31    C     0.47391   0.39514   0.02813   0.00000  Uiso   1.00
C32    C     0.51764   0.60377   0.97279   0.00000  Uiso   1.00
C33    C     0.51055   0.49996   0.04955   0.00000  Uiso   1.00
C34    C     0.48749   0.49784   0.95076   0.00000  Uiso   1.00
C35    C     0.58031   0.70477   0.04426   0.00000  Uiso   1.00
C36    C     0.44577   0.28796   0.95340   0.00000  Uiso   1.00
C37    C     0.59176   0.70444   0.09301   0.00000  Uiso   1.00
C38    C     0.43723   0.28801   0.90439   0.00000  Uiso   1.00
O11    O     0.60651   0.70396   0.19145   0.00000  Uiso   1.00
O12    O     0.41858   0.28969   0.80644   0.00000  Uiso   1.00
C39    C     0.52754   0.70775   0.94497   0.00000  Uiso   1.00
C40    C     0.44234   0.29504   0.05800   0.00000  Uiso   1.00
H7     H     0.38472   0.63373   0.26046   0.00000  Uiso   1.00
H8     H     0.62479   0.37584   0.73898   0.00000  Uiso   1.00
H9     H     0.62562   0.78527   0.10873   0.00000  Uiso   1.00
H10    H     0.42003   0.20426   0.88715   0.00000  Uiso   1.00
H11    H     0.61082   0.78659   0.02509   0.00000  Uiso   1.00
H12    H     0.43754   0.20189   0.97040   0.00000  Uiso   1.00
H13    H     0.54171   0.79452   0.95963   0.00000  Uiso   1.00
H14    H     0.40572   0.21207   0.04551   0.00000  Uiso   1.00
H15    H     0.62124   0.09280   0.49526   0.00000  Uiso   1.00
H16    H     0.37938   0.90803   0.50453   0.00000  Uiso   1.00
C41    C     0.57487   0.85824   0.49873   0.00000  Uiso   1.00
C42    C     0.42576   0.14261   0.50104   0.00000  Uiso   1.00
C43    C     0.48188   0.93687   0.50112   0.00000  Uiso   1.00
C44    C     0.51874   0.06397   0.49867   0.00000  Uiso   1.00
H17    H     0.32378   0.11174   0.50485   0.00000  Uiso   1.00
H18    H     0.67685   0.88911   0.49491   0.00000  Uiso   1.00
N3     N     0.84055   0.45955   0.48532   0.00000  Uiso   1.00
N4     N     0.16009   0.54130   0.51448   0.00000  Uiso   1.00
C45    C     0.92898   0.51428   0.50638   0.00000  Uiso   1.00
C46    C     0.07168   0.48669   0.49339   0.00000  Uiso   1.00
H19    H     0.12923   0.60390   0.54012   0.00000  Uiso   1.00
H20    H     0.87140   0.39685   0.45973   0.00000  Uiso   1.00
C47    C     0.11196   0.39503   0.45521   0.00000  Uiso   1.00
H21    H     0.08323   0.42136   0.41994   0.00000  Uiso   1.00
H22    H     0.21822   0.38545   0.44833   0.00000  Uiso   1.00
H23    H     0.06472   0.30766   0.46752   0.00000  Uiso   1.00
C48    C     0.88873   0.60614   0.54447   0.00000  Uiso   1.00
H24    H     0.91758   0.58009   0.57975   0.00000  Uiso   1.00
H25    H     0.93592   0.69346   0.53206   0.00000  Uiso   1.00
H26    H     0.78245   0.61563   0.55138   0.00000  Uiso   1.00
C49    C     0.34783   0.66550   0.35684   0.00000  Uiso   1.00
H27    H     0.30712   0.72419   0.33153   0.00000  Uiso   1.00
H28    H     0.26438   0.61468   0.37895   0.00000  Uiso   1.00
H29    H     0.40028   0.72226   0.38077   0.00000  Uiso   1.00
C50    C     0.66272   0.34411   0.64285   0.00000  Uiso   1.00
H30    H     0.70685   0.28805   0.66812   0.00000  Uiso   1.00
H31    H     0.61369   0.28445   0.61889   0.00000  Uiso   1.00
H32    H     0.74335   0.39843   0.62083   0.00000  Uiso   1.00
