# Generated by REPEAT Assigner based on pymatgen
data_DB0-m2_o11_o18_f0_pcu.sym.40_sqe
_audit_creation_date              2022-05-24
_audit_creation_method            REPEAT_Assigner
_cell_length_a                    9.553515
_cell_length_b                    11.027459
_cell_length_c                    15.768547
_cell_angle_alpha                 90.010594
_cell_angle_beta                  72.562552
_cell_angle_gamma                 90.019905
_cell_volume                      1584.889666
_symmetry_space_group_name_H-M    P1
_symmetry_Int_Tables_number       1
loop_
    _symmetry_equiv_pos_site_id
    _symmetry_equiv_pos_as_xyz
    1  x,y,z
loop_
    _atom_site_type_symbol
    _atom_site_label
    _atom_site_fract_x
    _atom_site_fract_y
    _atom_site_fract_z
    _atom_type_partial_charge
    O   O1   0.124006  0.325756  0.509488  -0.548716
    O   O2   0.885034  0.327588  0.506816  -0.553974
    C   C1   0.003623  0.269657  0.509399  0.601665
    O   O3   0.072321  0.504327  0.630960  -0.600483
    O   O4   0.829111  0.514845  0.634336  -0.601682
    C   C2   0.931008  0.512543  0.674392  0.696551
    Cu  Cu1  0.149545  0.501053  0.500779  0.876741
    Cu  Cu2  0.866837  0.504384  0.507395  0.960902
    O   O5   0.132054  0.677756  0.499890  -0.639119
    O   O6   0.892392  0.679964  0.498053  -0.599581
    O   O7   0.184744  0.490594  0.372932  -0.493549
    O   O8   0.944947  0.502919  0.376330  -0.589495
    C   C3   0.013021  0.735490  0.498434  0.749256
    C   C4   0.084178  0.497261  0.332606  0.603409
    C   C5   0.881057  0.518642  0.772052  -0.098612
    C   C6   0.131914  0.491632  0.234939  -0.036609
    C   C7   0.924647  0.566070  0.908639  -0.239442
    C   C8   0.977323  0.546243  0.818618  -0.056950
    C   C9   0.733304  0.502356  0.816923  -0.139898
    C   C10  0.678287  0.517702  0.908883  0.038634
    C   C11  0.776913  0.552291  0.953004  0.222116
    C   C12  0.528649  0.501271  0.957312  0.053915
    C   C13  0.480205  0.522213  0.048913  0.080509
    C   C14  0.583623  0.560545  0.089772  -0.255994
    C   C15  0.728941  0.573892  0.042461  -0.203066
    C   C16  0.426591  0.462153  0.916086  -0.202363
    C   C17  0.282038  0.445183  0.962792  -0.207735
    C   C18  0.233705  0.464556  0.052739  0.189793
    C   C19  0.331275  0.502539  0.096874  0.055402
    C   C20  0.087262  0.443968  0.098273  -0.208376
    C   C21  0.036576  0.456079  0.189104  -0.089537
    C   C22  0.276538  0.517707  0.188537  -0.191087
    H   H1   0.806290  0.601961  0.076691  0.120101
    H   H2   0.342847  0.551606  0.226785  0.098240
    H   H3   0.923057  0.434403  0.222909  0.114746
    H   H4   0.206722  0.414112  0.928139  0.125584
    H   H5   0.999875  0.594983  0.944141  0.130783
    H   H6   0.092573  0.558936  0.784427  0.099648
    H   H7   0.663769  0.479824  0.777442  0.103158
    H   H8   0.558395  0.581601  0.158852  0.186317
    H   H9   0.453447  0.441176  0.846737  0.148545
    H   H10  0.011438  0.414709  0.063292  0.116433
    C   C23  0.896382  0.934914  0.503273  -0.012784
    C   C24  0.017266  0.868102  0.495675  -0.330083
    H   H11  0.793213  0.889695  0.508865  0.108254
    H   H12  0.123363  0.908296  0.487486  0.183082
    C   C25  0.895350  0.069352  0.502977  -0.053362
    C   C26  0.007484  0.136500  0.509997  -0.231727
    H   H13  0.797235  0.114420  0.498107  0.117336
    H   H14  0.105916  0.095292  0.516959  0.141633
    C   C27  0.408633  0.433042  0.550620  -0.090787
    N   N1   0.361012  0.497642  0.496927  -0.104564
    H   H15  0.332495  0.385026  0.605253  0.132011
    C   C28  0.568185  0.417825  0.536410  0.220177
    N   N2   0.656895  0.506203  0.509009  -0.432337
    H   H16  0.608549  0.330392  0.550422  0.067505
    H   H17  0.608647  0.590141  0.509965  0.272226
    N   N3   0.466648  0.520851  0.417389  0.237801
    C   C29  0.499293  0.423292  0.353272  -0.255752
    C   C30  0.453914  0.638395  0.381742  -0.372321
    H   H18  0.419170  0.348591  0.374364  0.085286
    H   H19  0.610232  0.385675  0.346382  0.058535
    H   H20  0.500703  0.457612  0.286903  0.113573
    H   H21  0.447915  0.705966  0.434635  0.111184
    H   H22  0.354127  0.645239  0.360987  0.123449
    H   H23  0.551333  0.658775  0.324435  0.095482
