data_DB0-m3_o96_o23_f0_fsc.sym.33_repeat
_audit_creation_date              2024-02-23
_audit_creation_method            'Materials Studio'
_symmetry_space_group_name_H-M    'P1'
_symmetry_Int_Tables_number       1
_symmetry_cell_setting            triclinic
loop_
_symmetry_equiv_pos_as_xyz
  x,y,z
_cell_length_a                    12.9132
_cell_length_b                    13.8886
_cell_length_c                    16.5884
_cell_angle_alpha                 94.4430
_cell_angle_beta                  90.0439
_cell_angle_gamma                 90.6273
loop_
_atom_site_label
_atom_site_type_symbol
_atom_site_fract_x
_atom_site_fract_y
_atom_site_fract_z
_atom_site_U_iso_or_equiv
_atom_site_adp_type
_atom_site_occupancy
C1     C     0.81204   0.04840   0.21127   0.00000  Uiso   1.00
C2     C     0.73990   0.06551   0.15361   0.00000  Uiso   1.00
C3     C     0.79216   0.06110   0.07988   0.00000  Uiso   1.00
N1     N     0.89374   0.04550   0.09253   0.00000  Uiso   1.00
C4     C     0.90670   0.03934   0.17277   0.00000  Uiso   1.00
C5     C     0.74977   0.06779   0.00641   0.00000  Uiso   1.00
C6     C     0.79991   0.04750   0.92698   0.00000  Uiso   1.00
C7     C     0.75155   0.05729   0.85383   0.00000  Uiso   1.00
C8     C     0.81490   0.01945   0.79421   0.00000  Uiso   1.00
C9     C     0.90418   0.99063   0.83209   0.00000  Uiso   1.00
N2     N     0.89224   0.00522   0.91319   0.00000  Uiso   1.00
C10    C     0.00215   0.96404   0.79026   0.00000  Uiso   1.00
C11    C     0.09393   0.95413   0.82692   0.00000  Uiso   1.00
C12    C     0.18844   0.94890   0.78778   0.00000  Uiso   1.00
C13    C     0.26192   0.94040   0.84568   0.00000  Uiso   1.00
C14    C     0.21193   0.94517   0.91975   0.00000  Uiso   1.00
N3     N     0.10873   0.95127   0.90766   0.00000  Uiso   1.00
C15    C     0.25927   0.95364   0.99255   0.00000  Uiso   1.00
C16    C     0.20439   0.95607   0.07142   0.00000  Uiso   1.00
C17    C     0.24975   0.93868   0.14474   0.00000  Uiso   1.00
C18    C     0.18500   0.97291   0.20476   0.00000  Uiso   1.00
C19    C     0.09669   0.00390   0.16736   0.00000  Uiso   1.00
N4     N     0.11129   0.99680   0.08625   0.00000  Uiso   1.00
C20    C     0.99782   0.02664   0.20942   0.00000  Uiso   1.00
H1     H     0.66987   0.08500   0.00216   0.00000  Uiso   1.00
H2     H     0.00103   0.96300   0.72503   0.00000  Uiso   1.00
H3     H     0.99851   0.02526   0.27448   0.00000  Uiso   1.00
H4     H     0.94079   0.98258   0.95722   0.00000  Uiso   1.00
H5     H     0.06594   0.02684   0.04354   0.00000  Uiso   1.00
C21    C     0.34115   0.89505   0.16240   0.00000  Uiso   1.00
C22    C     0.37209   0.89794   0.24205   0.00000  Uiso   1.00
C23    C     0.31390   0.94537   0.30300   0.00000  Uiso   1.00
C24    C     0.21631   0.98020   0.28517   0.00000  Uiso   1.00
C25    C     0.78475   0.03435   0.29031   0.00000  Uiso   1.00
C26    C     0.68131   0.04337   0.31069   0.00000  Uiso   1.00
C27    C     0.61022   0.06965   0.25448   0.00000  Uiso   1.00
C28    C     0.63703   0.07932   0.17555   0.00000  Uiso   1.00
C29    C     0.65709   0.09546   0.83699   0.00000  Uiso   1.00
C30    C     0.62526   0.09064   0.75743   0.00000  Uiso   1.00
C31    C     0.68483   0.04511   0.69622   0.00000  Uiso   1.00
C32    C     0.78256   0.01026   0.71406   0.00000  Uiso   1.00
C33    C     0.21526   0.95801   0.70791   0.00000  Uiso   1.00
C34    C     0.31923   0.95004   0.68814   0.00000  Uiso   1.00
C35    C     0.39126   0.92861   0.74559   0.00000  Uiso   1.00
C36    C     0.36388   0.92452   0.82501   0.00000  Uiso   1.00
H6     H     0.38875   0.85852   0.11674   0.00000  Uiso   1.00
H7     H     0.16931   0.01603   0.33202   0.00000  Uiso   1.00
H8     H     0.84050   0.01482   0.33460   0.00000  Uiso   1.00
H9     H     0.52982   0.07766   0.27149   0.00000  Uiso   1.00
H10    H     0.60738   0.12754   0.88374   0.00000  Uiso   1.00
H11    H     0.82953   0.97434   0.66723   0.00000  Uiso   1.00
H12    H     0.15880   0.97229   0.66240   0.00000  Uiso   1.00
H13    H     0.47158   0.91943   0.72879   0.00000  Uiso   1.00
H14    H     0.42293   0.90738   0.86723   0.00000  Uiso   1.00
H15    H     0.44676   0.86874   0.25570   0.00000  Uiso   1.00
H16    H     0.54926   0.11702   0.74388   0.00000  Uiso   1.00
O1     O     0.37316   0.05250   0.41468   0.00000  Uiso   1.00
O2     O     0.41981   0.89262   0.40723   0.00000  Uiso   1.00
C37    C     0.36464   0.96324   0.38226   0.00000  Uiso   1.00
O3     O     0.62981   0.93675   0.40949   0.00000  Uiso   1.00
O4     O     0.58354   0.09676   0.42278   0.00000  Uiso   1.00
C38    C     0.63908   0.02630   0.38963   0.00000  Uiso   1.00
O5     O     0.62685   0.93893   0.58377   0.00000  Uiso   1.00
O6     O     0.57984   0.09875   0.59155   0.00000  Uiso   1.00
C39    C     0.63498   0.02801   0.61652   0.00000  Uiso   1.00
O7     O     0.36997   0.05478   0.58882   0.00000  Uiso   1.00
O8     O     0.41658   0.89473   0.57595   0.00000  Uiso   1.00
C40    C     0.36089   0.96540   0.60884   0.00000  Uiso   1.00
Zn1    Zn    0.53034   0.89221   0.49297   0.00000  Uiso   1.00
Zn2    Zn    0.46960   0.09927   0.50554   0.00000  Uiso   1.00
C41    C     0.41985   0.57512   0.53587   0.00000  Uiso   1.00
C42    C     0.60696   0.53692   0.54215   0.00000  Uiso   1.00
C43    C     0.57857   0.43116   0.54812   0.00000  Uiso   1.00
H17    H     0.39331   0.45848   0.61179   0.00000  Uiso   1.00
H18    H     0.42257   0.61585   0.59605   0.00000  Uiso   1.00
H19    H     0.68349   0.54551   0.51320   0.00000  Uiso   1.00
H20    H     0.61048   0.57350   0.60395   0.00000  Uiso   1.00
H21    H     0.56820   0.41902   0.61291   0.00000  Uiso   1.00
N5     N     0.44029   0.22268   0.51169   0.00000  Uiso   1.00
C44    C     0.52412   0.58364   0.49404   0.00000  Uiso   1.00
C45    C     0.39405   0.47006   0.54640   0.00000  Uiso   1.00
C46    C     0.47636   0.40775   0.50422   0.00000  Uiso   1.00
C47    C     0.48486   0.42898   0.41540   0.00000  Uiso   1.00
C48    C     0.51791   0.53358   0.40966   0.00000  Uiso   1.00
C49    C     0.45209   0.30513   0.50925   0.00000  Uiso   1.00
C50    C     0.54811   0.68632   0.48913   0.00000  Uiso   1.00
N6     N     0.55970   0.76880   0.48678   0.00000  Uiso   1.00
H22    H     0.46323   0.57219   0.37231   0.00000  Uiso   1.00
H23    H     0.59538   0.53550   0.38102   0.00000  Uiso   1.00
H24    H     0.35880   0.60616   0.49896   0.00000  Uiso   1.00
H25    H     0.31597   0.45138   0.52182   0.00000  Uiso   1.00
H26    H     0.54423   0.38183   0.38537   0.00000  Uiso   1.00
N7     N     0.55682   0.10119   0.12139   0.00000  Uiso   1.00
H27    H     0.54693   0.04255   0.07886   0.00000  Uiso   1.00
H28    H     0.57565   0.16486   0.09492   0.00000  Uiso   1.00
N8     N     0.66084   0.36814   0.51634   0.00000  Uiso   1.00
H29    H     0.68989   0.39267   0.46286   0.00000  Uiso   1.00
H30    H     0.72086   0.37258   0.55871   0.00000  Uiso   1.00
N9     N     0.38728   0.40804   0.37316   0.00000  Uiso   1.00
H31    H     0.33608   0.46504   0.38476   0.00000  Uiso   1.00
H32    H     0.40304   0.40274   0.31126   0.00000  Uiso   1.00
N10    N     0.36546   0.98291   0.99476   0.00000  Uiso   1.00
H33    H     0.41207   0.92494   0.00650   0.00000  Uiso   1.00
H34    H     0.37405   0.03918   0.03975   0.00000  Uiso   1.00
