data_DB0-m2_o11_o29_f0_pcu.sym.57_repeat
_audit_creation_date              2024-02-23
_audit_creation_method            'Materials Studio'
_symmetry_space_group_name_H-M    'P1'
_symmetry_Int_Tables_number       1
_symmetry_cell_setting            triclinic
loop_
_symmetry_equiv_pos_as_xyz
  x,y,z
_cell_length_a                    27.5311
_cell_length_b                    11.0415
_cell_length_c                    9.5270
_cell_angle_alpha                 90.0206
_cell_angle_beta                  90.0156
_cell_angle_gamma                 89.9936
loop_
_atom_site_label
_atom_site_type_symbol
_atom_site_fract_x
_atom_site_fract_y
_atom_site_fract_z
_atom_site_U_iso_or_equiv
_atom_site_adp_type
_atom_site_occupancy
O1     O     0.50509   0.32905   0.63668   0.00000  Uiso   1.00
O2     O     0.50020   0.33044   0.39498   0.00000  Uiso   1.00
C1     C     0.50271   0.27322   0.51578   0.00000  Uiso   1.00
O3     O     0.43236   0.50787   0.64141   0.00000  Uiso   1.00
O4     O     0.43177   0.50339   0.39947   0.00000  Uiso   1.00
C2     C     0.40927   0.50656   0.52081   0.00000  Uiso   1.00
Cu1    Cu    0.50304   0.50463   0.65916   0.00000  Uiso   1.00
Cu2    Cu    0.50230   0.50682   0.37843   0.00000  Uiso   1.00
O5     O     0.50434   0.68082   0.64214   0.00000  Uiso   1.00
O6     O     0.50103   0.68258   0.40138   0.00000  Uiso   1.00
O7     O     0.57352   0.50976   0.63722   0.00000  Uiso   1.00
O8     O     0.57292   0.50110   0.39676   0.00000  Uiso   1.00
C3     C     0.50261   0.73843   0.52233   0.00000  Uiso   1.00
C4     C     0.59606   0.50514   0.51660   0.00000  Uiso   1.00
C5     C     0.17964   0.40049   0.52916   0.00000  Uiso   1.00
O9     O     0.20482   0.29632   0.52433   0.00000  Uiso   1.00
N1     N     0.20366   0.50662   0.53250   0.00000  Uiso   1.00
C6     C     0.17921   0.61214   0.53552   0.00000  Uiso   1.00
C7     C     0.27947   0.55760   0.41692   0.00000  Uiso   1.00
C8     C     0.32980   0.55938   0.41293   0.00000  Uiso   1.00
C9     C     0.33155   0.46014   0.63648   0.00000  Uiso   1.00
C10    C     0.28151   0.45915   0.63972   0.00000  Uiso   1.00
C11    C     0.25542   0.50771   0.52988   0.00000  Uiso   1.00
C12    C     0.10362   0.50551   0.53056   0.00000  Uiso   1.00
C13    C     0.12937   0.39868   0.52660   0.00000  Uiso   1.00
C14    C     0.10477   0.29052   0.52063   0.00000  Uiso   1.00
C15    C     0.12896   0.61285   0.53616   0.00000  Uiso   1.00
C16    C     0.35593   0.50801   0.52243   0.00000  Uiso   1.00
H1     H     0.35142   0.42076   0.72302   0.00000  Uiso   1.00
H2     H     0.26282   0.42067   0.72896   0.00000  Uiso   1.00
H3     H     0.12392   0.20511   0.52033   0.00000  Uiso   1.00
C17    C     0.64932   0.50442   0.51614   0.00000  Uiso   1.00
C18    C     0.97759   0.39716   0.50203   0.00000  Uiso   1.00
C19    C     0.97707   0.61181   0.54768   0.00000  Uiso   1.00
C20    C     0.95229   0.50433   0.52355   0.00000  Uiso   1.00
C21    C     0.95139   0.29345   0.46715   0.00000  Uiso   1.00
C22    C     0.90156   0.29518   0.46081   0.00000  Uiso   1.00
C23    C     0.87649   0.39989   0.48971   0.00000  Uiso   1.00
C24    C     0.90177   0.50402   0.52098   0.00000  Uiso   1.00
C25    C     0.87596   0.60785   0.54976   0.00000  Uiso   1.00
C26    C     0.82571   0.60601   0.54849   0.00000  Uiso   1.00
N2     N     0.80170   0.50339   0.51671   0.00000  Uiso   1.00
C27    C     0.82622   0.40109   0.48667   0.00000  Uiso   1.00
C28    C     0.72474   0.52766   0.63830   0.00000  Uiso   1.00
C29    C     0.67468   0.52743   0.63860   0.00000  Uiso   1.00
C30    C     0.67461   0.48044   0.39381   0.00000  Uiso   1.00
C31    C     0.72471   0.47876   0.39437   0.00000  Uiso   1.00
C32    C     0.74992   0.50300   0.51643   0.00000  Uiso   1.00
O10    O     0.80153   0.29920   0.45731   0.00000  Uiso   1.00
C33    C     0.02827   0.39633   0.51437   0.00000  Uiso   1.00
C34    C     0.05310   0.50507   0.52851   0.00000  Uiso   1.00
C35    C     0.02784   0.61341   0.54032   0.00000  Uiso   1.00
C36    C     0.05494   0.28905   0.51416   0.00000  Uiso   1.00
H4     H     0.65582   0.54667   0.73553   0.00000  Uiso   1.00
H5     H     0.74421   0.54586   0.73459   0.00000  Uiso   1.00
H6     H     0.88279   0.21265   0.43305   0.00000  Uiso   1.00
H7     H     0.96815   0.20899   0.43879   0.00000  Uiso   1.00
H8     H     0.03855   0.20069   0.51397   0.00000  Uiso   1.00
O11    O     0.20397   0.71693   0.54046   0.00000  Uiso   1.00
C37    C     0.10402   0.72056   0.54046   0.00000  Uiso   1.00
H9     H     0.25823   0.59105   0.32977   0.00000  Uiso   1.00
H10    H     0.12289   0.80634   0.54202   0.00000  Uiso   1.00
C38    C     0.95027   0.71519   0.57993   0.00000  Uiso   1.00
C39    C     0.90043   0.71285   0.58117   0.00000  Uiso   1.00
O12    O     0.80055   0.70758   0.57598   0.00000  Uiso   1.00
C40    C     0.05417   0.72115   0.54295   0.00000  Uiso   1.00
H11    H     0.96648   0.79982   0.61014   0.00000  Uiso   1.00
H12    H     0.65562   0.46176   0.29691   0.00000  Uiso   1.00
H13    H     0.88118   0.79512   0.60719   0.00000  Uiso   1.00
H14    H     0.74417   0.46024   0.29817   0.00000  Uiso   1.00
H15    H     0.03757   0.80925   0.54167   0.00000  Uiso   1.00
C41    C     0.50089   0.93752   0.40824   0.00000  Uiso   1.00
C42    C     0.50237   0.87113   0.52608   0.00000  Uiso   1.00
H16    H     0.49974   0.89188   0.30761   0.00000  Uiso   1.00
H17    H     0.50322   0.91168   0.62905   0.00000  Uiso   1.00
C43    C     0.50048   0.07178   0.40540   0.00000  Uiso   1.00
C44    C     0.50307   0.14066   0.52065   0.00000  Uiso   1.00
H18    H     0.49812   0.11507   0.30357   0.00000  Uiso   1.00
H19    H     0.50578   0.10177   0.62413   0.00000  Uiso   1.00
C45    C     0.46966   0.45342   0.94178   0.00000  Uiso   1.00
N3     N     0.50400   0.50144   0.86912   0.00000  Uiso   1.00
H20    H     0.43770   0.41808   0.88967   0.00000  Uiso   1.00
H21    H     0.53675   0.51256   0.91923   0.00000  Uiso   1.00
C46    C     0.47388   0.43937   0.09586   0.00000  Uiso   1.00
N4     N     0.50143   0.50935   0.16849   0.00000  Uiso   1.00
H22    H     0.45214   0.37116   0.14815   0.00000  Uiso   1.00
H23    H     0.51416   0.58541   0.11848   0.00000  Uiso   1.00
O13    O     0.35365   0.60826   0.30283   0.00000  Uiso   1.00
C47    C     0.33820   0.70629   0.23059   0.00000  Uiso   1.00
O14    O     0.30807   0.77482   0.28060   0.00000  Uiso   1.00
C48    C     0.36147   0.73701   0.09410   0.00000  Uiso   1.00
H24    H     0.38895   0.66721   0.06768   0.00000  Uiso   1.00
H25    H     0.37937   0.82671   0.10235   0.00000  Uiso   1.00
H26    H     0.33340   0.74001   0.01067   0.00000  Uiso   1.00
