data_DB0-m3_o11_o26_f0_pcu.sym.36_repeat
_audit_creation_date              2024-02-23
_audit_creation_method            'Materials Studio'
_symmetry_space_group_name_H-M    'P1'
_symmetry_Int_Tables_number       1
_symmetry_cell_setting            triclinic
loop_
_symmetry_equiv_pos_as_xyz
  x,y,z
_cell_length_a                    9.9142
_cell_length_b                    11.1335
_cell_length_c                    17.4390
_cell_angle_alpha                 90.0068
_cell_angle_beta                  86.2271
_cell_angle_gamma                 89.9974
loop_
_atom_site_label
_atom_site_type_symbol
_atom_site_fract_x
_atom_site_fract_y
_atom_site_fract_z
_atom_site_U_iso_or_equiv
_atom_site_adp_type
_atom_site_occupancy
O1     O     0.36929   0.66548   0.50256   0.00000  Uiso   1.00
O2     O     0.60162   0.66487   0.50259   0.00000  Uiso   1.00
C1     C     0.48520   0.72124   0.50331   0.00000  Uiso   1.00
O3     O     0.34927   0.48340   0.61545   0.00000  Uiso   1.00
O4     O     0.58144   0.48232   0.61546   0.00000  Uiso   1.00
C2     C     0.46125   0.48217   0.65152   0.00000  Uiso   1.00
Zn1    Zn    0.32875   0.48739   0.50064   0.00000  Uiso   1.00
Zn2    Zn    0.63553   0.48524   0.50142   0.00000  Uiso   1.00
O5     O     0.36236   0.30791   0.49872   0.00000  Uiso   1.00
O6     O     0.59564   0.30682   0.49886   0.00000  Uiso   1.00
O7     O     0.38234   0.48920   0.38659   0.00000  Uiso   1.00
O8     O     0.61549   0.48814   0.38648   0.00000  Uiso   1.00
C3     C     0.47871   0.25142   0.49842   0.00000  Uiso   1.00
C4     C     0.50279   0.48985   0.35057   0.00000  Uiso   1.00
C5     C     0.45232   0.47950   0.73585   0.00000  Uiso   1.00
C6     C     0.56782   0.46736   0.77519   0.00000  Uiso   1.00
C7     C     0.55948   0.46313   0.85426   0.00000  Uiso   1.00
C8     C     0.43602   0.47312   0.89571   0.00000  Uiso   1.00
C9     C     0.31914   0.48744   0.85613   0.00000  Uiso   1.00
C10    C     0.32860   0.48889   0.77662   0.00000  Uiso   1.00
C11    C     0.39560   0.49183   0.14933   0.00000  Uiso   1.00
C12    C     0.39174   0.48775   0.22833   0.00000  Uiso   1.00
C13    C     0.63215   0.50247   0.22394   0.00000  Uiso   1.00
C14    C     0.63579   0.50744   0.14467   0.00000  Uiso   1.00
C15    C     0.51796   0.50046   0.10675   0.00000  Uiso   1.00
C16    C     0.43026   0.46164   0.98014   0.00000  Uiso   1.00
C17    C     0.52529   0.50884   0.02226   0.00000  Uiso   1.00
C18    C     0.50978   0.49260   0.26626   0.00000  Uiso   1.00
H1     H     0.66589   0.45844   0.74486   0.00000  Uiso   1.00
H2     H     0.29430   0.48160   0.25965   0.00000  Uiso   1.00
H3     H     0.72584   0.50760   0.25213   0.00000  Uiso   1.00
H4     H     0.61075   0.55580   0.99440   0.00000  Uiso   1.00
H5     H     0.30077   0.49200   0.12228   0.00000  Uiso   1.00
H6     H     0.23754   0.49826   0.74638   0.00000  Uiso   1.00
H7     H     0.34833   0.41040   0.00792   0.00000  Uiso   1.00
H8     H     0.65120   0.44809   0.88303   0.00000  Uiso   1.00
H9     H     0.73198   0.51599   0.11218   0.00000  Uiso   1.00
C19    C     0.58858   0.05407   0.50055   0.00000  Uiso   1.00
C20    C     0.47571   0.11980   0.49722   0.00000  Uiso   1.00
H10    H     0.68493   0.09932   0.50305   0.00000  Uiso   1.00
H11    H     0.37755   0.07928   0.49335   0.00000  Uiso   1.00
C21    C     0.59137   0.92096   0.50023   0.00000  Uiso   1.00
C22    C     0.48011   0.85271   0.50444   0.00000  Uiso   1.00
H12    H     0.68966   0.87802   0.49707   0.00000  Uiso   1.00
H13    H     0.38017   0.89142   0.50890   0.00000  Uiso   1.00
C23    C     0.06127   0.41372   0.45988   0.00000  Uiso   1.00
N1     N     0.12739   0.49016   0.49796   0.00000  Uiso   1.00
H14    H     0.11535   0.34176   0.42938   0.00000  Uiso   1.00
H15    H     0.07665   0.56602   0.51692   0.00000  Uiso   1.00
C24    C     0.91362   0.42477   0.45292   0.00000  Uiso   1.00
N2     N     0.83699   0.48113   0.50321   0.00000  Uiso   1.00
H16    H     0.86879   0.37987   0.40567   0.00000  Uiso   1.00
H17    H     0.87964   0.50785   0.55249   0.00000  Uiso   1.00
C25    C     0.18135   0.50516   0.89557   0.00000  Uiso   1.00
C26    C     0.12437   0.62211   0.87135   0.00000  Uiso   1.00
C27    C     0.00743   0.62535   0.83241   0.00000  Uiso   1.00
C28    C     0.95530   0.73401   0.81056   0.00000  Uiso   1.00
C29    C     0.01947   0.83957   0.82768   0.00000  Uiso   1.00
C30    C     0.13580   0.83655   0.86678   0.00000  Uiso   1.00
C31    C     0.18815   0.72801   0.88866   0.00000  Uiso   1.00
H18    H     0.18120   0.50650   0.95885   0.00000  Uiso   1.00
H19    H     0.11519   0.43053   0.87900   0.00000  Uiso   1.00
H20    H     0.95608   0.54324   0.81866   0.00000  Uiso   1.00
H21    H     0.86394   0.73641   0.78000   0.00000  Uiso   1.00
H22    H     0.97845   0.92468   0.81055   0.00000  Uiso   1.00
H23    H     0.18593   0.91934   0.88039   0.00000  Uiso   1.00
H24    H     0.27904   0.72637   0.91966   0.00000  Uiso   1.00
