# Generated by REPEAT Assigner based on pymatgen
data_DB0-m2_o2_o22_f0_nbo.sym.49
_audit_creation_date              2022-05-24
_audit_creation_method            REPEAT_Assigner
_cell_length_a                    36.616403
_cell_length_b                    30.114898
_cell_length_c                    21.256519
_cell_angle_alpha                 90.000000
_cell_angle_beta                  55.112011
_cell_angle_gamma                 90.000000
_cell_volume                      19226.800330
_symmetry_space_group_name_H-M    P1
_symmetry_Int_Tables_number       1
loop_
    _symmetry_equiv_pos_site_id
    _symmetry_equiv_pos_as_xyz
    1  x,y,z
loop_
    _atom_site_type_symbol
    _atom_site_label
    _atom_site_fract_x
    _atom_site_fract_y
    _atom_site_fract_z
    _atom_type_partial_charge
    C   C1    0.915786  0.496962  0.592189  0.659490
    C   C2    0.025420  0.541981  0.686212  -0.154705
    C   C3    0.415569  0.504441  0.081523  0.649748
    C   C4    0.084431  0.004441  0.918477  0.649744
    C   C5    0.915569  0.004441  0.081523  0.649690
    C   C6    0.500000  0.588800  0.000000  0.742451
    C   C7    0.000000  0.088800  0.000000  0.742512
    C   C8    0.037262  0.706890  0.942345  -0.380399
    C   C9    0.962738  0.706890  0.057655  -0.380398
    C   C10   0.537262  0.206890  0.942345  -0.380372
    C   C11   0.462738  0.206890  0.057655  -0.380369
    C   C12   0.037448  0.661078  0.944635  0.036564
    C   C13   0.474580  0.041981  0.313788  -0.154650
    C   C14   0.962552  0.661078  0.055365  0.036634
    C   C15   0.537448  0.161078  0.944635  0.036526
    C   C16   0.462552  0.161078  0.055365  0.036630
    C   C17   0.000000  0.638125  0.000000  0.128873
    C   C18   0.500000  0.138125  0.000000  0.128933
    C   C19   0.000000  0.730268  0.000000  0.352301
    C   C20   0.500000  0.230268  0.000000  0.352284
    C   C21   0.469306  0.301963  0.995037  0.023875
    C   C22   0.530694  0.301963  0.004963  0.023917
    C   C23   0.969306  0.801963  0.995037  0.023873
    C   C24   0.525420  0.041981  0.686212  -0.154660
    C   C25   0.030694  0.801963  0.004963  0.023904
    C   C26   0.468498  0.347800  0.995829  -0.156932
    C   C27   0.531502  0.347800  0.004171  -0.157018
    C   C28   0.968498  0.847800  0.995829  -0.156911
    C   C29   0.031502  0.847800  0.004171  -0.156982
    C   C30   0.500000  0.371422  0.000000  0.089783
    C   C31   0.000000  0.871422  0.000000  0.089709
    C   C32   0.500000  0.279012  0.000000  -0.197986
    C   C33   0.000000  0.779012  0.000000  -0.197969
    C   C34   0.038929  0.301326  0.972668  -0.207519
    C   C35   0.970576  0.541781  0.246783  -0.123182
    C   C36   0.961071  0.301326  0.027332  -0.207530
    C   C37   0.538929  0.801326  0.972668  -0.207503
    C   C38   0.461071  0.801326  0.027332  -0.207516
    C   C39   0.039052  0.347104  0.971863  0.004274
    C   C40   0.960948  0.347104  0.028137  0.004267
    C   C41   0.539052  0.847104  0.971863  0.004253
    C   C42   0.460948  0.847104  0.028137  0.004259
    C   C43   0.000000  0.370249  0.000000  -0.100850
    C   C44   0.500000  0.870249  0.000000  -0.100832
    C   C45   0.000000  0.278195  0.000000  0.137594
    C   C46   0.029424  0.541781  0.753217  -0.123363
    C   C47   0.500000  0.778195  0.000000  0.137608
    C   C48   0.478073  0.706380  0.974832  -0.158421
    C   C49   0.521927  0.706380  0.025168  -0.158508
    C   C50   0.978073  0.206380  0.974832  -0.158510
    C   C51   0.021927  0.206380  0.025168  -0.158508
    C   C52   0.478489  0.660601  0.973995  -0.091893
    C   C53   0.521511  0.660601  0.026005  -0.091851
    C   C54   0.978489  0.160601  0.973995  -0.091840
    C   C55   0.021511  0.160601  0.026005  -0.091843
    C   C56   0.500000  0.637460  0.000000  -0.060383
    C   C57   0.470576  0.041781  0.246783  -0.123259
    C   C58   0.000000  0.137460  0.000000  -0.060421
    C   C59   0.500000  0.729511  0.000000  0.107094
    C   C60   0.000000  0.229511  0.000000  0.107142
    C   C61   0.861415  0.419940  0.692136  0.777582
    C   C62   0.855971  0.342536  0.714900  -0.016386
    C   C63   0.138585  0.419940  0.307864  0.777487
    C   C64   0.144029  0.342536  0.285100  -0.016376
    C   C65   0.361415  0.919940  0.692136  0.777574
    C   C66   0.355971  0.842536  0.714900  -0.016370
    C   C67   0.638585  0.919940  0.307864  0.777486
    C   C68   0.529424  0.041781  0.753217  -0.123239
    C   C69   0.644029  0.842536  0.285100  -0.016372
    C   C70   0.779552  0.584394  0.704679  0.772486
    C   C71   0.721450  0.636376  0.777538  -0.008131
    C   C72   0.220448  0.584394  0.295321  0.772504
    C   C73   0.278550  0.636376  0.222462  -0.008082
    C   C74   0.279552  0.084394  0.704679  0.772473
    C   C75   0.221450  0.136376  0.777538  -0.008134
    C   C76   0.720448  0.084394  0.295321  0.772492
    C   C77   0.778550  0.136376  0.222462  -0.008076
    C   C78   0.076545  0.729088  0.876375  0.821314
    C   C79   0.042360  0.495357  0.246444  -0.162530
    C   C80   0.108848  0.788597  0.787825  -0.029076
    C   C81   0.923455  0.729088  0.123625  0.821299
    C   C82   0.891152  0.788597  0.212175  -0.029194
    C   C83   0.576545  0.229088  0.876375  0.821308
    C   C84   0.608848  0.288597  0.787825  -0.029092
    C   C85   0.423455  0.229088  0.123625  0.821279
    C   C86   0.391152  0.288597  0.212175  -0.029206
    C   C87   0.432398  0.369089  0.995304  0.612772
    C   C88   0.359949  0.364986  0.023191  -0.084878
    C   C89   0.567602  0.369089  0.004696  0.612820
    C   C90   0.957640  0.495357  0.753556  -0.162468
    C   C91   0.640051  0.364986  0.976809  -0.084919
    C   C92   0.932398  0.869089  0.995304  0.612757
    C   C93   0.859949  0.864986  0.023191  -0.084880
    C   C94   0.067602  0.869089  0.004696  0.612806
    C   C95   0.140051  0.864986  0.976809  -0.084923
    C   C96   0.984999  0.586656  0.209226  0.595486
    C   C97   0.040200  0.633060  0.110597  -0.100531
    C   C98   0.015001  0.586656  0.790774  0.595587
    C   C99   0.959801  0.633060  0.889403  -0.100709
    C   C100  0.484999  0.086656  0.209226  0.595488
    C   C101  0.542360  0.995357  0.246444  -0.162557
    C   C102  0.540200  0.133060  0.110597  -0.100575
    C   C103  0.515001  0.086656  0.790774  0.595466
    C   C104  0.459801  0.133060  0.889403  -0.100730
    C   C105  0.934000  0.444652  0.245678  0.768624
    C   C106  0.858043  0.455839  0.295796  -0.107817
    C   C107  0.066000  0.444652  0.754322  0.768637
    C   C108  0.141957  0.455839  0.704204  -0.108028
    C   C109  0.434000  0.944652  0.245678  0.768661
    C   C110  0.358043  0.955839  0.295796  -0.107806
    C   C111  0.566000  0.944652  0.754322  0.768628
    C   C112  0.084214  0.496962  0.407811  0.659564
    C   C113  0.457640  0.995357  0.753556  -0.162466
    C   C114  0.641957  0.955839  0.704204  -0.107804
    C   C115  0.967825  0.460396  0.316151  -0.222504
    C   C116  0.032175  0.460396  0.683849  -0.222474
    C   C117  0.467825  0.960396  0.316151  -0.222577
    C   C118  0.532175  0.960396  0.683849  -0.222500
    C   C119  0.994672  0.498588  0.316376  0.508479
    C   C120  0.005328  0.498588  0.683624  0.508553
    C   C121  0.494672  0.998588  0.316376  0.508766
    C   C122  0.505328  0.998588  0.683624  0.508644
    C   C123  0.996601  0.501994  0.194694  -0.028285
    C   C124  0.415786  0.996962  0.592189  0.659444
    C   C125  0.003399  0.501994  0.805306  -0.028270
    C   C126  0.496601  0.001994  0.194694  -0.028220
    C   C127  0.503399  0.001994  0.805306  -0.028418
    C   C128  0.043968  0.502054  0.174300  0.050272
    C   C129  0.956032  0.502054  0.825700  0.050263
    C   C130  0.543968  0.002054  0.174300  0.050305
    C   C131  0.456032  0.002054  0.825700  0.050277
    C   C132  0.975741  0.458193  0.237984  -0.104617
    C   C133  0.024259  0.458193  0.762016  -0.104613
    C   C134  0.475741  0.958193  0.237984  -0.104678
    C   C135  0.584214  0.996962  0.407811  0.659552
    C   C136  0.524259  0.958193  0.762016  -0.104605
    C   C137  0.795691  0.464283  0.731575  -0.082856
    C   C138  0.204309  0.464283  0.268425  -0.082883
    C   C139  0.295691  0.964283  0.731575  -0.082855
    C   C140  0.704309  0.964283  0.268425  -0.082886
    C   C141  0.841602  0.461295  0.687565  -0.266171
    C   C142  0.158398  0.461295  0.312435  -0.266118
    C   C143  0.341602  0.961295  0.687565  -0.266173
    C   C144  0.658398  0.961295  0.312435  -0.266119
    C   C145  0.866918  0.497898  0.644683  0.055707
    C   C146  0.994587  0.497273  0.386494  0.483715
    C   C147  0.133082  0.497898  0.355317  0.055648
    C   C148  0.366918  0.997898  0.644683  0.055703
    C   C149  0.633082  0.997898  0.355317  0.055633
    C   C150  0.845585  0.537124  0.650483  -0.045910
    C   C151  0.154415  0.537124  0.349517  -0.045886
    C   C152  0.345585  0.037124  0.650483  -0.045904
    C   C153  0.654415  0.037124  0.349517  -0.045873
    C   C154  0.799703  0.540565  0.696850  -0.264327
    C   C155  0.200297  0.540565  0.303150  -0.264359
    C   C156  0.299703  0.040565  0.696850  -0.264337
    C   C157  0.005413  0.497273  0.613506  0.483613
    C   C158  0.700297  0.040565  0.303150  -0.264375
    C   C159  0.774461  0.503305  0.736396  0.192956
    C   C160  0.225540  0.503305  0.263604  0.192903
    C   C161  0.274461  0.003305  0.736396  0.192979
    C   C162  0.725540  0.003305  0.263604  0.192932
    C   C163  0.703212  0.514234  0.750211  -0.083340
    C   C164  0.296788  0.514234  0.249789  -0.083315
    C   C165  0.203212  0.014234  0.750211  -0.083314
    C   C166  0.796788  0.014234  0.249789  -0.083289
    C   C167  0.657298  0.514688  0.794275  -0.064772
    C   C168  0.494587  0.997273  0.386494  0.483550
    C   C169  0.342702  0.514688  0.205725  -0.064815
    C   C170  0.157298  0.014688  0.794275  -0.064784
    C   C171  0.842702  0.014688  0.205725  -0.064837
    C   C172  0.633296  0.503889  0.871318  -0.071226
    C   C173  0.366704  0.503889  0.128682  -0.071216
    C   C174  0.133296  0.003889  0.871318  -0.071210
    C   C175  0.866704  0.003889  0.128682  -0.071176
    C   C176  0.655822  0.492264  0.903433  -0.012094
    C   C177  0.344178  0.492264  0.096567  -0.012073
    C   C178  0.155822  0.992264  0.903433  -0.012081
    C   C179  0.505413  0.997273  0.613506  0.483572
    C   C180  0.844178  0.992264  0.096567  -0.012070
    C   C181  0.701722  0.491867  0.859245  -0.137441
    C   C182  0.298278  0.491867  0.140755  -0.137490
    C   C183  0.201722  0.991867  0.859245  -0.137444
    C   C184  0.798278  0.991867  0.140755  -0.137491
    C   C185  0.725624  0.503540  0.782804  -0.046407
    C   C186  0.274376  0.503540  0.217196  -0.046300
    C   C187  0.225624  0.003540  0.782804  -0.046441
    C   C188  0.774376  0.003540  0.217196  -0.046333
    C   C189  0.000000  0.589548  0.000000  0.491981
    C   C190  0.974580  0.541981  0.313788  -0.154662
    C   C191  0.500000  0.089548  0.000000  0.491893
    C   C192  0.997651  0.503157  0.123160  0.576631
    C   C193  0.002349  0.503157  0.876840  0.576639
    C   C194  0.497651  0.003157  0.123160  0.576574
    C   C195  0.502349  0.003157  0.876840  0.576676
    C   C196  0.000000  0.418907  0.000000  0.624906
    C   C197  0.500000  0.918907  0.000000  0.624828
    C   C198  0.500000  0.420317  0.000000  0.691341
    C   C199  0.000000  0.920317  0.000000  0.691410
    C   C200  0.584431  0.504441  0.918477  0.649773
    Cu  Cu1   0.000000  0.540507  0.500000  0.984845
    Cu  Cu2   0.499336  0.504604  0.062038  0.980502
    Cu  Cu3   0.000664  0.004604  0.937962  0.980480
    Cu  Cu4   0.999336  0.004604  0.062038  0.980488
    Cu  Cu5   0.500000  0.040507  0.500000  0.984819
    Cu  Cu6   0.000000  0.453889  0.500000  1.000593
    Cu  Cu7   0.500000  0.953889  0.500000  1.000578
    Cu  Cu8   0.955651  0.504249  0.042193  0.959799
    Cu  Cu9   0.044349  0.504249  0.957807  0.959745
    Cu  Cu10  0.455651  0.004249  0.042193  0.959765
    Cu  Cu11  0.544349  0.004249  0.957807  0.959593
    Cu  Cu12  0.500664  0.504604  0.937962  0.980496
    H   H1    0.996430  0.569872  0.306746  0.055040
    H   H2    0.064998  0.538363  0.730404  0.047430
    H   H3    0.610964  0.835444  0.338653  0.064160
    H   H4    0.689286  0.638455  0.834671  0.069984
    H   H5    0.715316  0.640774  0.732499  0.064169
    H   H6    0.743927  0.662897  0.772804  0.059965
    H   H7    0.310714  0.638455  0.165329  0.069975
    H   H8    0.284684  0.640774  0.267501  0.064156
    H   H9    0.256073  0.662897  0.227196  0.059956
    H   H10   0.189286  0.138455  0.834671  0.069982
    H   H11   0.215316  0.140774  0.732499  0.064168
    H   H12   0.243927  0.162897  0.772804  0.059966
    H   H13   0.435002  0.038363  0.269597  0.047389
    H   H14   0.810714  0.138455  0.165329  0.069969
    H   H15   0.784684  0.140774  0.267501  0.064154
    H   H16   0.756073  0.162897  0.227196  0.059955
    H   H17   0.098012  0.819568  0.774801  0.077138
    H   H18   0.125423  0.766746  0.736615  0.083979
    H   H19   0.132408  0.797148  0.802941  0.040410
    H   H20   0.901988  0.819568  0.225199  0.077163
    H   H21   0.874577  0.766746  0.263385  0.084026
    H   H22   0.867592  0.797148  0.197059  0.040436
    H   H23   0.598012  0.319568  0.774801  0.077141
    H   H24   0.564998  0.038363  0.730403  0.047398
    H   H25   0.625423  0.266746  0.736615  0.083984
    H   H26   0.632408  0.297148  0.802941  0.040412
    H   H27   0.401988  0.319568  0.225199  0.077163
    H   H28   0.374577  0.266746  0.263385  0.084028
    H   H29   0.367592  0.297148  0.197059  0.040438
    H   H30   0.331983  0.341009  0.048334  0.096023
    H   H31   0.371313  0.372671  0.963547  0.079185
    H   H32   0.348284  0.395710  0.058220  0.076089
    H   H33   0.668017  0.341009  0.951666  0.096027
    H   H34   0.628687  0.372671  0.036453  0.079188
    H   H35   0.062916  0.521152  0.249484  0.010738
    H   H36   0.651715  0.395710  0.941780  0.076094
    H   H37   0.831983  0.841009  0.048334  0.096022
    H   H38   0.871313  0.872671  0.963547  0.079185
    H   H39   0.848284  0.895710  0.058220  0.076092
    H   H40   0.168017  0.841009  0.951666  0.096028
    H   H41   0.128687  0.872671  0.036453  0.079188
    H   H42   0.151715  0.895710  0.941780  0.076097
    H   H43   0.068731  0.630402  0.049599  0.069908
    H   H44   0.052340  0.645275  0.144771  0.081479
    H   H45   0.015568  0.656826  0.115624  0.035930
    H   H46   0.937084  0.521152  0.750516  0.010736
    H   H47   0.931269  0.630402  0.950401  0.069909
    H   H48   0.947660  0.645275  0.855229  0.081453
    H   H49   0.984432  0.656826  0.884376  0.036038
    H   H50   0.568731  0.130402  0.049599  0.069913
    H   H51   0.552340  0.145275  0.144771  0.081503
    H   H52   0.515568  0.156826  0.115624  0.035909
    H   H53   0.431269  0.130402  0.950401  0.069908
    H   H54   0.447660  0.145275  0.855229  0.081465
    H   H55   0.484432  0.156826  0.884376  0.036034
    H   H56   0.831071  0.479701  0.333585  0.091785
    H   H57   0.562916  0.021152  0.249484  0.010744
    H   H58   0.847826  0.422167  0.321333  0.073899
    H   H59   0.863976  0.456001  0.238435  0.080332
    H   H60   0.168929  0.479701  0.666415  0.091830
    H   H61   0.152174  0.422167  0.678667  0.073951
    H   H62   0.136024  0.456001  0.761565  0.080412
    H   H63   0.331071  0.979701  0.333585  0.091783
    H   H64   0.347826  0.922167  0.321333  0.073894
    H   H65   0.363976  0.956001  0.238435  0.080324
    H   H66   0.668929  0.979701  0.666415  0.091771
    H   H67   0.652174  0.922167  0.678667  0.073882
    H   H68   0.437084  0.021152  0.750516  0.010737
    H   H69   0.636024  0.956001  0.761565  0.080371
    H   H70   0.061914  0.533286  0.146656  0.004392
    H   H71   0.938086  0.533286  0.853344  0.004405
    H   H72   0.561914  0.033286  0.146656  0.004377
    H   H73   0.003570  0.569872  0.693255  0.055000
    H   H74   0.438086  0.033286  0.853344  0.004401
    H   H75   0.978484  0.428499  0.326853  0.062795
    H   H76   0.021516  0.428499  0.673147  0.062780
    H   H77   0.478484  0.928499  0.326853  0.062808
    H   H78   0.521516  0.928499  0.673147  0.062786
    H   H79   0.932090  0.465703  0.361892  0.004050
    H   H80   0.067910  0.465703  0.638108  0.004048
    H   H81   0.432090  0.965703  0.361892  0.004041
    H   H82   0.567910  0.965703  0.638108  0.004038
    H   H83   0.000265  0.431391  0.205016  0.061338
    H   H84   0.496430  0.069872  0.306746  0.054964
    H   H85   0.999735  0.431391  0.794983  0.061337
    H   H86   0.500265  0.931391  0.205016  0.061341
    H   H87   0.499735  0.931391  0.794983  0.061348
    H   H88   0.056103  0.462186  0.244584  0.052781
    H   H89   0.943897  0.462186  0.755416  0.052717
    H   H90   0.556103  0.962186  0.244584  0.052751
    H   H91   0.443897  0.962186  0.755416  0.052702
    H   H92   0.063525  0.474414  0.134381  0.032850
    H   H93   0.936475  0.474414  0.865619  0.032859
    H   H94   0.563525  0.974414  0.134381  0.032846
    H   H95   0.503570  0.069872  0.693254  0.054971
    H   H96   0.436475  0.974414  0.865619  0.032868
    H   H97   0.775785  0.435821  0.764078  0.089054
    H   H98   0.224215  0.435821  0.235922  0.089069
    H   H99   0.275785  0.935821  0.764078  0.089054
    H   H100  0.724215  0.935821  0.235922  0.089068
    H   H101  0.865306  0.565758  0.618429  0.126914
    H   H102  0.134694  0.565758  0.381571  0.126908
    H   H103  0.365306  0.065758  0.618429  0.126912
    H   H104  0.634694  0.065758  0.381571  0.126904
    H   H105  0.721615  0.522504  0.689981  0.098808
    H   H106  0.940899  0.546650  0.367356  0.068548
    H   H107  0.278385  0.522504  0.310019  0.098828
    H   H108  0.221615  0.022504  0.689981  0.098804
    H   H109  0.778385  0.022504  0.310019  0.098825
    H   H110  0.640607  0.523519  0.767474  0.101690
    H   H111  0.359393  0.523519  0.232526  0.101687
    H   H112  0.140607  0.023519  0.767474  0.101686
    H   H113  0.859393  0.023519  0.232526  0.101687
    H   H114  0.637974  0.483504  0.963363  0.089206
    H   H115  0.362026  0.483504  0.036637  0.089205
    H   H116  0.137974  0.983504  0.963363  0.089200
    H   H117  0.059101  0.546650  0.632644  0.068566
    H   H118  0.862026  0.983504  0.036637  0.089202
    H   H119  0.718899  0.483128  0.885256  0.099091
    H   H120  0.281101  0.483128  0.114744  0.099094
    H   H121  0.218899  0.983128  0.885256  0.099094
    H   H122  0.781101  0.983128  0.114744  0.099096
    H   H123  0.066263  0.643003  0.899883  0.101554
    H   H124  0.933737  0.643003  0.100117  0.101544
    H   H125  0.566263  0.143003  0.899883  0.101557
    H   H126  0.433737  0.143003  0.100117  0.101534
    H   H127  0.445691  0.283456  0.990335  0.053534
    H   H128  0.440899  0.046650  0.367356  0.068548
    H   H129  0.554309  0.283456  0.009665  0.053522
    H   H130  0.945691  0.783456  0.990335  0.053534
    H   H131  0.054309  0.783456  0.009665  0.053524
    H   H132  0.069831  0.283794  0.950056  0.117381
    H   H133  0.930169  0.283794  0.049944  0.117384
    H   H134  0.569831  0.783794  0.950056  0.117380
    H   H135  0.430169  0.783794  0.049944  0.117385
    H   H136  0.070001  0.364421  0.949699  0.092930
    H   H137  0.929999  0.364421  0.050301  0.092937
    H   H138  0.570001  0.864421  0.949699  0.092925
    H   H139  0.559101  0.046650  0.632644  0.068558
    H   H140  0.429999  0.864421  0.050301  0.092938
    H   H141  0.461255  0.723912  0.953944  0.108357
    H   H142  0.538745  0.723912  0.046056  0.108399
    H   H143  0.961255  0.223912  0.953944  0.108401
    H   H144  0.038745  0.223912  0.046056  0.108398
    H   H145  0.461299  0.643261  0.953646  0.127507
    H   H146  0.538701  0.643261  0.046354  0.127498
    H   H147  0.961299  0.143261  0.953646  0.127493
    H   H148  0.038701  0.143261  0.046354  0.127498
    H   H149  0.832943  0.314884  0.726283  0.086509
    H   H150  0.935002  0.538363  0.269597  0.047383
    H   H151  0.859010  0.345440  0.763756  0.060414
    H   H152  0.889036  0.335444  0.661347  0.064180
    H   H153  0.167057  0.314884  0.273717  0.086503
    H   H154  0.140990  0.345440  0.236244  0.060426
    H   H155  0.110964  0.335444  0.338653  0.064160
    H   H156  0.332943  0.814884  0.726283  0.086503
    H   H157  0.359010  0.845440  0.763756  0.060412
    H   H158  0.389036  0.835444  0.661347  0.064176
    H   H159  0.667057  0.814884  0.273717  0.086500
    H   H160  0.640990  0.845440  0.236244  0.060426
    O   O1    0.937541  0.533722  0.585244  -0.587956
    O   O2    0.016771  0.533727  0.571717  -0.611909
    O   O3    0.483229  0.033727  0.428283  -0.611924
    O   O4    0.516771  0.033727  0.571717  -0.611919
    O   O5    0.008308  0.460662  0.401185  -0.567959
    O   O6    0.991692  0.460662  0.598815  -0.567878
    O   O7    0.508308  0.960662  0.401185  -0.567949
    O   O8    0.491692  0.960662  0.598815  -0.567889
    O   O9    0.961580  0.568803  0.038598  -0.549452
    O   O10   0.038420  0.568803  0.961402  -0.549438
    O   O11   0.461580  0.068803  0.038598  -0.549413
    O   O12   0.062459  0.533722  0.414756  -0.587968
    O   O13   0.538420  0.068803  0.961402  -0.549363
    O   O14   0.959915  0.506300  0.129600  -0.548759
    O   O15   0.040085  0.506300  0.870400  -0.548734
    O   O16   0.459915  0.006300  0.129600  -0.548743
    O   O17   0.540085  0.006300  0.870400  -0.548714
    O   O18   0.036455  0.505400  0.056773  -0.648953
    O   O19   0.963545  0.505400  0.943227  -0.649001
    O   O20   0.536455  0.005400  0.056773  -0.648915
    O   O21   0.463545  0.005400  0.943227  -0.648986
    O   O22   0.961659  0.439719  0.039621  -0.531897
    O   O23   0.437541  0.033722  0.585244  -0.587901
    O   O24   0.038341  0.439719  0.960379  -0.531890
    O   O25   0.461659  0.939719  0.039621  -0.531850
    O   O26   0.538341  0.939719  0.960379  -0.531794
    O   O27   0.512941  0.441257  0.935712  -0.615924
    O   O28   0.487059  0.441257  0.064288  -0.615943
    O   O29   0.012941  0.941257  0.935712  -0.615916
    O   O30   0.987059  0.941257  0.064288  -0.615933
    O   O31   0.564065  0.516912  0.886337  -0.581479
    O   O32   0.435935  0.516912  0.113663  -0.581457
    O   O33   0.064065  0.016912  0.886337  -0.581455
    O   O34   0.562459  0.033722  0.414756  -0.587930
    O   O35   0.935935  0.016912  0.113663  -0.581432
    O   O36   0.562856  0.492320  0.991116  -0.538872
    O   O37   0.437144  0.492320  0.008884  -0.538871
    O   O38   0.062856  0.992320  0.991116  -0.538885
    O   O39   0.937144  0.992320  0.008884  -0.538879
    O   O40   0.488202  0.567933  0.959549  -0.643990
    O   O41   0.511798  0.567933  0.040451  -0.644019
    O   O42   0.988202  0.067933  0.959549  -0.644017
    O   O43   0.011798  0.067933  0.040451  -0.644038
    O   O44   0.895771  0.420833  0.688840  -0.497225
    O   O45   0.935797  0.460685  0.551544  -0.583632
    O   O46   0.839337  0.381283  0.706887  -0.342595
    O   O47   0.104229  0.420833  0.311159  -0.497135
    O   O48   0.160663  0.381283  0.293113  -0.342584
    O   O49   0.395771  0.920833  0.688840  -0.497214
    O   O50   0.339337  0.881283  0.706887  -0.342596
    O   O51   0.604229  0.920833  0.311159  -0.497124
    O   O52   0.660663  0.881283  0.293113  -0.342583
    O   O53   0.799817  0.611767  0.653608  -0.535295
    O   O54   0.740256  0.595588  0.769666  -0.305199
    O   O55   0.200183  0.611767  0.346392  -0.535295
    O   O56   0.064203  0.460685  0.448456  -0.583697
    O   O57   0.259744  0.595588  0.230334  -0.305232
    O   O58   0.299817  0.111767  0.653608  -0.535286
    O   O59   0.240256  0.095588  0.769666  -0.305188
    O   O60   0.700183  0.111767  0.346392  -0.535286
    O   O61   0.759744  0.095588  0.230334  -0.305224
    O   O62   0.112897  0.711215  0.843984  -0.545541
    O   O63   0.072364  0.767511  0.848439  -0.314278
    O   O64   0.887103  0.711215  0.156016  -0.545543
    O   O65   0.927636  0.767511  0.151561  -0.314241
    O   O66   0.612897  0.211215  0.843984  -0.545538
    O   O67   0.435797  0.960685  0.551544  -0.583590
    O   O68   0.572364  0.267511  0.848439  -0.314266
    O   O69   0.387103  0.211215  0.156016  -0.545538
    O   O70   0.427636  0.267511  0.151561  -0.314224
    O   O71   0.437222  0.405501  0.966655  -0.435175
    O   O72   0.394189  0.346609  0.023251  -0.259593
    O   O73   0.562778  0.405501  0.033345  -0.435181
    O   O74   0.605811  0.346609  0.976749  -0.259571
    O   O75   0.937222  0.905501  0.966655  -0.435166
    O   O76   0.894189  0.846609  0.023251  -0.259591
    O   O77   0.062778  0.905501  0.033345  -0.435169
    O   O78   0.564203  0.960685  0.448456  -0.583689
    O   O79   0.105811  0.846609  0.976749  -0.259571
    O   O80   0.964302  0.619280  0.246947  -0.524738
    O   O81   0.021165  0.592004  0.136860  -0.118043
    O   O82   0.035698  0.619280  0.753053  -0.524723
    O   O83   0.978835  0.592004  0.863140  -0.117954
    O   O84   0.464302  0.119280  0.246947  -0.524712
    O   O85   0.521165  0.092004  0.136860  -0.118003
    O   O86   0.535698  0.119280  0.753053  -0.524698
    O   O87   0.478835  0.092004  0.863140  -0.117896
    O   O88   0.934257  0.411110  0.213287  -0.578757
    O   O89   0.983229  0.533727  0.428283  -0.611970
    O   O90   0.896122  0.468273  0.289157  -0.244320
    O   O91   0.065743  0.411110  0.786713  -0.578767
    O   O92   0.103878  0.468273  0.710843  -0.244282
    O   O93   0.434257  0.911110  0.213287  -0.578760
    O   O94   0.396122  0.968273  0.289157  -0.244320
    O   O95   0.565743  0.911110  0.786713  -0.578768
    O   O96   0.603878  0.968273  0.710843  -0.244318
