# Generated by REPEAT Assigner based on pymatgen
data_DB0-m3_o160_o540_f0_fsc.sym.42_sqe
_audit_creation_date              2022-05-24
_audit_creation_method            REPEAT_Assigner
_cell_length_a                    13.402544
_cell_length_b                    8.547344
_cell_length_c                    23.294273
_cell_angle_alpha                 90.000000
_cell_angle_beta                  93.891987
_cell_angle_gamma                 90.000000
_cell_volume                      2662.348071
_symmetry_space_group_name_H-M    P1
_symmetry_Int_Tables_number       1
loop_
    _symmetry_equiv_pos_site_id
    _symmetry_equiv_pos_as_xyz
    1  x,y,z
loop_
    _atom_site_type_symbol
    _atom_site_label
    _atom_site_fract_x
    _atom_site_fract_y
    _atom_site_fract_z
    _atom_type_partial_charge
    C   C1   0.071867  0.081407  0.790350  0.455599
    C   C2   0.935866  0.909807  0.785314  0.431660
    O   O1   0.140894  0.162598  0.763559  -0.492440
    O   O2   0.866904  0.827690  0.753443  -0.496143
    N   N1   0.003678  0.995590  0.759102  -0.179616
    C   C3   0.008227  0.852010  0.668771  -0.293432
    C   C4   0.010059  0.132686  0.668005  -0.298761
    C   C5   0.024194  0.851431  0.610851  -0.033915
    C   C6   0.024789  0.130626  0.610066  0.006840
    C   C7   0.006266  0.993193  0.698026  0.350483
    C   C8   0.005200  0.994967  0.877514  0.134669
    C   C9   0.073528  0.081903  0.849733  -0.141028
    C   C10  0.935675  0.908934  0.844747  -0.114901
    C   C11  0.144745  0.166730  0.881342  -0.024077
    C   C12  0.865563  0.823458  0.871452  -0.036777
    C   C13  0.037584  0.990394  0.582837  -0.145828
    H   H1   0.001573  0.243137  0.689754  0.148204
    H   H2   0.002388  0.742276  0.691339  0.157025
    H   H3   0.200438  0.233694  0.860594  0.115158
    H   H4   0.808846  0.757476  0.846759  0.120749
    C   C14  0.976641  0.993618  0.411214  -0.140727
    C   C15  0.076315  0.085471  0.029475  0.033102
    C   C16  0.942044  0.896858  0.024619  0.034746
    C   C17  0.009957  0.990374  0.056654  0.021888
    C   C18  0.140190  0.181939  0.063376  -0.182114
    C   C19  0.880111  0.798148  0.053858  -0.183801
    C   C20  0.140364  0.179717  0.122318  -0.028273
    C   C21  0.882553  0.797859  0.112827  -0.023326
    C   C22  0.076371  0.082930  0.149149  -0.150963
    C   C23  0.947469  0.894025  0.144311  -0.156125
    C   C24  0.011373  0.988991  0.116455  0.147773
    C   C25  0.948228  0.895567  0.203664  0.486380
    C   C26  0.076610  0.080989  0.208601  0.477028
    N   N2   0.012443  0.988377  0.234958  -0.221355
    C   C27  0.005685  0.132274  0.325289  -0.291339
    C   C28  0.006717  0.851630  0.326351  -0.290830
    C   C29  0.990171  0.132603  0.383261  -0.038977
    C   C30  0.990179  0.853513  0.384067  0.000491
    C   C31  0.009255  0.991031  0.296089  0.363952
    O   O3   0.142636  0.169001  0.240280  -0.501038
    O   O4   0.881849  0.808357  0.230247  -0.512040
    C   C32  0.076947  0.082981  0.969396  0.072018
    C   C33  0.938007  0.902819  0.964449  0.071678
    C   C34  0.006677  0.993676  0.937315  -0.005879
    C   C35  0.146975  0.167012  0.940311  -0.207003
    C   C36  0.866105  0.820871  0.930404  -0.206950
    H   H5   0.010043  0.242380  0.302823  0.154428
    H   H6   0.017232  0.741145  0.305001  0.154207
    H   H7   0.191057  0.256562  0.146871  0.119242
    H   H8   0.832866  0.719926  0.133692  0.115870
    H   H9   0.190386  0.264873  0.046288  0.131554
    H   H10  0.829422  0.715584  0.033033  0.130302
    H   H11  0.207075  0.232692  0.961313  0.146875
    H   H12  0.806677  0.754929  0.947331  0.147447
    H   H13  0.051465  0.989260  0.537911  0.133014
    H   H14  0.962294  0.994665  0.456076  0.130076
    O   O5   0.101287  0.660161  0.554376  -0.742223
    O   O6   0.101277  0.321934  0.553502  -0.750588
    O   O7   0.930297  0.653748  0.560139  -0.694643
    O   O8   0.930206  0.327716  0.559268  -0.742658
    C   C37  0.019185  0.708765  0.576285  0.854111
    C   C38  0.019189  0.272300  0.575054  0.891445
    O   O9   0.913301  0.662352  0.440659  -0.711733
    O   O10  0.913180  0.323770  0.439776  -0.745912
    O   O11  0.084627  0.656466  0.434836  -0.684415
    O   O12  0.084525  0.330023  0.434017  -0.668576
    C   C39  0.995566  0.711846  0.419087  0.812784
    C   C40  0.995397  0.275209  0.417872  0.844654
    Zn  Zn1  0.896329  0.491937  0.498990  1.057442
    Zn  Zn2  0.118220  0.492151  0.495109  1.034229
    C   C41  0.297457  0.493719  0.445500  -0.270537
    N   N3   0.248922  0.492222  0.494144  0.173543
    C   C42  0.300427  0.491756  0.545692  -0.158064
    C   C43  0.403287  0.492967  0.549878  -0.108052
    C   C44  0.455570  0.495021  0.500493  -0.137225
    C   C45  0.400826  0.495365  0.447984  0.427210
    C   C46  0.620697  0.492868  0.552453  -0.186440
    C   C47  0.559953  0.495881  0.501653  0.209298
    C   C48  0.605523  0.498875  0.450089  -0.130679
    C   C49  0.547499  0.503032  0.398469  0.483934
    N   N4   0.447310  0.498998  0.398690  -0.472496
    C   C50  0.723160  0.491851  0.550822  -0.123106
    N   N5   0.765681  0.491998  0.500299  0.102089
    C   C51  0.709025  0.494418  0.450382  -0.026431
    H   H15  0.260873  0.490669  0.584596  0.170173
    H   H16  0.746052  0.491844  0.410655  0.114387
    H   H17  0.438652  0.492824  0.592645  0.128847
    H   H18  0.592253  0.491094  0.594444  0.148346
    H   H19  0.255492  0.494556  0.404200  0.182236
    H   H20  0.769539  0.490145  0.590627  0.180571
    N   N6   0.593181  0.509924  0.345549  -0.344438
    C   C52  0.534437  0.444357  0.297310  -0.080066
    C   C53  0.458743  0.561608  0.271274  0.207077
    O   O13  0.506009  0.700656  0.256877  -0.418328
    C   C54  0.546437  0.764727  0.308508  0.216841
    C   C55  0.630962  0.662702  0.333031  -0.031947
    H   H21  0.495647  0.337186  0.310798  0.066843
    H   H22  0.585285  0.411378  0.263683  0.095340
    H   H23  0.397702  0.585234  0.299775  0.006560
    H   H24  0.423433  0.509481  0.231297  0.026614
    H   H25  0.488487  0.777589  0.339957  0.016330
    H   H26  0.576569  0.882564  0.299793  0.019098
    H   H27  0.664963  0.717889  0.372714  0.034099
    H   H28  0.688100  0.652261  0.300966  0.129660
