# Generated by REPEAT Assigner based on pymatgen
data_DB0-m29_o81_o530_f0_pts.sym.91
_audit_creation_date              2022-05-24
_audit_creation_method            REPEAT_Assigner
_cell_length_a                    15.703156
_cell_length_b                    19.191558
_cell_length_c                    13.224540
_cell_angle_alpha                 90.369263
_cell_angle_beta                  87.066374
_cell_angle_gamma                 70.282415
_cell_volume                      3745.665868
_symmetry_space_group_name_H-M    P1
_symmetry_Int_Tables_number       1
loop_
    _symmetry_equiv_pos_site_id
    _symmetry_equiv_pos_as_xyz
    1  x,y,z
loop_
    _atom_site_type_symbol
    _atom_site_label
    _atom_site_fract_x
    _atom_site_fract_y
    _atom_site_fract_z
    _atom_type_partial_charge
    C   C1   0.892664  0.991917  0.864618  -0.263951
    C   C2   0.295839  0.999040  0.913337  0.006222
    C   C3   0.216048  0.991012  0.884451  -0.179214
    C   C4   0.150779  0.986703  0.955745  0.155008
    C   C5   0.070209  0.982423  0.925024  -0.224900
    C   C6   0.000492  0.982438  0.995089  -0.009203
    C   C7   0.809305  0.994002  0.836769  -0.057735
    C   C8   0.745485  0.986513  0.906511  -0.018866
    C   C9   0.915040  0.983877  0.965251  0.195208
    C   C10  0.848798  0.980658  0.037769  0.050961
    C   C11  0.764157  0.979784  0.008433  -0.042634
    C   C12  0.310639  0.000297  0.016540  -0.069092
    C   C13  0.245854  0.993314  0.086760  -0.256081
    C   C14  0.165435  0.988039  0.056516  0.257471
    C   C15  0.099261  0.985148  0.127169  -0.320161
    C   C16  0.017035  0.981630  0.097390  0.189349
    C   C17  0.949816  0.980469  0.169104  -0.221088
    C   C18  0.866819  0.981546  0.139241  -0.107010
    H   H1   0.936493  0.998986  0.803621  0.158889
    H   H2   0.203106  0.989694  0.805171  0.144903
    H   H3   0.065528  0.978969  0.844675  0.157658
    H   H4   0.795682  0.999532  0.757419  0.167089
    H   H5   0.257021  0.995141  0.166545  0.219565
    H   H6   0.112688  0.987915  0.205895  0.108378
    H   H7   0.816739  0.983775  0.198968  0.154790
    O   O1   0.608974  0.019858  0.077902  -0.547270
    C   C19  0.693217  0.975288  0.083659  0.498553
    O   O2   0.595933  0.839568  0.194817  -0.454731
    O   O3   0.713020  0.924654  0.152995  -0.421332
    O   O4   0.563071  0.941293  0.300581  -0.612113
    C   C20  0.589514  0.869081  0.285904  0.680508
    Fe  Fe1  0.523359  0.009296  0.187004  1.476526
    O   O5   0.437356  0.967427  0.122931  -0.648498
    O   O6   0.403355  0.075810  0.040070  -0.503087
    C   C21  0.390064  0.012720  0.056168  0.865669
    O   O7   0.477516  0.112164  0.247929  -0.653264
    O   O8   0.346785  0.086657  0.262655  -0.609664
    C   C22  0.392785  0.130256  0.282682  0.750001
    O   O9   0.527557  0.914172  0.666778  -0.612013
    O   O10  0.678285  0.880625  0.690942  -0.522305
    C   C23  0.610936  0.869023  0.647574  0.646018
    O   O11  0.631830  0.023521  0.785564  -0.650863
    O   O12  0.619581  0.940881  0.903034  -0.458870
    C   C24  0.660095  0.985965  0.867225  0.736448
    O   O13  0.346645  0.996579  0.737473  -0.497778
    O   O14  0.487555  0.086557  0.630547  -0.573297
    C   C25  0.410424  0.141655  0.643946  0.495677
    O   O15  0.438758  0.011891  0.855312  -0.592163
    C   C26  0.362679  0.003018  0.832876  0.640118
    O   O16  0.362596  0.151623  0.730404  -0.447663
    Fe  Fe2  0.519910  0.010025  0.735018  1.476761
    C   C27  0.881207  0.651211  0.400708  0.466159
    N   N1   0.801879  0.653124  0.447201  -0.169510
    C   C28  0.795434  0.593840  0.497193  0.450103
    C   C29  0.870372  0.530325  0.502234  -0.088797
    C   C30  0.951877  0.527974  0.456097  0.106617
    C   C31  0.957295  0.588477  0.404282  -0.131161
    C   C32  0.864795  0.469597  0.554310  -0.066621
    C   C33  0.940537  0.407287  0.560385  -0.050548
    C   C34  0.022567  0.405251  0.514666  -0.106860
    C   C35  0.027786  0.465704  0.462527  0.087233
    C   C36  0.109336  0.463604  0.416822  -0.091437
    C   C37  0.114936  0.524234  0.364593  -0.049217
    C   C38  0.039237  0.586446  0.358415  -0.056946
    C   C39  0.099149  0.342892  0.519358  0.423703
    N   N2   0.178554  0.341439  0.473525  -0.113000
    C   C40  0.184623  0.400661  0.423113  0.423333
    O   O17  0.887165  0.711670  0.354441  -0.469473
    O   O18  0.715680  0.596828  0.542581  -0.488173
    H   H8   0.801683  0.469877  0.591230  0.141237
    H   H9   0.934301  0.360655  0.601594  0.128670
    O   O19  0.093873  0.282643  0.566786  -0.457897
    O   O20  0.264658  0.398434  0.379273  -0.475961
    H   H10  0.178095  0.524084  0.327944  0.130187
    H   H11  0.045568  0.633125  0.317404  0.127255
    C   C41  0.288479  0.239147  0.378700  -0.267628
    H   H12  0.253820  0.259138  0.310572  0.151489
    C   C42  0.364758  0.177024  0.373762  0.102819
    C   C43  0.407341  0.150035  0.460342  -0.212959
    C   C44  0.371582  0.181792  0.553843  0.184092
    C   C45  0.295513  0.245149  0.559233  -0.297205
    H   H13  0.267308  0.271248  0.631796  0.170519
    C   C46  0.255479  0.275095  0.470845  0.280899
    C   C47  0.699971  0.756911  0.546626  -0.202189
    H   H14  0.734895  0.733367  0.613262  0.150072
    C   C48  0.630702  0.823960  0.554377  0.064886
    C   C49  0.590148  0.856076  0.468663  -0.106976
    C   C50  0.620387  0.823481  0.374307  -0.053620
    C   C51  0.687453  0.754533  0.366597  -0.162087
    H   H15  0.712568  0.728799  0.293053  0.156717
    C   C52  0.726998  0.720929  0.453411  0.243834
    H   H16  0.464070  0.098860  0.453922  0.148351
    H   H17  0.539333  0.910568  0.475225  0.129131
    C   C53  0.962452  0.978988  0.278526  0.825835
    O   O21  0.910410  0.027377  0.334028  -0.522674
    N   N3   0.027094  0.916579  0.321927  -0.701382
    H   H18  0.072873  0.935218  0.358828  0.312079
    H   H19  0.062128  0.879528  0.263562  0.280183
