# Generated by REPEAT Assigner based on pymatgen
data_DB0-m29_o80_o46_f0_pts.sym.76
_audit_creation_date              2022-05-24
_audit_creation_method            REPEAT_Assigner
_cell_length_a                    14.139574
_cell_length_b                    9.704923
_cell_length_c                    15.486202
_cell_angle_alpha                 82.294943
_cell_angle_beta                  91.524205
_cell_angle_gamma                 115.363875
_cell_volume                      1901.760063
_symmetry_space_group_name_H-M    P1
_symmetry_Int_Tables_number       1
loop_
    _symmetry_equiv_pos_site_id
    _symmetry_equiv_pos_as_xyz
    1  x,y,z
loop_
    _atom_site_type_symbol
    _atom_site_label
    _atom_site_fract_x
    _atom_site_fract_y
    _atom_site_fract_z
    _atom_type_partial_charge
    H   H1   0.926267  0.220472  0.247959  0.193308
    C   C1   0.693141  0.843264  0.890485  -0.311464
    C   C2   0.733271  0.761576  0.849892  -0.157990
    C   C3   0.832277  0.799020  0.880519  0.470046
    N   N1   0.853729  0.896353  0.940385  -0.536066
    C   C4   0.768164  0.923210  0.946848  0.522661
    C   C5   0.899434  0.755312  0.847364  -0.418902
    C   C6   0.011872  0.817574  0.864258  0.456005
    C   C7   0.084636  0.824936  0.804709  -0.303735
    C   C8   0.181430  0.890873  0.840656  -0.205804
    C   C9   0.163181  0.922244  0.923427  0.347371
    N   N2   0.058983  0.874920  0.936395  -0.404096
    C   C10  0.241164  0.995729  0.989238  -0.284298
    C   C11  0.226301  0.076180  0.047697  0.446046
    C   C12  0.297762  0.149277  0.109212  -0.246792
    C   C13  0.257798  0.233000  0.147493  -0.270291
    C   C14  0.162001  0.202273  0.112484  0.571591
    N   N3   0.142251  0.107750  0.051072  -0.585342
    C   C15  0.096002  0.249639  0.143772  -0.441886
    C   C16  0.984582  0.190419  0.125384  0.458841
    C   C17  0.911091  0.182914  0.184302  -0.296966
    C   C18  0.815121  0.114612  0.147749  -0.244893
    C   C19  0.834321  0.082396  0.066634  0.414859
    N   N4   0.938390  0.130908  0.053562  -0.418179
    C   C20  0.755253  0.006223  0.003868  -0.421204
    H   H2   0.698244  0.693959  0.797796  0.141465
    H   H3   0.872520  0.684646  0.795243  0.177357
    H   H4   0.068250  0.787028  0.741184  0.196973
    H   H5   0.290556  0.297643  0.201156  0.160686
    H   H6   0.122220  0.318215  0.196849  0.185965
    H   H7   0.680253  0.007537  0.008882  0.231042
    H   H8   0.020608  0.873622  0.993131  0.310849
    H   H9   0.976963  0.130469  0.997371  0.307600
    O   O1   0.627540  0.045426  0.156879  -0.756933
    C   C21  0.717391  0.081159  0.195494  0.861018
    O   O2   0.580588  0.773319  0.293418  -0.490568
    O   O3   0.721827  0.092352  0.279094  -0.519720
    O   O4   0.451086  0.837454  0.329599  -0.559033
    C   C22  0.502056  0.751054  0.345279  0.486404
    Fe  Fe1  0.513746  0.018550  0.238716  1.453352
    O   O5   0.388650  0.996304  0.167424  -0.648920
    O   O6   0.471713  0.256719  0.160826  -0.633407
    C   C23  0.390699  0.133117  0.143365  0.843173
    O   O7   0.583970  0.203088  0.301410  -0.600439
    O   O8   0.411707  0.111706  0.337832  -0.561801
    C   C24  0.508361  0.215141  0.342763  0.785801
    C   C25  0.490282  0.664996  0.433423  0.096260
    C   C26  0.475995  0.734010  0.501127  -0.194708
    H   H10  0.470967  0.842825  0.488025  0.138014
    C   C27  0.482913  0.678743  0.586168  0.077277
    C   C28  0.499466  0.548510  0.605418  -0.269095
    H   H11  0.511314  0.514261  0.672534  0.183357
    C   C29  0.507401  0.470697  0.539244  0.112322
    C   C30  0.505470  0.531083  0.452440  0.074674
    H   H12  0.500922  0.485537  0.319411  0.180935
    C   C31  0.513440  0.452368  0.386516  -0.239833
    C   C32  0.529436  0.321322  0.406421  0.059738
    H   H13  0.538999  0.156557  0.505157  0.122599
    C   C33  0.535670  0.266514  0.491535  -0.164711
    C   C34  0.521374  0.336263  0.558591  0.059263
    O   O9   0.605756  0.997037  0.830496  -0.641656
    O   O10  0.517216  0.737185  0.843533  -0.620941
    C   C35  0.598667  0.859784  0.861699  0.820000
    O   O11  0.421819  0.796715  0.686238  -0.590002
    O   O12  0.596269  0.875607  0.665709  -0.552994
    C   C36  0.499751  0.780182  0.651922  0.763168
    O   O13  0.424257  0.224124  0.695088  -0.500709
    O   O14  0.366948  0.949618  0.827237  -0.692502
    C   C37  0.276986  0.918243  0.790124  0.805105
    O   O15  0.556128  0.161970  0.663771  -0.579958
    C   C38  0.505986  0.248971  0.646432  0.512612
    O   O16  0.269646  0.903015  0.706983  -0.510292
    Fe  Fe2  0.486762  0.978374  0.751901  1.454861
    C   C39  0.343218  0.994904  0.986008  0.450915
    C   C40  0.434440  0.125396  0.964953  -0.189217
    C   C41  0.511560  0.078237  0.976476  -0.162494
    C   C42  0.461882  0.921779  0.002955  0.199540
    O   O17  0.358826  0.870180  0.008763  -0.245162
    H   H14  0.443033  0.241550  0.945626  0.137815
    H   H15  0.594375  0.151221  0.967115  0.132495
    H   H16  0.500856  0.847787  0.019164  0.069640
