# Generated by REPEAT Assigner based on pymatgen
data_DB0-m3_o11_o22_f0_pcu.sym.24
_audit_creation_date              2022-05-24
_audit_creation_method            REPEAT_Assigner
_cell_length_a                    10.773119
_cell_length_b                    11.163652
_cell_length_c                    9.927086
_cell_angle_alpha                 89.997366
_cell_angle_beta                  89.988664
_cell_angle_gamma                 90.006223
_cell_volume                      1193.904192
_symmetry_space_group_name_H-M    P1
_symmetry_Int_Tables_number       1
loop_
    _symmetry_equiv_pos_site_id
    _symmetry_equiv_pos_as_xyz
    1  x,y,z
loop_
    _atom_site_type_symbol
    _atom_site_label
    _atom_site_fract_x
    _atom_site_fract_y
    _atom_site_fract_z
    _atom_type_partial_charge
    O   O1   0.495314  0.322294  0.611017  -0.680438
    O   O2   0.494858  0.323673  0.379058  -0.659830
    C   C1   0.493282  0.266917  0.494908  0.878318
    O   O3   0.314350  0.505164  0.619413  -0.723120
    O   O4   0.314246  0.506602  0.387469  -0.656305
    C   C2   0.256155  0.506674  0.503227  0.802210
    Zn  Zn1  0.499877  0.499736  0.652853  1.031783
    Zn  Zn2  0.498319  0.502912  0.346538  1.049204
    O   O5   0.505437  0.678945  0.620615  -0.698147
    O   O6   0.502829  0.680494  0.388019  -0.644818
    O   O7   0.684099  0.496022  0.612319  -0.541621
    O   O8   0.683932  0.499295  0.379686  -0.650727
    C   C3   0.505306  0.735843  0.504591  0.796114
    C   C4   0.742231  0.496405  0.496118  0.599246
    C   C5   0.071155  0.393509  0.573646  0.354312
    H   H1   0.091316  0.400816  0.682902  0.009885
    C   C6   0.932218  0.381492  0.553576  0.141716
    H   H2   0.913720  0.308280  0.480779  0.063208
    H   H3   0.106435  0.622397  0.674740  0.023361
    C   C7   0.066344  0.614813  0.572223  0.223550
    C   C8   0.071072  0.503644  0.356522  -0.288958
    C   C9   0.117444  0.504944  0.501469  -0.091240
    H   H4   0.109178  0.580389  0.298791  0.122341
    H   H5   0.099356  0.419149  0.306338  0.085571
    C   C10  0.881347  0.498644  0.497517  -0.064308
    C   C11  0.926653  0.603202  0.584155  0.493323
    C   C12  0.930903  0.512200  0.354636  0.362908
    H   H6   0.894922  0.439315  0.289464  0.002196
    C   C13  0.495957  0.934133  0.396027  0.114804
    C   C14  0.515056  0.867280  0.507169  -0.009537
    C   C15  0.508879  0.066040  0.392494  0.401752
    C   C16  0.484142  0.135759  0.498831  -0.510366
    H   H7   0.453063  0.097410  0.592871  0.218741
    C   C17  0.567135  0.570262  0.926105  -0.054797
    N   N1   0.504571  0.495811  0.854226  0.079963
    H   H8   0.613045  0.645084  0.877539  0.192396
    C   C18  0.581872  0.554707  0.073298  0.196514
    N   N2   0.495138  0.508355  0.145165  -0.285482
    H   H9   0.663619  0.590916  0.122138  0.136588
    H   H10  0.412140  0.493567  0.096935  0.266478
    F   F1   0.896332  0.621335  0.300463  -0.273184
    F   F2   0.095594  0.716862  0.500004  -0.253856
    F   F3   0.871315  0.708698  0.542797  -0.221676
    F   F4   0.468503  0.880109  0.277239  -0.151907
    F   F5   0.552713  0.917857  0.624485  -0.137452
    F   F6   0.539436  0.116781  0.272750  -0.179727
    F   F7   0.484058  0.389070  0.911044  -0.055155
    F   F8   0.130073  0.293155  0.522986  -0.287364
    F   F9   0.877016  0.352480  0.675010  -0.250201
    F   F10  0.897164  0.584034  0.717990  -0.276266
