# Generated by REPEAT Assigner based on pymatgen
data_DB0-m3_o17_o27_f0_pcu.sym.52_sqe
_audit_creation_date              2022-05-24
_audit_creation_method            REPEAT_Assigner
_cell_length_a                    15.264776
_cell_length_b                    13.862983
_cell_length_c                    19.583858
_cell_angle_alpha                 90.000000
_cell_angle_beta                  89.995435
_cell_angle_gamma                 90.000000
_cell_volume                      4144.244305
_symmetry_space_group_name_H-M    P1
_symmetry_Int_Tables_number       1
loop_
    _symmetry_equiv_pos_site_id
    _symmetry_equiv_pos_as_xyz
    1  x,y,z
loop_
    _atom_site_type_symbol
    _atom_site_label
    _atom_site_fract_x
    _atom_site_fract_y
    _atom_site_fract_z
    _atom_type_partial_charge
    O   O1   0.369133  0.592705  0.501433  -0.766187
    O   O2   0.630863  0.427856  0.500966  -0.676811
    O   O3   0.630866  0.592705  0.498567  -0.766201
    O   O4   0.369136  0.427856  0.499034  -0.676806
    C   C1   0.326434  0.510307  0.499901  0.879828
    C   C2   0.673565  0.510307  0.500099  0.879846
    O   O5   0.497876  0.592243  0.398197  -0.566879
    O   O6   0.498410  0.428293  0.601711  -0.639702
    O   O7   0.502123  0.592243  0.601803  -0.566891
    O   O8   0.501590  0.428293  0.398289  -0.639693
    C   C3   0.499937  0.510082  0.364731  0.580077
    C   C4   0.500062  0.510082  0.635269  0.580089
    Zn  Zn1  0.500000  0.618889  0.500000  1.055545
    Zn  Zn2  0.500000  0.401639  0.500000  1.007607
    C   C5   0.524210  0.594960  0.250657  0.007886
    C   C6   0.513585  0.424523  0.751567  -0.121140
    C   C7   0.475790  0.594960  0.749343  0.007889
    C   C8   0.486414  0.424523  0.248433  -0.121131
    C   C9   0.514249  0.597146  0.180262  0.136472
    C   C10  0.507323  0.428837  0.822135  0.184000
    C   C11  0.485750  0.597146  0.819738  0.136474
    C   C12  0.492676  0.428837  0.177865  0.184000
    H   H1   0.522381  0.663813  0.152731  -0.004414
    H   H2   0.512433  0.363729  0.851736  -0.015997
    H   H3   0.477619  0.663813  0.847269  -0.004424
    H   H4   0.487567  0.363729  0.148264  -0.015998
    C   C13  0.501407  0.514363  0.143604  -0.597020
    C   C14  0.498593  0.514363  0.856396  -0.597014
    C   C15  0.503055  0.509565  0.287513  -0.105174
    C   C16  0.496944  0.509565  0.712487  -0.105178
    N   N1   0.500240  0.431957  0.033701  -0.337873
    N   N2   0.499609  0.599523  0.966203  -0.343195
    N   N3   0.499760  0.431957  0.966299  -0.337882
    N   N4   0.500391  0.599523  0.033797  -0.343202
    C   C17  0.499370  0.515595  0.931560  0.930606
    C   C18  0.500629  0.515595  0.068440  0.930604
    C   C19  0.821421  0.507804  0.440697  -0.248694
    C   C20  0.178578  0.507804  0.559303  -0.248668
    C   C21  0.772502  0.512155  0.501805  -0.056698
    C   C22  0.227498  0.512155  0.498195  -0.056702
    C   C23  0.818832  0.527611  0.563599  -0.236486
    C   C24  0.181168  0.527611  0.436401  -0.236496
    C   C25  0.909694  0.544793  0.561694  0.055366
    C   C26  0.090305  0.544793  0.438305  0.055376
    C   C27  0.954345  0.544149  0.500647  0.071952
    C   C28  0.045654  0.544149  0.499352  0.071956
    C   C29  0.908733  0.537037  0.440760  0.080321
    C   C30  0.091267  0.537037  0.559240  0.080299
    C   C31  0.958044  0.567611  0.619559  -0.188114
    C   C32  0.041956  0.567611  0.380441  -0.188118
    C   C33  0.047622  0.560411  0.618761  -0.252915
    C   C34  0.952377  0.560410  0.381239  -0.252926
    H   H5   0.928660  0.590339  0.666955  0.129476
    H   H6   0.071340  0.590339  0.333044  0.129475
    H   H7   0.082585  0.575181  0.665573  0.132473
    H   H8   0.917415  0.575181  0.334427  0.132476
    C   C35  0.560566  0.811256  0.463282  -0.172915
    C   C36  0.441138  0.209282  0.538315  -0.179313
    C   C37  0.439434  0.811256  0.536717  -0.172911
    C   C38  0.558861  0.209282  0.461685  -0.179316
    N   N5   0.500000  0.763195  0.500000  0.008045
    N   N6   0.500000  0.257336  0.500000  0.017438
    C   C39  0.439114  0.910777  0.537780  0.219803
    C   C40  0.560121  0.109773  0.461495  0.209058
    C   C41  0.560886  0.910777  0.462220  0.219803
    C   C42  0.439879  0.109773  0.538505  0.209055
    C   C43  0.500000  0.960650  0.500000  -0.038669
    C   C44  0.500000  0.059887  0.500000  -0.025616
    C   C45  0.378344  0.960511  0.576356  -0.214210
    C   C46  0.621021  0.060073  0.423038  -0.201380
    C   C47  0.621655  0.960511  0.423644  -0.214207
    C   C48  0.378979  0.060073  0.576962  -0.201375
    H   H9   0.608784  0.771607  0.434297  0.151446
    H   H10  0.394809  0.248982  0.568954  0.165310
    H   H11  0.391215  0.771607  0.565703  0.151443
    H   H12  0.605191  0.248982  0.431046  0.165308
    H   H13  0.330411  0.921864  0.606403  0.153846
    H   H14  0.668510  0.098751  0.392580  0.150822
    H   H15  0.669589  0.921864  0.393597  0.153842
    H   H16  0.331489  0.098751  0.607420  0.150820
    C   C49  0.562962  0.685496  0.281876  0.435557
    C   C50  0.640587  0.722625  0.240735  -0.458512
    C   C51  0.493812  0.763961  0.287408  -0.473848
    H   H17  0.592299  0.672504  0.332143  0.032708
    H   H18  0.619119  0.767160  0.196811  0.118647
    H   H19  0.681273  0.661208  0.223031  0.086900
    H   H20  0.681283  0.768909  0.274306  0.079829
    H   H21  0.467002  0.781706  0.236329  0.106804
    H   H22  0.523570  0.829714  0.309762  0.096859
    H   H23  0.439622  0.739145  0.320716  0.091429
    C   C52  0.534462  0.324617  0.723688  0.514261
    C   C53  0.606723  0.274790  0.764199  -0.397583
    C   C54  0.452730  0.262175  0.724654  -0.429856
    H   H24  0.560809  0.324322  0.671879  -0.017653
    H   H25  0.579589  0.233922  0.808032  0.095957
    H   H26  0.655463  0.328292  0.782322  0.069991
    H   H27  0.640328  0.222544  0.730251  0.068056
    H   H28  0.427900  0.253420  0.777488  0.089479
    H   H29  0.468379  0.190170  0.703214  0.084417
    H   H30  0.401117  0.296336  0.693198  0.073118
    C   C55  0.437038  0.685496  0.718124  0.435556
    C   C56  0.359413  0.722625  0.759265  -0.458488
    C   C57  0.506188  0.763961  0.712592  -0.473839
    H   H31  0.407701  0.672504  0.667857  0.032703
    H   H32  0.380880  0.767161  0.803189  0.118641
    H   H33  0.318727  0.661208  0.776969  0.086889
    H   H34  0.318717  0.768910  0.725695  0.079824
    H   H35  0.532998  0.781706  0.763671  0.106807
    H   H36  0.476429  0.829714  0.690238  0.096850
    H   H37  0.560378  0.739145  0.679284  0.091425
    C   C58  0.465538  0.324617  0.276312  0.514256
    C   C59  0.393277  0.274790  0.235801  -0.397587
    C   C60  0.547270  0.262175  0.275346  -0.429875
    H   H38  0.439190  0.324322  0.328121  -0.017653
    H   H39  0.420411  0.233922  0.191968  0.095958
    H   H40  0.344536  0.328292  0.217678  0.069988
    H   H41  0.359672  0.222544  0.269749  0.068058
    H   H42  0.572099  0.253419  0.222512  0.089484
    H   H43  0.531621  0.190170  0.296786  0.084424
    H   H44  0.598883  0.296336  0.306801  0.073130
    C   C61  0.792585  0.446825  0.380461  0.698586
    C   C62  0.785209  0.341228  0.400614  -0.407060
    C   C63  0.710358  0.482716  0.347180  -0.576568
    H   H45  0.841624  0.445167  0.339243  -0.077600
    H   H46  0.742446  0.330363  0.445284  0.086819
    H   H47  0.851418  0.313975  0.413669  0.050892
    H   H48  0.759690  0.298959  0.356843  0.067393
    H   H49  0.656404  0.436902  0.365011  0.185304
    H   H50  0.716230  0.474886  0.291016  0.087730
    H   H51  0.700081  0.559564  0.360185  0.097503
    C   C64  0.207415  0.446825  0.619539  0.698553
    C   C65  0.214791  0.341229  0.599386  -0.407058
    C   C66  0.289642  0.482716  0.652820  -0.576548
    H   H52  0.158376  0.445168  0.660758  -0.077591
    H   H53  0.257554  0.330364  0.554716  0.086821
    H   H54  0.148582  0.313975  0.586331  0.050890
    H   H55  0.240309  0.298959  0.643157  0.067394
    H   H56  0.343596  0.436902  0.634989  0.185309
    H   H57  0.283770  0.474886  0.708984  0.087727
    H   H58  0.299918  0.559565  0.639815  0.097500
    C   C67  0.777555  0.505912  0.632426  0.618974
    C   C68  0.722123  0.588787  0.658863  -0.410958
    C   C69  0.729459  0.410874  0.633089  -0.542892
    H   H59  0.827081  0.491685  0.671913  -0.068723
    H   H60  0.669864  0.607915  0.622581  0.124731
    H   H61  0.764475  0.652827  0.666622  0.051418
    H   H62  0.692458  0.568203  0.708458  0.062067
    H   H63  0.659547  0.423348  0.624583  0.158176
    H   H64  0.737994  0.377764  0.684057  0.111643
    H   H65  0.757100  0.361044  0.594376  0.090215
    C   C70  0.222445  0.505912  0.367574  0.618980
    C   C71  0.277876  0.588787  0.341137  -0.410924
    C   C72  0.270540  0.410873  0.366911  -0.542904
    H   H66  0.172919  0.491685  0.328086  -0.068726
    H   H67  0.330135  0.607914  0.377419  0.124712
    H   H68  0.235525  0.652827  0.333378  0.051416
    H   H69  0.307541  0.568202  0.291542  0.062053
    H   H70  0.340452  0.423347  0.375417  0.158176
    H   H71  0.262006  0.377763  0.315943  0.111650
    H   H72  0.242900  0.361043  0.405624  0.090222
