data_DB0-m3_o11_o29_f0_pcu.sym.11_repeat
_audit_creation_date              2024-02-23
_audit_creation_method            'Materials Studio'
_symmetry_space_group_name_H-M    'P1'
_symmetry_Int_Tables_number       1
_symmetry_cell_setting            triclinic
loop_
_symmetry_equiv_pos_as_xyz
  x,y,z
_cell_length_a                    27.6417
_cell_length_b                    11.1438
_cell_length_c                    9.9061
_cell_angle_alpha                 89.9974
_cell_angle_beta                  89.9930
_cell_angle_gamma                 89.9936
loop_
_atom_site_label
_atom_site_type_symbol
_atom_site_fract_x
_atom_site_fract_y
_atom_site_fract_z
_atom_site_U_iso_or_equiv
_atom_site_adp_type
_atom_site_occupancy
O1     O     0.50042   0.32899   0.61057   0.00000  Uiso   1.00
O2     O     0.50306   0.32617   0.37798   0.00000  Uiso   1.00
C1     C     0.50115   0.27154   0.49508   0.00000  Uiso   1.00
O3     O     0.42978   0.51189   0.59834   0.00000  Uiso   1.00
O4     O     0.43233   0.50812   0.36588   0.00000  Uiso   1.00
C2     C     0.40838   0.51093   0.48027   0.00000  Uiso   1.00
Zn1    Zn    0.50116   0.50830   0.64423   0.00000  Uiso   1.00
Zn2    Zn    0.50491   0.50428   0.33731   0.00000  Uiso   1.00
O5     O     0.50353   0.68637   0.60385   0.00000  Uiso   1.00
O6     O     0.50583   0.68368   0.37099   0.00000  Uiso   1.00
O7     O     0.57376   0.50446   0.61590   0.00000  Uiso   1.00
O8     O     0.57633   0.50126   0.38297   0.00000  Uiso   1.00
C3     C     0.50488   0.74127   0.48676   0.00000  Uiso   1.00
C4     C     0.59768   0.50142   0.50136   0.00000  Uiso   1.00
C5     C     0.17903   0.42446   0.41464   0.00000  Uiso   1.00
O9     O     0.20369   0.33383   0.35738   0.00000  Uiso   1.00
N1     N     0.20333   0.51583   0.47239   0.00000  Uiso   1.00
C6     C     0.17911   0.60588   0.53303   0.00000  Uiso   1.00
C7     C     0.27960   0.51540   0.59453   0.00000  Uiso   1.00
C8     C     0.32942   0.51417   0.59652   0.00000  Uiso   1.00
C9     C     0.33066   0.51300   0.35547   0.00000  Uiso   1.00
C10    C     0.28072   0.51414   0.35379   0.00000  Uiso   1.00
C11    C     0.25499   0.51541   0.47336   0.00000  Uiso   1.00
C12    C     0.10355   0.51219   0.48032   0.00000  Uiso   1.00
C13    C     0.12897   0.42162   0.41794   0.00000  Uiso   1.00
C14    C     0.10427   0.32841   0.35903   0.00000  Uiso   1.00
C15    C     0.12908   0.60510   0.53765   0.00000  Uiso   1.00
C16    C     0.35531   0.51292   0.47702   0.00000  Uiso   1.00
H1     H     0.34999   0.51225   0.26065   0.00000  Uiso   1.00
H2     H     0.26187   0.51515   0.25818   0.00000  Uiso   1.00
H3     H     0.12311   0.25730   0.30673   0.00000  Uiso   1.00
C17    C     0.65076   0.49871   0.50513   0.00000  Uiso   1.00
C18    C     0.97788   0.40684   0.44448   0.00000  Uiso   1.00
C19    C     0.97756   0.60401   0.54485   0.00000  Uiso   1.00
C20    C     0.95280   0.50403   0.49756   0.00000  Uiso   1.00
C21    C     0.95167   0.30545   0.40647   0.00000  Uiso   1.00
C22    C     0.90211   0.30341   0.41417   0.00000  Uiso   1.00
C23    C     0.87724   0.40184   0.46046   0.00000  Uiso   1.00
C24    C     0.90247   0.50131   0.50307   0.00000  Uiso   1.00
C25    C     0.87675   0.59819   0.55076   0.00000  Uiso   1.00
C26    C     0.82669   0.59505   0.55383   0.00000  Uiso   1.00
N2     N     0.80271   0.49693   0.51104   0.00000  Uiso   1.00
C27    C     0.82721   0.40064   0.46532   0.00000  Uiso   1.00
C28    C     0.72656   0.48252   0.38948   0.00000  Uiso   1.00
C29    C     0.67674   0.48376   0.38701   0.00000  Uiso   1.00
C30    C     0.67531   0.51163   0.62596   0.00000  Uiso   1.00
C31    C     0.72525   0.51089   0.62808   0.00000  Uiso   1.00
C32    C     0.75106   0.49642   0.50979   0.00000  Uiso   1.00
O10    O     0.80278   0.30243   0.42591   0.00000  Uiso   1.00
C33    C     0.02832   0.41256   0.43189   0.00000  Uiso   1.00
C34    C     0.05322   0.50964   0.48579   0.00000  Uiso   1.00
C35    C     0.02827   0.60402   0.54541   0.00000  Uiso   1.00
C36    C     0.05471   0.32385   0.36534   0.00000  Uiso   1.00
H4     H     0.65861   0.47252   0.29131   0.00000  Uiso   1.00
H5     H     0.74635   0.47223   0.29605   0.00000  Uiso   1.00
H6     H     0.88342   0.22294   0.38291   0.00000  Uiso   1.00
H7     H     0.96808   0.22325   0.37313   0.00000  Uiso   1.00
H8     H     0.03845   0.24985   0.31275   0.00000  Uiso   1.00
O11    O     0.20381   0.69786   0.58733   0.00000  Uiso   1.00
C37    C     0.10455   0.69623   0.60110   0.00000  Uiso   1.00
H9     H     0.34761   0.51367   0.69305   0.00000  Uiso   1.00
H10    H     0.25990   0.51478   0.68882   0.00000  Uiso   1.00
H11    H     0.12357   0.76924   0.64937   0.00000  Uiso   1.00
C38    C     0.95072   0.70226   0.58945   0.00000  Uiso   1.00
C39    C     0.90110   0.69900   0.59244   0.00000  Uiso   1.00
O12    O     0.80171   0.69148   0.59600   0.00000  Uiso   1.00
C40    C     0.05493   0.69585   0.60539   0.00000  Uiso   1.00
H12    H     0.96651   0.78609   0.61975   0.00000  Uiso   1.00
H13    H     0.65592   0.52335   0.71976   0.00000  Uiso   1.00
H14    H     0.88194   0.77746   0.62775   0.00000  Uiso   1.00
H15    H     0.74404   0.52086   0.72312   0.00000  Uiso   1.00
H16    H     0.03900   0.76850   0.66107   0.00000  Uiso   1.00
C41    C     0.50029   0.94235   0.37973   0.00000  Uiso   1.00
C42    C     0.50631   0.87321   0.48961   0.00000  Uiso   1.00
H17    H     0.51255   0.91260   0.58761   0.00000  Uiso   1.00
C43    C     0.50251   0.07509   0.38509   0.00000  Uiso   1.00
C44    C     0.49964   0.14002   0.49870   0.00000  Uiso   1.00
H18    H     0.50532   0.12108   0.28907   0.00000  Uiso   1.00
H19    H     0.49509   0.09886   0.59658   0.00000  Uiso   1.00
C45    C     0.53025   0.57197   0.91295   0.00000  Uiso   1.00
N3     N     0.49844   0.51269   0.84594   0.00000  Uiso   1.00
H20    H     0.55820   0.61985   0.85832   0.00000  Uiso   1.00
H21    H     0.46890   0.48131   0.89801   0.00000  Uiso   1.00
C46    C     0.52837   0.58298   0.06200   0.00000  Uiso   1.00
N4     N     0.50844   0.50150   0.13553   0.00000  Uiso   1.00
H22    H     0.49833   0.42399   0.08709   0.00000  Uiso   1.00
O13    O     0.49381   0.89033   0.25565   0.00000  Uiso   1.00
C47    C     0.44420   0.89788   0.23038   0.00000  Uiso   1.00
H23    H     0.43660   0.97771   0.16696   0.00000  Uiso   1.00
H24    H     0.42397   0.90493   0.32673   0.00000  Uiso   1.00
H25    H     0.43220   0.81589   0.17651   0.00000  Uiso   1.00
O14    O     0.54894   0.68149   0.12173   0.00000  Uiso   1.00
C48    C     0.59869   0.65987   0.12066   0.00000  Uiso   1.00
H26    H     0.61569   0.71025   0.03655   0.00000  Uiso   1.00
H27    H     0.60578   0.56260   0.10792   0.00000  Uiso   1.00
H28    H     0.61458   0.69013   0.21764   0.00000  Uiso   1.00
