# Generated by REPEAT Assigner based on pymatgen
data_DB0-m2_o4_o20_f0_nbo.sym.43
_audit_creation_date              2022-05-24
_audit_creation_method            REPEAT_Assigner
_cell_length_a                    30.572207
_cell_length_b                    28.860459
_cell_length_c                    30.562066
_cell_angle_alpha                 90.000000
_cell_angle_beta                  90.000000
_cell_angle_gamma                 90.000000
_cell_volume                      26965.763794
_symmetry_space_group_name_H-M    P1
_symmetry_Int_Tables_number       1
loop_
    _symmetry_equiv_pos_site_id
    _symmetry_equiv_pos_as_xyz
    1  x,y,z
loop_
    _atom_site_type_symbol
    _atom_site_label
    _atom_site_fract_x
    _atom_site_fract_y
    _atom_site_fract_z
    _atom_type_partial_charge
    O   O1    0.320285  0.002988  0.729957  -0.579326
    O   O2    0.679715  0.997012  0.729957  -0.579319
    O   O3    0.820285  0.502988  0.729957  -0.579334
    O   O4    0.179715  0.497012  0.729957  -0.579345
    O   O5    0.820285  0.002988  0.229957  -0.579305
    O   O6    0.179715  0.997012  0.229957  -0.579321
    O   O7    0.320285  0.502988  0.229957  -0.579340
    O   O8    0.679715  0.497012  0.229957  -0.579319
    O   O9    0.266810  0.001848  0.676494  -0.565236
    O   O10   0.733190  0.998152  0.676494  -0.565244
    O   O11   0.766810  0.501848  0.676494  -0.565257
    O   O12   0.233190  0.498152  0.676494  -0.565268
    O   O13   0.766810  0.001848  0.176494  -0.565231
    O   O14   0.233190  0.998152  0.176494  -0.565258
    O   O15   0.266810  0.501848  0.176494  -0.565270
    O   O16   0.733190  0.498152  0.176494  -0.565249
    C   C1    0.307869  0.004070  0.688879  0.740771
    C   C2    0.692131  0.995930  0.688879  0.740757
    C   C3    0.807869  0.504070  0.688879  0.740792
    C   C4    0.192131  0.495930  0.688879  0.740809
    C   C5    0.807869  0.004070  0.188879  0.740747
    C   C6    0.192131  0.995930  0.188879  0.740785
    C   C7    0.307869  0.504070  0.188879  0.740804
    C   C8    0.692131  0.495930  0.188879  0.740723
    O   O17   0.276867  0.932546  0.772449  -0.614952
    O   O18   0.723133  0.067454  0.772449  -0.614948
    O   O19   0.723960  0.932773  0.774917  -0.598437
    O   O20   0.276040  0.067227  0.774917  -0.598451
    O   O21   0.776867  0.432546  0.772449  -0.614971
    O   O22   0.223133  0.567454  0.772449  -0.614968
    O   O23   0.223960  0.432773  0.774917  -0.598472
    O   O24   0.776040  0.567227  0.774917  -0.598472
    O   O25   0.776867  0.932546  0.272449  -0.614953
    O   O26   0.223133  0.067454  0.272449  -0.614961
    O   O27   0.223960  0.932773  0.274917  -0.598458
    O   O28   0.776040  0.067227  0.274917  -0.598439
    O   O29   0.276867  0.432546  0.272449  -0.614975
    O   O30   0.723133  0.567454  0.272449  -0.614962
    O   O31   0.723960  0.432773  0.274917  -0.598467
    O   O32   0.276040  0.567227  0.274917  -0.598474
    O   O33   0.225019  0.932938  0.717661  -0.587828
    O   O34   0.774981  0.067062  0.717661  -0.587829
    O   O35   0.778839  0.932537  0.723142  -0.611524
    O   O36   0.221161  0.067463  0.723142  -0.611519
    O   O37   0.725019  0.432938  0.717661  -0.587851
    O   O38   0.274981  0.567062  0.717661  -0.587856
    O   O39   0.278839  0.432537  0.723142  -0.611544
    O   O40   0.721161  0.567463  0.723142  -0.611540
    O   O41   0.725019  0.932938  0.217661  -0.587836
    O   O42   0.274981  0.067062  0.217661  -0.587845
    O   O43   0.278839  0.932537  0.223142  -0.611541
    O   O44   0.721161  0.067463  0.223142  -0.611531
    O   O45   0.225019  0.432938  0.217661  -0.587866
    O   O46   0.774981  0.567062  0.217661  -0.587847
    O   O47   0.778839  0.432537  0.223142  -0.611544
    O   O48   0.221161  0.567463  0.223142  -0.611552
    C   C9    0.249927  0.911182  0.745857  0.818927
    C   C10   0.750073  0.088818  0.745857  0.818928
    C   C11   0.752998  0.911190  0.750836  0.806101
    C   C12   0.247002  0.088810  0.750836  0.806112
    C   C13   0.749927  0.411182  0.745857  0.818945
    C   C14   0.250073  0.588818  0.745857  0.818955
    C   C15   0.252998  0.411190  0.750836  0.806137
    C   C16   0.747002  0.588810  0.750836  0.806116
    C   C17   0.749927  0.911182  0.245857  0.818966
    C   C18   0.250073  0.088818  0.245857  0.818947
    C   C19   0.252998  0.911190  0.250836  0.806134
    C   C20   0.747002  0.088810  0.250836  0.806194
    C   C21   0.249927  0.411182  0.245857  0.818956
    C   C22   0.750073  0.588818  0.245857  0.818963
    C   C23   0.752998  0.411190  0.250836  0.806209
    C   C24   0.247002  0.588810  0.250836  0.806130
    Cu  Cu1   0.279464  0.999807  0.779011  1.007365
    Cu  Cu2   0.720536  0.000193  0.779011  1.007373
    Cu  Cu3   0.779464  0.499807  0.779011  1.007339
    Cu  Cu4   0.220536  0.500193  0.779011  1.007344
    Cu  Cu5   0.779464  0.999807  0.279011  1.007399
    Cu  Cu6   0.220536  0.000193  0.279011  1.007387
    Cu  Cu7   0.279464  0.499807  0.279011  1.007345
    Cu  Cu8   0.720536  0.500193  0.279011  1.007332
    Cu  Cu9   0.217767  0.000156  0.717395  0.981735
    Cu  Cu10  0.782233  0.999844  0.717395  0.981692
    Cu  Cu11  0.717767  0.500156  0.717395  0.981653
    Cu  Cu12  0.282233  0.499844  0.717395  0.981701
    Cu  Cu13  0.717767  0.000156  0.217395  0.981694
    Cu  Cu14  0.282233  0.999844  0.217395  0.981715
    Cu  Cu15  0.217767  0.500156  0.217395  0.981651
    Cu  Cu16  0.782233  0.499844  0.217395  0.981634
    O   O49   0.230291  0.000534  0.819794  -0.617347
    O   O50   0.769709  0.999466  0.819794  -0.617336
    O   O51   0.730291  0.500534  0.819794  -0.617363
    O   O52   0.269709  0.499466  0.819794  -0.617365
    O   O53   0.730291  0.000534  0.319794  -0.617344
    O   O54   0.269709  0.999466  0.319794  -0.617356
    O   O55   0.230291  0.500534  0.319794  -0.617371
    O   O56   0.769709  0.499466  0.319794  -0.617348
    O   O57   0.177227  0.994681  0.766505  -0.594098
    O   O58   0.822773  0.005319  0.766505  -0.594094
    O   O59   0.677227  0.494681  0.766505  -0.594106
    O   O60   0.322773  0.505319  0.766505  -0.594120
    O   O61   0.677227  0.994681  0.266505  -0.594103
    O   O62   0.322773  0.005319  0.266505  -0.594116
    O   O63   0.177227  0.494681  0.266505  -0.594137
    O   O64   0.822773  0.505319  0.266505  -0.594114
    C   C25   0.189363  0.996769  0.807580  0.691944
    C   C26   0.810637  0.003231  0.807580  0.691944
    C   C27   0.689363  0.496769  0.807580  0.691955
    C   C28   0.310637  0.503231  0.807580  0.691970
    C   C29   0.689363  0.996769  0.307580  0.691931
    C   C30   0.310637  0.003231  0.307580  0.691970
    C   C31   0.189363  0.496769  0.307580  0.691984
    C   C32   0.810637  0.503231  0.307580  0.691932
    C   C33   0.250507  0.861510  0.744882  -0.234714
    C   C34   0.749493  0.138489  0.744882  -0.234709
    C   C35   0.752592  0.861500  0.750755  -0.219859
    C   C36   0.247408  0.138500  0.750755  -0.219835
    C   C37   0.750507  0.361511  0.744882  -0.234713
    C   C38   0.249493  0.638489  0.744882  -0.234721
    C   C39   0.252592  0.361500  0.750755  -0.219834
    C   C40   0.747408  0.638500  0.750755  -0.219812
    C   C41   0.750507  0.861511  0.244882  -0.234746
    C   C42   0.249493  0.138489  0.244882  -0.234713
    C   C43   0.252592  0.861500  0.250755  -0.219832
    C   C44   0.747408  0.138500  0.250755  -0.219995
    C   C45   0.250507  0.361511  0.244882  -0.234724
    C   C46   0.749493  0.638490  0.244882  -0.234751
    C   C47   0.752592  0.361500  0.250755  -0.220003
    C   C48   0.247408  0.638500  0.250755  -0.219832
    C   C49   0.250519  0.819775  0.744332  0.094490
    C   C50   0.749481  0.180224  0.744332  0.094475
    C   C51   0.751796  0.819766  0.750638  0.087464
    C   C52   0.248204  0.180234  0.750638  0.087444
    C   C53   0.750519  0.319776  0.744332  0.094476
    C   C54   0.249481  0.680224  0.744332  0.094477
    C   C55   0.251796  0.319766  0.750638  0.087430
    C   C56   0.748204  0.680234  0.750638  0.087409
    C   C57   0.750519  0.819776  0.244332  0.094497
    C   C58   0.249481  0.180224  0.244332  0.094476
    C   C59   0.251796  0.819766  0.250638  0.087433
    C   C60   0.748204  0.180234  0.250638  0.087569
    C   C61   0.250519  0.319776  0.244332  0.094482
    C   C62   0.749481  0.680225  0.244332  0.094497
    C   C63   0.751796  0.319766  0.250638  0.087544
    C   C64   0.248204  0.680234  0.250638  0.087425
    C   C65   0.250186  0.770870  0.744006  -0.018287
    C   C66   0.749814  0.229130  0.744006  -0.018282
    C   C67   0.750563  0.770866  0.750548  -0.016931
    C   C68   0.249437  0.229134  0.750548  -0.016909
    C   C69   0.750186  0.270870  0.744006  -0.018282
    C   C70   0.249814  0.729130  0.744006  -0.018273
    C   C71   0.250563  0.270866  0.750548  -0.016895
    C   C72   0.749437  0.729134  0.750548  -0.016881
    C   C73   0.750186  0.770870  0.244006  -0.018284
    C   C74   0.249814  0.229130  0.244006  -0.018279
    C   C75   0.250563  0.770866  0.250548  -0.016908
    C   C76   0.749437  0.229134  0.250548  -0.016958
    C   C77   0.250186  0.270870  0.244006  -0.018282
    C   C78   0.749814  0.729130  0.244006  -0.018283
    C   C79   0.750563  0.270866  0.250548  -0.016916
    C   C80   0.249437  0.729134  0.250548  -0.016896
    C   C81   0.373634  0.974129  0.653601  0.232925
    C   C82   0.626366  0.025871  0.653601  0.232946
    C   C83   0.873634  0.474129  0.653601  0.232917
    C   C84   0.126366  0.525871  0.653601  0.232916
    C   C85   0.873634  0.974129  0.153601  0.232919
    C   C86   0.126366  0.025871  0.153601  0.232910
    C   C87   0.373634  0.474129  0.153601  0.232924
    C   C88   0.626366  0.525871  0.153601  0.232916
    C   C89   0.341659  0.007229  0.655267  -0.361037
    C   C90   0.658341  0.992771  0.655267  -0.361089
    C   C91   0.841659  0.507229  0.655267  -0.361083
    C   C92   0.158341  0.492771  0.655267  -0.361063
    C   C93   0.841659  0.007229  0.155267  -0.361031
    C   C94   0.158341  0.992771  0.155267  -0.361025
    C   C95   0.341659  0.507229  0.155267  -0.361063
    C   C96   0.658341  0.492771  0.155267  -0.361034
    C   C97   0.343527  0.042421  0.623758  0.053551
    C   C98   0.656473  0.957579  0.623758  0.053719
    C   C99   0.843527  0.542421  0.623758  0.053587
    C   C100  0.156473  0.457579  0.623758  0.053548
    C   C101  0.843527  0.042421  0.123758  0.053548
    C   C102  0.156473  0.957579  0.123758  0.053528
    C   C103  0.343527  0.542421  0.123758  0.053546
    C   C104  0.656473  0.457579  0.123758  0.053687
    C   C105  0.376582  0.041278  0.591939  -0.114669
    C   C106  0.623418  0.958722  0.591939  -0.114584
    C   C107  0.876582  0.541278  0.591939  -0.114686
    C   C108  0.123418  0.458722  0.591939  -0.114652
    C   C109  0.876582  0.041278  0.091939  -0.114628
    C   C110  0.123418  0.958722  0.091939  -0.114601
    C   C111  0.376582  0.541278  0.091939  -0.114611
    C   C112  0.623418  0.458722  0.091939  -0.114589
    H   H1    0.378010  0.067903  0.567199  0.146188
    H   H2    0.621990  0.932097  0.567199  0.146121
    H   H3    0.878010  0.567903  0.567199  0.146196
    H   H4    0.121990  0.432097  0.567199  0.146177
    H   H5    0.878010  0.067903  0.067199  0.146191
    H   H6    0.121990  0.932097  0.067199  0.146170
    H   H7    0.378010  0.567903  0.067199  0.146184
    H   H8    0.621990  0.432097  0.067199  0.146177
    C   C113  0.407407  0.005932  0.591124  -0.320947
    C   C114  0.592593  0.994068  0.591124  -0.321040
    C   C115  0.907407  0.505932  0.591124  -0.320957
    C   C116  0.092593  0.494068  0.591124  -0.320958
    C   C117  0.907407  0.005932  0.091124  -0.321001
    C   C118  0.092593  0.994068  0.091124  -0.320989
    C   C119  0.407407  0.505932  0.091124  -0.320973
    C   C120  0.592593  0.494068  0.091124  -0.321037
    C   C121  0.404282  0.972959  0.623085  0.177591
    C   C122  0.595718  0.027041  0.623085  0.177583
    C   C123  0.904282  0.472959  0.623085  0.177608
    C   C124  0.095718  0.527041  0.623085  0.177607
    C   C125  0.904282  0.972959  0.123085  0.177628
    C   C126  0.095718  0.027041  0.123085  0.177613
    C   C127  0.404282  0.472959  0.123085  0.177604
    C   C128  0.595718  0.527041  0.123085  0.177612
    C   C129  0.424508  0.929616  0.639537  -0.171242
    C   C130  0.575492  0.070384  0.639537  -0.171225
    C   C131  0.924508  0.429616  0.639537  -0.171229
    C   C132  0.075492  0.570384  0.639537  -0.171228
    C   C133  0.924508  0.929616  0.139537  -0.171261
    C   C134  0.075492  0.070384  0.139537  -0.171209
    C   C135  0.424508  0.429616  0.139537  -0.171215
    C   C136  0.575492  0.570384  0.139537  -0.171234
    C   C137  0.388152  0.930909  0.675349  -0.196561
    C   C138  0.611848  0.069091  0.675349  -0.196570
    C   C139  0.888152  0.430909  0.675349  -0.196577
    C   C140  0.111848  0.569091  0.675349  -0.196581
    C   C141  0.888152  0.930909  0.175349  -0.196561
    C   C142  0.111848  0.069091  0.175349  -0.196593
    C   C143  0.388152  0.430909  0.175349  -0.196604
    C   C144  0.611848  0.569091  0.175349  -0.196585
    H   H9    0.420641  0.900402  0.616291  0.082326
    H   H10   0.579359  0.099598  0.616291  0.082320
    H   H11   0.542185  0.064537  0.652808  0.085164
    H   H12   0.457815  0.935463  0.652808  0.085169
    H   H13   0.920641  0.400402  0.616291  0.082327
    H   H14   0.079359  0.599598  0.616291  0.082325
    H   H15   0.042185  0.564537  0.652808  0.085164
    H   H16   0.957815  0.435463  0.652808  0.085165
    H   H17   0.920641  0.900402  0.116291  0.082330
    H   H18   0.079359  0.099598  0.116291  0.082317
    H   H19   0.042185  0.064537  0.152808  0.085161
    H   H20   0.957815  0.935463  0.152808  0.085172
    H   H21   0.420641  0.400402  0.116291  0.082323
    H   H22   0.579359  0.599598  0.116290  0.082322
    H   H23   0.542185  0.564537  0.152808  0.085170
    H   H24   0.457815  0.435463  0.152808  0.085166
    H   H25   0.363885  0.902579  0.671936  0.086603
    H   H26   0.636115  0.097421  0.671936  0.086607
    H   H27   0.598902  0.062692  0.708698  0.086380
    H   H28   0.401098  0.937308  0.708698  0.086375
    H   H29   0.863885  0.402579  0.671936  0.086605
    H   H30   0.136115  0.597421  0.671936  0.086608
    H   H31   0.098902  0.562692  0.708698  0.086379
    H   H32   0.901098  0.437308  0.708698  0.086377
    H   H33   0.863885  0.902579  0.171936  0.086606
    H   H34   0.136115  0.097421  0.171936  0.086611
    H   H35   0.098902  0.062692  0.208698  0.086379
    H   H36   0.901098  0.937308  0.208698  0.086369
    H   H37   0.363885  0.402579  0.171936  0.086614
    H   H38   0.636115  0.597421  0.171936  0.086613
    H   H39   0.598902  0.562692  0.208698  0.086378
    H   H40   0.401098  0.437308  0.208698  0.086377
    C   C145  0.161424  0.016111  0.881068  0.147397
    C   C146  0.838576  0.983889  0.881068  0.147397
    C   C147  0.661424  0.516111  0.881068  0.147316
    C   C148  0.338576  0.483889  0.881068  0.147398
    C   C149  0.661424  0.016111  0.381068  0.147320
    C   C150  0.338576  0.983889  0.381068  0.147399
    C   C151  0.161424  0.516111  0.381068  0.147396
    C   C152  0.838576  0.483889  0.381068  0.147388
    C   C153  0.155698  0.994951  0.841371  -0.139616
    C   C154  0.844302  0.005049  0.841371  -0.139630
    C   C155  0.655698  0.494951  0.841371  -0.139581
    C   C156  0.344302  0.505049  0.841371  -0.139641
    C   C157  0.655698  0.994951  0.341371  -0.139554
    C   C158  0.344302  0.005049  0.341371  -0.139633
    C   C159  0.155698  0.494951  0.341371  -0.139649
    C   C160  0.844302  0.505049  0.341371  -0.139605
    C   C161  0.116206  0.972194  0.834756  -0.147025
    C   C162  0.883794  0.027806  0.834755  -0.147022
    C   C163  0.616206  0.472194  0.834755  -0.147161
    C   C164  0.383794  0.527806  0.834755  -0.147029
    C   C165  0.616206  0.972194  0.334755  -0.147159
    C   C166  0.383794  0.027806  0.334755  -0.147029
    C   C167  0.116206  0.472194  0.334755  -0.147026
    C   C168  0.883794  0.527806  0.334756  -0.147039
    H   H41   0.109921  0.954575  0.804191  0.141768
    H   H42   0.890079  0.045425  0.804191  0.141772
    H   H43   0.609921  0.454575  0.804191  0.141777
    H   H44   0.390079  0.545425  0.804191  0.141773
    H   H45   0.609921  0.954575  0.304191  0.141780
    H   H46   0.390079  0.045425  0.304191  0.141778
    H   H47   0.109921  0.454575  0.304191  0.141776
    H   H48   0.890079  0.545425  0.304191  0.141767
    C   C169  0.084608  0.971061  0.867717  -0.070825
    C   C170  0.915392  0.028939  0.867717  -0.070836
    C   C171  0.584608  0.471061  0.867717  -0.070483
    C   C172  0.415392  0.528939  0.867717  -0.070813
    C   C173  0.584608  0.971061  0.367717  -0.070477
    C   C174  0.415392  0.028939  0.367717  -0.070811
    C   C175  0.084608  0.471061  0.367717  -0.070829
    C   C176  0.915392  0.528939  0.367717  -0.070816
    H   H49   0.054110  0.953110  0.862003  0.124313
    H   H50   0.945890  0.046890  0.862003  0.124317
    H   H51   0.554110  0.453110  0.862003  0.124196
    H   H52   0.445890  0.546890  0.862003  0.124303
    H   H53   0.554110  0.953110  0.362003  0.124193
    H   H54   0.445890  0.046890  0.362003  0.124301
    H   H55   0.054110  0.453110  0.362003  0.124312
    H   H56   0.945890  0.546890  0.362003  0.124314
    C   C177  0.091446  0.994388  0.906843  -0.266707
    C   C178  0.908554  0.005612  0.906843  -0.266710
    C   C179  0.591446  0.494388  0.906843  -0.266881
    C   C180  0.408554  0.505612  0.906843  -0.266713
    C   C181  0.591446  0.994388  0.406843  -0.266926
    C   C182  0.408554  0.005612  0.406843  -0.266718
    C   C183  0.091446  0.494388  0.406843  -0.266705
    C   C184  0.908554  0.505612  0.406843  -0.266730
    C   C185  0.130631  0.016799  0.911559  0.190327
    C   C186  0.869369  0.983201  0.911559  0.190321
    C   C187  0.630631  0.516799  0.911559  0.190412
    C   C188  0.369369  0.483201  0.911559  0.190321
    C   C189  0.630631  0.016799  0.411559  0.190429
    C   C190  0.369369  0.983201  0.411559  0.190312
    C   C191  0.130631  0.516799  0.411559  0.190328
    C   C192  0.869369  0.483201  0.411559  0.190338
    C   C193  0.156369  0.045425  0.942526  -0.186080
    C   C194  0.843631  0.954575  0.942526  -0.186045
    C   C195  0.656369  0.545425  0.942526  -0.186078
    C   C196  0.343631  0.454575  0.942526  -0.186065
    C   C197  0.656369  0.045425  0.442526  -0.186109
    C   C198  0.343631  0.954575  0.442526  -0.186057
    C   C199  0.156369  0.545425  0.442526  -0.186058
    C   C200  0.843631  0.454575  0.442526  -0.186033
    C   C201  0.192537  0.044893  0.906486  -0.147320
    C   C202  0.807463  0.955107  0.906486  -0.147348
    C   C203  0.692537  0.544893  0.906486  -0.147325
    C   C204  0.307463  0.455107  0.906486  -0.147329
    C   C205  0.692537  0.044893  0.406486  -0.147298
    C   C206  0.307463  0.955107  0.406486  -0.147317
    C   C207  0.192537  0.544893  0.406486  -0.147337
    C   C208  0.807463  0.455107  0.406486  -0.147372
    H   H57   0.141768  0.080183  0.947595  0.094710
    H   H58   0.858232  0.919817  0.947595  0.094707
    H   H59   0.834337  0.974085  0.972376  0.074300
    H   H60   0.165663  0.025915  0.972376  0.074308
    H   H61   0.641768  0.580183  0.947595  0.094709
    H   H62   0.358232  0.419817  0.947595  0.094712
    H   H63   0.334337  0.474085  0.972376  0.074302
    H   H64   0.665663  0.525915  0.972376  0.074307
    H   H65   0.641768  0.080183  0.447595  0.094708
    H   H66   0.358232  0.919817  0.447595  0.094707
    H   H67   0.334337  0.974085  0.472376  0.074298
    H   H68   0.665663  0.025915  0.472376  0.074313
    H   H69   0.141768  0.580183  0.447595  0.094708
    H   H70   0.858232  0.419817  0.447595  0.094703
    H   H71   0.834337  0.474085  0.472376  0.074294
    H   H72   0.165663  0.525915  0.472376  0.074302
    H   H73   0.197946  0.079316  0.891301  0.072908
    H   H74   0.802054  0.920684  0.891301  0.072916
    H   H75   0.777836  0.974699  0.916271  0.084975
    H   H76   0.222164  0.025301  0.916271  0.084972
    H   H77   0.697946  0.579316  0.891301  0.072914
    H   H78   0.302054  0.420684  0.891301  0.072906
    H   H79   0.277836  0.474699  0.916271  0.084970
    H   H80   0.722164  0.525301  0.916271  0.084974
    H   H81   0.697946  0.079316  0.391301  0.072914
    H   H82   0.302054  0.920684  0.391301  0.072906
    H   H83   0.277836  0.974699  0.416271  0.084968
    H   H84   0.722164  0.025301  0.416271  0.084968
    H   H85   0.197946  0.579316  0.391301  0.072912
    H   H86   0.802054  0.420684  0.391301  0.072924
    H   H87   0.777836  0.474699  0.416271  0.084978
    H   H88   0.222164  0.525301  0.416271  0.084971
    O   O65   0.944520  0.965787  0.964816  -0.624978
    O   O66   0.055480  0.034213  0.964816  -0.624949
    O   O67   0.032227  0.959837  0.946148  -0.613394
    O   O68   0.967773  0.040163  0.946148  -0.613384
    O   O69   0.444520  0.465787  0.964816  -0.624979
    O   O70   0.555480  0.534213  0.964816  -0.624964
    O   O71   0.532227  0.459837  0.946148  -0.613394
    O   O72   0.467773  0.540163  0.946148  -0.613426
    O   O73   0.444520  0.965787  0.464816  -0.624989
    O   O74   0.555480  0.034213  0.464816  -0.624980
    O   O75   0.532227  0.959837  0.446148  -0.613409
    O   O76   0.467773  0.040163  0.446148  -0.613437
    O   O77   0.944520  0.465787  0.464816  -0.625003
    O   O78   0.055480  0.534213  0.464816  -0.624954
    O   O79   0.032227  0.459837  0.446148  -0.613424
    O   O80   0.967773  0.540163  0.446148  -0.613392
    C   C209  0.941822  0.003887  0.940968  0.820691
    C   C210  0.058178  0.996113  0.940968  0.820665
    C   C211  0.441822  0.503887  0.940968  0.820713
    C   C212  0.558178  0.496113  0.940968  0.820660
    C   C213  0.441822  0.003887  0.440968  0.820695
    C   C214  0.558178  0.996113  0.440968  0.820683
    C   C215  0.941822  0.503887  0.440968  0.820709
    C   C216  0.058178  0.496113  0.440968  0.820681
    O   O81   0.463073  0.964511  0.552714  -0.622548
    O   O82   0.536927  0.035489  0.552714  -0.622552
    O   O83   0.550840  0.958559  0.534081  -0.635590
    O   O84   0.449160  0.041441  0.534081  -0.635596
    O   O85   0.963073  0.464511  0.552714  -0.622563
    O   O86   0.036927  0.535489  0.552714  -0.622513
    O   O87   0.050840  0.458559  0.534081  -0.635568
    O   O88   0.949160  0.541441  0.534081  -0.635542
    O   O89   0.963073  0.964511  0.052714  -0.622520
    O   O90   0.036927  0.035489  0.052714  -0.622492
    O   O91   0.050840  0.958559  0.034081  -0.635540
    O   O92   0.949160  0.041441  0.034081  -0.635540
    O   O93   0.463073  0.464511  0.052714  -0.622515
    O   O94   0.536927  0.535489  0.052714  -0.622517
    O   O95   0.550840  0.458559  0.034081  -0.635567
    O   O96   0.449160  0.541441  0.034081  -0.635584
    C   C217  0.441531  0.003901  0.557730  0.838519
    C   C218  0.558469  0.996099  0.557730  0.838572
    C   C219  0.941531  0.503901  0.557730  0.838551
    C   C220  0.058469  0.496099  0.557730  0.838528
    C   C221  0.941531  0.003901  0.057730  0.838541
    C   C222  0.058469  0.996099  0.057730  0.838508
    C   C223  0.441531  0.503901  0.057730  0.838529
    C   C224  0.558469  0.496099  0.057730  0.838561
    Cu  Cu17  0.997242  0.955042  0.999452  0.967547
    Cu  Cu18  0.002758  0.044958  0.999452  0.967665
    Cu  Cu19  0.497242  0.455042  0.999452  0.967594
    Cu  Cu20  0.502758  0.544958  0.999452  0.967564
    Cu  Cu21  0.497242  0.955042  0.499452  0.967567
    Cu  Cu22  0.502758  0.044958  0.499452  0.967551
    Cu  Cu23  0.997242  0.455042  0.499452  0.967484
    Cu  Cu24  0.002758  0.544958  0.499452  0.967689
    C   C225  0.311933  0.082417  0.624166  0.426657
    C   C226  0.336254  0.128152  0.627580  -0.398336
    C   C227  0.283668  0.081686  0.583349  -0.376327
    H   H89   0.289886  0.080987  0.652729  -0.000343
    H   H90   0.352724  0.136945  0.596374  0.087133
    H   H91   0.360838  0.125875  0.654176  0.068452
    H   H92   0.312592  0.156033  0.635518  0.092910
    H   H93   0.303592  0.087932  0.553641  0.083843
    H   H94   0.258366  0.109078  0.585893  0.083292
    H   H95   0.267407  0.047459  0.580652  0.072857
    C   C228  0.688067  0.917583  0.624166  0.426248
    C   C229  0.663746  0.871848  0.627580  -0.398390
    C   C230  0.716332  0.918314  0.583349  -0.376347
    H   H96   0.710114  0.919013  0.652729  -0.000143
    H   H97   0.647276  0.863055  0.596374  0.087207
    H   H98   0.639162  0.874125  0.654176  0.068467
    H   H99   0.687408  0.843967  0.635518  0.092931
    H   H100  0.696408  0.912068  0.553641  0.083908
    H   H101  0.741634  0.890922  0.585893  0.083311
    H   H102  0.732593  0.952541  0.580652  0.072856
    C   C231  0.811933  0.582417  0.624166  0.426632
    C   C232  0.836254  0.628152  0.627580  -0.398323
    C   C233  0.783668  0.581686  0.583349  -0.376336
    H   H103  0.789886  0.580987  0.652729  -0.000350
    H   H104  0.852724  0.636945  0.596374  0.087142
    H   H105  0.860838  0.625875  0.654176  0.068446
    H   H106  0.812592  0.656033  0.635518  0.092905
    H   H107  0.803592  0.587932  0.553641  0.083857
    H   H108  0.758366  0.609078  0.585893  0.083293
    H   H109  0.767407  0.547459  0.580652  0.072850
    C   C234  0.188067  0.417583  0.624166  0.426651
    C   C235  0.163746  0.371848  0.627580  -0.398340
    C   C236  0.216332  0.418314  0.583349  -0.376326
    H   H110  0.210114  0.419013  0.652729  -0.000351
    H   H111  0.147276  0.363055  0.596374  0.087146
    H   H112  0.139162  0.374125  0.654176  0.068449
    H   H113  0.187408  0.343967  0.635518  0.092908
    H   H114  0.196408  0.412068  0.553641  0.083857
    H   H115  0.241634  0.390922  0.585893  0.083288
    H   H116  0.232593  0.452541  0.580652  0.072849
    C   C237  0.811933  0.082417  0.124166  0.426534
    C   C238  0.836254  0.128152  0.127580  -0.398301
    C   C239  0.783668  0.081686  0.083349  -0.376271
    H   H117  0.789886  0.080987  0.152729  -0.000288
    H   H118  0.852724  0.136945  0.096374  0.087123
    H   H119  0.860838  0.125875  0.154176  0.068453
    H   H120  0.812592  0.156033  0.135518  0.092907
    H   H121  0.803592  0.087932  0.053641  0.083838
    H   H122  0.758366  0.109078  0.085893  0.083287
    H   H123  0.767407  0.047459  0.080652  0.072834
    C   C240  0.188067  0.917583  0.124166  0.426535
    C   C241  0.163746  0.871848  0.127580  -0.398314
    C   C242  0.216332  0.918314  0.083349  -0.376260
    H   H124  0.210114  0.919013  0.152729  -0.000313
    H   H125  0.147276  0.863055  0.096374  0.087143
    H   H126  0.139162  0.874125  0.154176  0.068451
    H   H127  0.187408  0.843967  0.135518  0.092907
    H   H128  0.196408  0.912068  0.053641  0.083852
    H   H129  0.241634  0.890922  0.085893  0.083286
    H   H130  0.232593  0.952541  0.080652  0.072824
    C   C243  0.311933  0.582417  0.124166  0.426526
    C   C244  0.336254  0.628152  0.127580  -0.398306
    C   C245  0.283668  0.581686  0.083349  -0.376263
    H   H131  0.289886  0.580987  0.152729  -0.000312
    H   H132  0.352724  0.636945  0.096374  0.087140
    H   H133  0.360838  0.625875  0.154176  0.068450
    H   H134  0.312592  0.656033  0.135518  0.092905
    H   H135  0.303592  0.587932  0.053641  0.083850
    H   H136  0.258366  0.609078  0.085893  0.083284
    H   H137  0.267407  0.547459  0.080652  0.072825
    C   C246  0.688067  0.417583  0.124166  0.426089
    C   C247  0.663746  0.371848  0.127580  -0.398293
    C   C248  0.716332  0.418314  0.083349  -0.376225
    H   H138  0.710114  0.419013  0.152729  -0.000100
    H   H139  0.647276  0.363055  0.096374  0.087170
    H   H140  0.639162  0.374125  0.154176  0.068460
    H   H141  0.687408  0.343967  0.135518  0.092917
    H   H142  0.696408  0.412068  0.053641  0.083875
    H   H143  0.741634  0.390922  0.085893  0.083292
    H   H144  0.732593  0.452541  0.080652  0.072821
