# Generated by REPEAT Assigner based on pymatgen
data_DB0-m29_o82_o45_f0_pts.sym.96
_audit_creation_date              2022-05-24
_audit_creation_method            REPEAT_Assigner
_cell_length_a                    14.602546
_cell_length_b                    9.386246
_cell_length_c                    17.288401
_cell_angle_alpha                 89.146321
_cell_angle_beta                  91.014466
_cell_angle_gamma                 110.214516
_cell_volume                      2223.201361
_symmetry_space_group_name_H-M    P1
_symmetry_Int_Tables_number       1
loop_
    _symmetry_equiv_pos_site_id
    _symmetry_equiv_pos_as_xyz
    1  x,y,z
loop_
    _atom_site_type_symbol
    _atom_site_label
    _atom_site_fract_x
    _atom_site_fract_y
    _atom_site_fract_z
    _atom_type_partial_charge
    C   C1   0.226617  0.913733  0.905357  0.051044
    C   C2   0.133041  0.866250  0.875030  -0.153398
    C   C3   0.058353  0.889620  0.914379  -0.138238
    C   C4   0.912663  0.040920  0.905450  -0.223898
    C   C5   0.241847  0.970479  0.979955  -0.046839
    C   C6   0.166743  0.996952  0.018950  0.042006
    C   C7   0.076503  0.970148  0.983044  0.159907
    C   C8   0.004086  0.009790  0.020658  -0.144236
    C   C9   0.825534  0.032019  0.869701  -0.096658
    C   C10  0.742414  0.003210  0.914035  0.120813
    C   C11  0.918519  0.016149  0.984402  0.204453
    C   C12  0.840393  0.015329  0.029009  0.026066
    C   C13  0.750681  0.998383  0.993950  -0.108556
    C   C14  0.180668  0.045453  0.094951  -0.110372
    C   C15  0.105138  0.062376  0.134952  -0.205844
    C   C16  0.017548  0.043919  0.098543  0.262153
    C   C17  0.943895  0.061818  0.141113  -0.265172
    C   C18  0.854643  0.041276  0.107721  -0.038111
    H   H1   0.116945  0.811271  0.819460  0.154669
    H   H2   0.985708  0.839491  0.890537  0.124449
    H   H3   0.976834  0.071946  0.870114  0.133853
    H   H4   0.247716  0.062745  0.126892  0.133661
    H   H5   0.115703  0.092768  0.195356  0.138436
    H   H6   0.955070  0.088986  0.201879  0.160601
    H   H7   0.800717  0.059913  0.144027  0.104690
    O   O1   0.600437  0.039386  0.022342  -0.542069
    C   C19  0.663776  0.973397  0.041094  0.577023
    O   O2   0.460602  0.687924  0.086235  -0.409346
    O   O3   0.649788  0.885968  0.102759  -0.465288
    O   O4   0.482807  0.851389  0.186125  -0.491564
    C   C20  0.467521  0.713483  0.160918  0.438543
    Fe  Fe1  0.495603  0.997038  0.099444  1.422246
    O   O5   0.368719  0.900179  0.042609  -0.556923
    O   O6   0.388556  0.150666  0.031675  -0.464647
    C   C21  0.337367  0.008173  0.017467  0.599698
    O   O7   0.525829  0.203110  0.145942  -0.607822
    O   O8   0.423455  0.071350  0.240589  -0.492870
    C   C22  0.476752  0.200811  0.209133  0.569924
    O   O9   0.441654  0.768470  0.751817  -0.484371
    O   O10  0.563902  0.887052  0.669279  -0.368168
    C   C23  0.493487  0.763616  0.691337  0.493902
    O   O11  0.624360  0.071807  0.835565  -0.500035
    O   O12  0.576618  0.839481  0.893213  -0.448715
    C   C24  0.645220  0.970119  0.878564  0.527790
    O   O13  0.289212  0.878796  0.782011  -0.521226
    O   O14  0.491810  0.118362  0.704346  -0.485963
    C   C25  0.473509  0.237506  0.728754  0.519877
    O   O15  0.398191  0.958370  0.880535  -0.453285
    C   C26  0.307127  0.910819  0.855581  0.553013
    O   O16  0.457963  0.248479  0.802586  -0.513696
    Fe  Fe2  0.487906  0.980684  0.793063  1.371683
    C   C27  0.475180  0.361320  0.675307  0.161357
    C   C28  0.483832  0.347586  0.596644  -0.296225
    H   H8   0.484698  0.242047  0.573105  0.173823
    C   C29  0.488773  0.466186  0.546528  0.384499
    C   C30  0.492198  0.605735  0.576648  -0.158138
    C   C31  0.482051  0.617753  0.655793  0.167573
    C   C32  0.470683  0.494823  0.704078  -0.274970
    N   N1   0.490167  0.439225  0.466024  -0.241020
    N   N2   0.456482  0.520545  0.425420  -0.077246
    C   C33  0.459296  0.609160  0.294017  -0.397917
    H   H9   0.454092  0.713070  0.316234  0.189565
    C   C34  0.466428  0.591476  0.215434  0.267803
    C   C35  0.474906  0.458898  0.188507  -0.320603
    C   C36  0.473489  0.343367  0.239397  0.167462
    C   C37  0.465413  0.360623  0.317781  -0.268958
    H   H10  0.463415  0.267688  0.356195  0.138345
    C   C38  0.460205  0.495397  0.345371  0.389111
    H   H11  0.465765  0.508132  0.765653  0.193567
    H   H12  0.480583  0.443487  0.127200  0.229662
    C   C39  0.510464  0.742365  0.527670  0.158395
    H   H13  0.563528  0.766679  0.481776  0.132603
    O   O17  0.463417  0.825903  0.536149  -0.313925
    C   C40  0.825123  0.044862  0.784644  0.431511
    H   H14  0.893947  0.080964  0.754467  0.016801
    O   O18  0.749564  0.008407  0.746784  -0.406264
