# Generated by REPEAT Assigner based on pymatgen
data_DB0-m2_o18_o29_f0_pcu.sym.16_sqe
_audit_creation_date              2022-05-24
_audit_creation_method            REPEAT_Assigner
_cell_length_a                    14.507788
_cell_length_b                    14.986330
_cell_length_c                    27.550326
_cell_angle_alpha                 76.546264
_cell_angle_beta                  103.821314
_cell_angle_gamma                 115.231403
_cell_volume                      5202.898285
_symmetry_space_group_name_H-M    P1
_symmetry_Int_Tables_number       1
loop_
    _symmetry_equiv_pos_site_id
    _symmetry_equiv_pos_as_xyz
    1  x,y,z
loop_
    _atom_site_type_symbol
    _atom_site_label
    _atom_site_fract_x
    _atom_site_fract_y
    _atom_site_fract_z
    _atom_type_partial_charge
    O   O1   0.981775  0.343989  0.520821  -0.479244
    O   O2   0.015213  0.665579  0.480504  -0.551557
    O   O3   0.839262  0.383115  0.500800  -0.588343
    O   O4   0.157821  0.626214  0.500793  -0.593482
    C   C1   0.881637  0.317521  0.514020  0.673003
    C   C2   0.115637  0.691866  0.487374  0.754988
    O   O5   0.070465  0.488723  0.582633  -0.605566
    O   O6   0.926419  0.520346  0.418814  -0.575887
    O   O7   0.931908  0.534595  0.558612  -0.578634
    O   O8   0.065234  0.475027  0.442804  -0.547413
    C   C3   0.001971  0.513493  0.593276  0.678149
    C   C4   0.995007  0.495766  0.408158  0.613882
    Cu  Cu1  0.081732  0.482134  0.514432  0.827025
    Cu  Cu2  0.915262  0.527240  0.486996  0.855534
    C   C5   0.912397  0.457775  0.818665  0.446048
    C   C6   0.079801  0.555093  0.182003  0.444158
    O   O9   0.827379  0.402711  0.789730  -0.520445
    O   O10  0.160652  0.617896  0.209619  -0.521746
    N   N1   0.999470  0.513606  0.798669  -0.184164
    N   N2   0.996330  0.491350  0.203275  -0.170945
    C   C7   0.085940  0.567267  0.827582  0.450274
    C   C8   0.913673  0.429628  0.175752  0.443688
    C   C9   0.935680  0.547682  0.708971  -0.198488
    C   C10  0.066626  0.467304  0.292653  -0.199624
    C   C11  0.936366  0.547924  0.658945  -0.053422
    C   C12  0.066331  0.468341  0.342524  -0.058945
    C   C13  0.068078  0.483277  0.684249  -0.068437
    C   C14  0.921996  0.515532  0.317468  -0.022835
    C   C15  0.066913  0.482700  0.734199  -0.196389
    C   C16  0.922464  0.514380  0.267639  -0.222781
    C   C17  0.000705  0.514785  0.746831  0.282226
    C   C18  0.994847  0.490493  0.255000  0.276134
    C   C19  0.998583  0.508518  0.899367  0.120798
    C   C20  0.997599  0.496250  0.102697  0.118041
    C   C21  0.910950  0.454748  0.869097  -0.122431
    C   C22  0.081556  0.557950  0.131658  -0.127346
    C   C23  0.821911  0.398396  0.889274  -0.044931
    C   C24  0.166374  0.623649  0.109987  -0.039430
    C   C25  0.086501  0.565222  0.878125  -0.132267
    C   C26  0.913195  0.431669  0.125212  -0.130383
    C   C27  0.002534  0.515553  0.646314  -0.077992
    C   C28  0.994098  0.492690  0.355221  -0.063144
    H   H1   0.120036  0.456930  0.675495  0.114935
    H   H2   0.865003  0.535270  0.326264  0.086790
    H   H3   0.117383  0.455728  0.763495  0.140010
    H   H4   0.866705  0.533823  0.238397  0.147937
    H   H5   0.751244  0.357025  0.866284  0.125291
    H   H6   0.232781  0.674288  0.131462  0.123500
    C   C29  0.910978  0.438523  0.022969  0.053326
    C   C30  0.086969  0.562810  0.979685  0.043845
    C   C31  0.085180  0.563117  0.030296  0.062036
    C   C32  0.909511  0.445330  0.971205  0.048087
    C   C33  0.997949  0.499267  0.051827  0.015039
    C   C34  0.998350  0.505565  0.950250  0.017395
    C   C35  0.827690  0.371503  0.046984  -0.197412
    C   C36  0.175705  0.617970  0.957566  -0.187098
    C   C37  0.828945  0.368505  0.097282  -0.036334
    C   C38  0.175093  0.619210  0.907555  -0.038345
    O   O11  0.832034  0.364721  0.197842  -0.516210
    O   O12  0.171484  0.624603  0.806850  -0.513169
    C   C39  0.820811  0.393940  0.939448  -0.188132
    C   C40  0.168396  0.626483  0.060105  -0.203910
    H   H7   0.123625  0.450278  0.371234  0.099761
    H   H8   0.884704  0.573982  0.630039  0.099326
    H   H9   0.123326  0.447968  0.283213  0.140934
    H   H10  0.884244  0.573947  0.718351  0.141857
    H   H11  0.762316  0.315523  0.114076  0.121111
    H   H12  0.245851  0.663103  0.892224  0.121571
    H   H13  0.759896  0.317384  0.028664  0.137636
    H   H14  0.249266  0.659957  0.977827  0.132171
    H   H15  0.746965  0.350688  0.951381  0.133183
    H   H16  0.236719  0.682148  0.046214  0.139757
    C   C41  0.813504  0.210717  0.522138  -0.239318
    C   C42  0.185322  0.798484  0.483970  -0.346643
    C   C43  0.785592  0.038914  0.546915  -0.565208
    C   C44  0.214706  0.970779  0.469438  -0.647046
    C   C45  0.852512  0.136959  0.537967  0.516736
    C   C46  0.148937  0.873479  0.464862  0.625217
    C   C47  0.707544  0.183710  0.513819  -0.098559
    C   C48  0.289930  0.823975  0.502006  -0.031920
    C   C49  0.639143  0.084247  0.522250  -0.061910
    C   C50  0.358871  0.923282  0.502604  -0.133443
    C   C51  0.680428  0.012720  0.538414  0.343315
    C   C52  0.318350  0.995506  0.487274  0.424928
    C   C53  0.531059  0.054238  0.513524  0.062318
    C   C54  0.466639  0.952705  0.517157  0.116223
    C   C55  0.512044  0.883460  0.534702  -0.210604
    C   C56  0.485718  0.123458  0.501522  -0.157837
    C   C57  0.617125  0.913640  0.545715  -0.233477
    C   C58  0.381068  0.094026  0.488612  -0.288739
    H   H17  0.649808  0.857906  0.558902  0.128389
    H   H18  0.348535  0.149960  0.478214  0.129272
    H   H19  0.315257  0.763827  0.515054  0.101358
    H   H20  0.680627  0.242548  0.498866  0.111518
    H   H21  0.816070  0.981556  0.560009  0.217907
    H   H22  0.185649  0.029208  0.456730  0.235796
    H   H23  0.469464  0.804222  0.541188  0.152161
    H   H24  0.528207  0.202060  0.502210  0.136490
    N   N3   0.790166  0.560309  0.466247  -0.100926
    N   N4   0.206607  0.448770  0.535111  -0.068757
    C   C59  0.687225  0.630132  0.404201  -0.291584
    C   C60  0.305081  0.371658  0.595516  -0.290603
    C   C61  0.775753  0.612605  0.420515  0.025341
    C   C62  0.216862  0.389851  0.579176  0.062917
    C   C63  0.715408  0.518950  0.495507  -0.000067
    C   C64  0.283186  0.492959  0.506974  0.004982
    C   C65  0.623405  0.534550  0.480526  -0.067952
    C   C66  0.373333  0.474237  0.521259  -0.092301
    C   C67  0.611578  0.591843  0.434191  0.320144
    C   C68  0.382958  0.413475  0.566626  0.293073
    C   C69  0.543030  0.494323  0.509770  0.050551
    C   C70  0.453599  0.514194  0.492022  0.109598
    C   C71  0.445802  0.572232  0.444987  -0.167598
    C   C72  0.549615  0.434307  0.556283  -0.109156
    C   C73  0.523650  0.609934  0.416751  -0.286318
    C   C74  0.470372  0.394346  0.583848  -0.273867
    H   H25  0.514633  0.653851  0.380167  0.159775
    H   H26  0.477749  0.347560  0.619679  0.151720
    H   H27  0.270651  0.542583  0.473569  0.095761
    H   H28  0.730658  0.473924  0.530328  0.123237
    H   H29  0.155761  0.356391  0.601831  0.109048
    H   H30  0.833358  0.640486  0.396299  0.149013
    H   H31  0.676960  0.673158  0.367462  0.131691
    H   H32  0.312751  0.324238  0.631078  0.143472
    H   H33  0.379688  0.589564  0.427666  0.153030
    H   H34  0.614754  0.415118  0.573098  0.128234
    O   O13  0.049794  0.853222  0.440312  -0.468782
    C   C75  0.059472  0.894819  0.389753  0.500448
    H   H35  0.131140  0.897062  0.380806  -0.081195
    H   H36  0.060912  0.971333  0.382744  -0.074135
    C   C76  0.968961  0.832370  0.355015  -0.293218
    H   H37  0.895942  0.822261  0.365903  0.084886
    H   H38  0.972592  0.870907  0.315505  0.048101
    H   H39  0.973046  0.759105  0.357808  0.070675
    O   O14  0.956322  0.159247  0.545507  -0.458437
    C   C77  0.973140  0.132938  0.503869  0.507675
    H   H40  0.918627  0.145309  0.469775  -0.083552
    H   H41  0.962434  0.053412  0.511751  -0.082853
    C   C78  0.082571  0.196241  0.494101  -0.267533
    H   H42  0.137516  0.189101  0.529001  0.073325
    H   H43  0.097883  0.170538  0.463351  0.035409
    H   H44  0.092672  0.275374  0.482581  0.067241
