data_DB0-m3_o11_o29_f0_pcu.sym.30_repeat
_audit_creation_date              2024-02-20
_audit_creation_method            'Materials Studio'
_symmetry_space_group_name_H-M    'P1'
_symmetry_Int_Tables_number       1
_symmetry_cell_setting            triclinic
loop_
_symmetry_equiv_pos_as_xyz
  x,y,z
_cell_length_a                    27.5697
_cell_length_b                    11.1719
_cell_length_c                    9.9653
_cell_angle_alpha                 89.9974
_cell_angle_beta                  89.9930
_cell_angle_gamma                 89.9937
loop_
_atom_site_label
_atom_site_type_symbol
_atom_site_fract_x
_atom_site_fract_y
_atom_site_fract_z
_atom_site_U_iso_or_equiv
_atom_site_adp_type
_atom_site_occupancy
O1     O     0.49975   0.32302   0.61350   0.00000  Uiso   1.00
O2     O     0.49634   0.32009   0.38234   0.00000  Uiso   1.00
C1     C     0.49644   0.26584   0.49946   0.00000  Uiso   1.00
O3     O     0.43298   0.51308   0.63175   0.00000  Uiso   1.00
O4     O     0.42805   0.50767   0.40075   0.00000  Uiso   1.00
C2     C     0.40786   0.51320   0.51969   0.00000  Uiso   1.00
Zn1    Zn    0.50596   0.50023   0.65190   0.00000  Uiso   1.00
Zn2    Zn    0.49882   0.49881   0.34731   0.00000  Uiso   1.00
O5     O     0.50966   0.67870   0.61680   0.00000  Uiso   1.00
O6     O     0.50434   0.67636   0.38562   0.00000  Uiso   1.00
O7     O     0.57670   0.48922   0.59856   0.00000  Uiso   1.00
O8     O     0.57186   0.48818   0.36741   0.00000  Uiso   1.00
C3     C     0.50800   0.73355   0.50014   0.00000  Uiso   1.00
C4     C     0.59690   0.48527   0.47953   0.00000  Uiso   1.00
C5     C     0.18009   0.40287   0.51558   0.00000  Uiso   1.00
O9     O     0.20658   0.30298   0.49891   0.00000  Uiso   1.00
N1     N     0.20268   0.50770   0.53855   0.00000  Uiso   1.00
C6     C     0.17691   0.60876   0.55665   0.00000  Uiso   1.00
C7     C     0.28064   0.53712   0.64958   0.00000  Uiso   1.00
C8     C     0.33075   0.53764   0.64552   0.00000  Uiso   1.00
C9     C     0.32807   0.49315   0.41114   0.00000  Uiso   1.00
C10    C     0.27821   0.49065   0.41605   0.00000  Uiso   1.00
C11    C     0.25432   0.51240   0.53499   0.00000  Uiso   1.00
C12    C     0.10296   0.50023   0.52512   0.00000  Uiso   1.00
C13    C     0.13001   0.39763   0.50998   0.00000  Uiso   1.00
C14    C     0.10697   0.29069   0.48605   0.00000  Uiso   1.00
C15    C     0.12677   0.60644   0.54893   0.00000  Uiso   1.00
C16    C     0.35471   0.51562   0.52603   0.00000  Uiso   1.00
H1     H     0.34571   0.47503   0.31648   0.00000  Uiso   1.00
H2     H     0.25781   0.47194   0.32582   0.00000  Uiso   1.00
H3     H     0.12726   0.20910   0.47065   0.00000  Uiso   1.00
C17    C     0.65000   0.47969   0.47311   0.00000  Uiso   1.00
C18    C     0.97841   0.38446   0.49822   0.00000  Uiso   1.00
C19    C     0.97606   0.59915   0.49993   0.00000  Uiso   1.00
C20    C     0.95209   0.49017   0.49359   0.00000  Uiso   1.00
C21    C     0.95325   0.27699   0.50430   0.00000  Uiso   1.00
C22    C     0.90355   0.27343   0.49888   0.00000  Uiso   1.00
C23    C     0.87712   0.37850   0.48595   0.00000  Uiso   1.00
C24    C     0.90162   0.48690   0.48299   0.00000  Uiso   1.00
C25    C     0.87528   0.59206   0.47010   0.00000  Uiso   1.00
C26    C     0.82491   0.58666   0.46111   0.00000  Uiso   1.00
N2     N     0.80202   0.48070   0.46634   0.00000  Uiso   1.00
C27    C     0.82667   0.37767   0.47862   0.00000  Uiso   1.00
C28    C     0.72612   0.45288   0.58459   0.00000  Uiso   1.00
C29    C     0.67621   0.45462   0.58806   0.00000  Uiso   1.00
C30    C     0.67435   0.50262   0.35447   0.00000  Uiso   1.00
C31    C     0.72444   0.50293   0.35192   0.00000  Uiso   1.00
C32    C     0.75037   0.47807   0.46708   0.00000  Uiso   1.00
O10    O     0.80140   0.27493   0.48278   0.00000  Uiso   1.00
C33    C     0.02917   0.38813   0.49843   0.00000  Uiso   1.00
C34    C     0.05267   0.49677   0.51536   0.00000  Uiso   1.00
C35    C     0.02622   0.60209   0.52173   0.00000  Uiso   1.00
C36    C     0.05726   0.28563   0.48062   0.00000  Uiso   1.00
H4     H     0.65814   0.43584   0.68196   0.00000  Uiso   1.00
H5     H     0.74629   0.43394   0.67518   0.00000  Uiso   1.00
H6     H     0.97088   0.19221   0.51933   0.00000  Uiso   1.00
H7     H     0.04228   0.19946   0.45629   0.00000  Uiso   1.00
O11    O     0.20027   0.71266   0.57752   0.00000  Uiso   1.00
C37    C     0.10033   0.70982   0.56449   0.00000  Uiso   1.00
H8     H     0.35078   0.55567   0.73651   0.00000  Uiso   1.00
H9     H     0.26210   0.55383   0.74334   0.00000  Uiso   1.00
H10    H     0.11784   0.79405   0.58663   0.00000  Uiso   1.00
C38    C     0.94936   0.70319   0.48178   0.00000  Uiso   1.00
C39    C     0.89991   0.70033   0.46639   0.00000  Uiso   1.00
O12    O     0.79788   0.68637   0.45161   0.00000  Uiso   1.00
C40    C     0.05076   0.70802   0.55090   0.00000  Uiso   1.00
H11    H     0.96589   0.79002   0.47326   0.00000  Uiso   1.00
H12    H     0.65465   0.52320   0.26361   0.00000  Uiso   1.00
H13    H     0.74333   0.52273   0.25946   0.00000  Uiso   1.00
H14    H     0.03268   0.79181   0.56889   0.00000  Uiso   1.00
C41    C     0.49482   0.93405   0.40073   0.00000  Uiso   1.00
C42    C     0.51276   0.86468   0.49898   0.00000  Uiso   1.00
H15    H     0.53238   0.90466   0.58133   0.00000  Uiso   1.00
C43    C     0.50088   0.06554   0.40222   0.00000  Uiso   1.00
C44    C     0.49075   0.13565   0.50797   0.00000  Uiso   1.00
H16    H     0.51133   0.10766   0.30864   0.00000  Uiso   1.00
C45    C     0.50746   0.58970   0.92753   0.00000  Uiso   1.00
N3     N     0.51257   0.49801   0.85179   0.00000  Uiso   1.00
H17    H     0.50079   0.67689   0.88367   0.00000  Uiso   1.00
H18    H     0.52433   0.42198   0.90007   0.00000  Uiso   1.00
C46    C     0.51603   0.57895   0.07326   0.00000  Uiso   1.00
N4     N     0.49326   0.50224   0.14713   0.00000  Uiso   1.00
N5     N     0.87531   0.81112   0.44665   0.00000  Uiso   1.00
H19    H     0.88968   0.85133   0.36081   0.00000  Uiso   1.00
H20    H     0.88290   0.86589   0.52891   0.00000  Uiso   1.00
N6     N     0.47076   0.88165   0.28841   0.00000  Uiso   1.00
H21    H     0.48928   0.90823   0.20205   0.00000  Uiso   1.00
H22    H     0.43588   0.91788   0.28428   0.00000  Uiso   1.00
N7     N     0.47113   0.08874   0.63008   0.00000  Uiso   1.00
H23    H     0.49871   0.05228   0.68881   0.00000  Uiso   1.00
H24    H     0.44419   0.02590   0.60883   0.00000  Uiso   1.00
N8     N     0.55220   0.65339   0.13229   0.00000  Uiso   1.00
H25    H     0.58493   0.63521   0.08368   0.00000  Uiso   1.00
H26    H     0.54291   0.74208   0.11181   0.00000  Uiso   1.00
N9     N     0.44983   0.45849   0.09592   0.00000  Uiso   1.00
H27    H     0.45694   0.39102   0.02637   0.00000  Uiso   1.00
H28    H     0.43002   0.52874   0.05376   0.00000  Uiso   1.00
N10    N     0.88060   0.15940   0.50719   0.00000  Uiso   1.00
H29    H     0.89375   0.10680   0.42860   0.00000  Uiso   1.00
H30    H     0.89097   0.11990   0.59772   0.00000  Uiso   1.00
