data_DB0-m3_o25_o115_f0_fsc.sym.19_repeat
_audit_creation_date              2024-02-23
_audit_creation_method            'Materials Studio'
_symmetry_space_group_name_H-M    'P1'
_symmetry_Int_Tables_number       1
_symmetry_cell_setting            triclinic
loop_
_symmetry_equiv_pos_as_xyz
  x,y,z
_cell_length_a                    14.2473
_cell_length_b                    16.5197
_cell_length_c                    16.6830
_cell_angle_alpha                 90.0675
_cell_angle_beta                  98.8142
_cell_angle_gamma                 90.6972
loop_
_atom_site_label
_atom_site_type_symbol
_atom_site_fract_x
_atom_site_fract_y
_atom_site_fract_z
_atom_site_U_iso_or_equiv
_atom_site_adp_type
_atom_site_occupancy
H1     H     0.07305   0.92101   0.72257   0.00000  Uiso   1.00
H2     H     0.92695   0.07899   0.27743   0.00000  Uiso   1.00
C1     C     0.99885   0.25681   0.95849   0.00000  Uiso   1.00
C2     C     0.00115   0.74319   0.04151   0.00000  Uiso   1.00
C3     C     0.99867   0.25685   0.04083   0.00000  Uiso   1.00
C4     C     0.00133   0.74315   0.95917   0.00000  Uiso   1.00
C5     C     0.99845   0.17662   0.06420   0.00000  Uiso   1.00
C6     C     0.00155   0.82338   0.93580   0.00000  Uiso   1.00
N1     N     0.99948   0.12774   0.99968   0.00000  Uiso   1.00
N2     N     0.00052   0.87226   0.00032   0.00000  Uiso   1.00
C7     C     1.00000   0.17659   0.93515   0.00000  Uiso   1.00
C8     C     0.00000   0.82341   0.06485   0.00000  Uiso   1.00
C9     C     0.99467   0.15146   0.13991   0.00000  Uiso   1.00
C10    C     0.00533   0.84854   0.86010   0.00000  Uiso   1.00
C11    C     0.98551   0.06561   0.16271   0.00000  Uiso   1.00
C12    C     0.01449   0.93439   0.83729   0.00000  Uiso   1.00
C13    C     0.95118   0.04123   0.23197   0.00000  Uiso   1.00
C14    C     0.04882   0.95877   0.76803   0.00000  Uiso   1.00
C15    C     0.95169   0.95801   0.23217   0.00000  Uiso   1.00
C16    C     0.04831   0.04199   0.76783   0.00000  Uiso   1.00
C17    C     0.98637   0.93430   0.16306   0.00000  Uiso   1.00
C18    C     0.01363   0.06570   0.83694   0.00000  Uiso   1.00
N3     N     0.00854   0.00018   0.12155   0.00000  Uiso   1.00
N4     N     0.99146   0.99982   0.87845   0.00000  Uiso   1.00
C19    C     0.99618   0.84860   0.14056   0.00000  Uiso   1.00
C20    C     0.00382   0.15140   0.85944   0.00000  Uiso   1.00
H3     H     0.99906   0.31029   0.92123   0.00000  Uiso   1.00
H4     H     0.00094   0.68971   0.07877   0.00000  Uiso   1.00
H5     H     0.99759   0.31036   0.07803   0.00000  Uiso   1.00
H6     H     0.00241   0.68964   0.92197   0.00000  Uiso   1.00
H7     H     0.92784   0.91971   0.27771   0.00000  Uiso   1.00
H8     H     0.07216   0.08029   0.72229   0.00000  Uiso   1.00
H9     H     0.04280   0.00061   0.07087   0.00000  Uiso   1.00
H10    H     0.95720   0.99939   0.92913   0.00000  Uiso   1.00
C21    C     0.09162   0.75649   0.78092   0.00000  Uiso   1.00
C22    C     0.90838   0.24351   0.21908   0.00000  Uiso   1.00
H11    H     0.15784   0.77728   0.81568   0.00000  Uiso   1.00
H12    H     0.84216   0.22272   0.18432   0.00000  Uiso   1.00
C23    C     0.09209   0.69913   0.72079   0.00000  Uiso   1.00
C24    C     0.90791   0.30087   0.27921   0.00000  Uiso   1.00
C25    C     0.00742   0.67204   0.67653   0.00000  Uiso   1.00
C26    C     0.99258   0.32796   0.32347   0.00000  Uiso   1.00
C27    C     0.92260   0.70326   0.69276   0.00000  Uiso   1.00
C28    C     0.07740   0.29673   0.30724   0.00000  Uiso   1.00
H13    H     0.85539   0.68341   0.65907   0.00000  Uiso   1.00
H14    H     0.14461   0.31659   0.34093   0.00000  Uiso   1.00
C29    C     0.92251   0.76102   0.75232   0.00000  Uiso   1.00
C30    C     0.07749   0.23898   0.24768   0.00000  Uiso   1.00
H15    H     0.85605   0.78532   0.76461   0.00000  Uiso   1.00
H16    H     0.14395   0.21468   0.23539   0.00000  Uiso   1.00
C31    C     0.00679   0.78757   0.79659   0.00000  Uiso   1.00
C32    C     0.99321   0.21243   0.20341   0.00000  Uiso   1.00
C33    C     0.08967   0.24814   0.78299   0.00000  Uiso   1.00
C34    C     0.91033   0.75185   0.21701   0.00000  Uiso   1.00
H17    H     0.15547   0.23145   0.82019   0.00000  Uiso   1.00
H18    H     0.84453   0.76855   0.17981   0.00000  Uiso   1.00
C35    C     0.09026   0.30531   0.72278   0.00000  Uiso   1.00
C36    C     0.90974   0.69469   0.27722   0.00000  Uiso   1.00
H19    H     0.15703   0.33294   0.71394   0.00000  Uiso   1.00
H20    H     0.84297   0.66706   0.28606   0.00000  Uiso   1.00
C37    C     0.00613   0.32729   0.67537   0.00000  Uiso   1.00
C38    C     0.99387   0.67271   0.32463   0.00000  Uiso   1.00
C39    C     0.92179   0.29092   0.68846   0.00000  Uiso   1.00
C40    C     0.07821   0.70908   0.31154   0.00000  Uiso   1.00
H21    H     0.85505   0.30662   0.65223   0.00000  Uiso   1.00
H22    H     0.14496   0.69338   0.34777   0.00000  Uiso   1.00
C41    C     0.92163   0.23337   0.74814   0.00000  Uiso   1.00
C42    C     0.07837   0.76663   0.25186   0.00000  Uiso   1.00
H23    H     0.85553   0.20513   0.75798   0.00000  Uiso   1.00
H24    H     0.14447   0.79487   0.24203   0.00000  Uiso   1.00
C43    C     0.00531   0.21218   0.79576   0.00000  Uiso   1.00
C44    C     0.99469   0.78782   0.20424   0.00000  Uiso   1.00
H25    H     0.15923   0.67549   0.70946   0.00000  Uiso   1.00
H26    H     0.84078   0.32451   0.29054   0.00000  Uiso   1.00
O1     O     0.92420   0.58163   0.57845   0.00000  Uiso   1.00
O2     O     0.07580   0.41837   0.42155   0.00000  Uiso   1.00
O3     O     0.08764   0.58628   0.59353   0.00000  Uiso   1.00
O4     O     0.91236   0.41372   0.40647   0.00000  Uiso   1.00
C45    C     0.00665   0.61037   0.61315   0.00000  Uiso   1.00
C46    C     0.99335   0.38963   0.38685   0.00000  Uiso   1.00
O5     O     0.08663   0.41793   0.59568   0.00000  Uiso   1.00
O6     O     0.91337   0.58207   0.40432   0.00000  Uiso   1.00
O7     O     0.92291   0.41353   0.57491   0.00000  Uiso   1.00
O8     O     0.07709   0.58647   0.42509   0.00000  Uiso   1.00
C47    C     0.00543   0.38912   0.61220   0.00000  Uiso   1.00
C48    C     0.99457   0.61088   0.38780   0.00000  Uiso   1.00
Zn1    Zn    0.10578   0.50094   0.51102   0.00000  Uiso   1.00
Zn2    Zn    0.89422   0.49906   0.48898   0.00000  Uiso   1.00
C49    C     0.50887   0.53320   0.42826   0.00000  Uiso   1.00
C50    C     0.49113   0.46680   0.57174   0.00000  Uiso   1.00
C51    C     0.44985   0.46007   0.44385   0.00000  Uiso   1.00
C52    C     0.55015   0.53993   0.55615   0.00000  Uiso   1.00
H27    H     0.51564   0.55754   0.36747   0.00000  Uiso   1.00
H28    H     0.48436   0.44246   0.63253   0.00000  Uiso   1.00
H29    H     0.55208   0.35942   0.50069   0.00000  Uiso   1.00
H30    H     0.44793   0.64058   0.49931   0.00000  Uiso   1.00
N5     N     0.23038   0.50206   0.52148   0.00000  Uiso   1.00
N6     N     0.76962   0.49794   0.47852   0.00000  Uiso   1.00
C53    C     0.47095   0.57680   0.49769   0.00000  Uiso   1.00
C54    C     0.52905   0.42320   0.50231   0.00000  Uiso   1.00
C55    C     0.41198   0.50231   0.51126   0.00000  Uiso   1.00
C56    C     0.58803   0.49769   0.48873   0.00000  Uiso   1.00
C57    C     0.31093   0.50225   0.51835   0.00000  Uiso   1.00
C58    C     0.68907   0.49775   0.48165   0.00000  Uiso   1.00
N7     N     0.39028   0.41470   0.38055   0.00000  Uiso   1.00
H31    H     0.43455   0.39118   0.34209   0.00000  Uiso   1.00
H32    H     0.34476   0.45567   0.34715   0.00000  Uiso   1.00
N8     N     0.60972   0.58530   0.61945   0.00000  Uiso   1.00
H33    H     0.56545   0.60882   0.65791   0.00000  Uiso   1.00
H34    H     0.65524   0.54433   0.65285   0.00000  Uiso   1.00
