# Generated by REPEAT Assigner based on pymatgen
data_DB0-m2_o12_o26_f0_pcu.sym.72
_audit_creation_date              2022-05-24
_audit_creation_method            REPEAT_Assigner
_cell_length_a                    17.408966
_cell_length_b                    11.155732
_cell_length_c                    9.644587
_cell_angle_alpha                 111.942370
_cell_angle_beta                  95.965618
_cell_angle_gamma                 90.814366
_cell_volume                      1725.119655
_symmetry_space_group_name_H-M    P1
_symmetry_Int_Tables_number       1
loop_
    _symmetry_equiv_pos_site_id
    _symmetry_equiv_pos_as_xyz
    1  x,y,z
loop_
    _atom_site_type_symbol
    _atom_site_label
    _atom_site_fract_x
    _atom_site_fract_y
    _atom_site_fract_z
    _atom_type_partial_charge
    O   O1   0.502205  0.337191  0.584178  -0.574947
    O   O2   0.497518  0.663902  0.415310  -0.579309
    O   O3   0.487477  0.294490  0.330012  -0.658590
    O   O4   0.512573  0.706631  0.669681  -0.656916
    C   C1   0.493512  0.256485  0.443550  0.801383
    C   C2   0.506348  0.744607  0.556073  0.803687
    O   O5   0.399305  0.529680  0.637224  -0.558847
    O   O6   0.600614  0.471630  0.362195  -0.559092
    O   O7   0.378762  0.477859  0.381717  -0.582449
    O   O8   0.621180  0.522656  0.617951  -0.577448
    C   C3   0.353188  0.506728  0.512671  0.584771
    C   C4   0.646651  0.493257  0.486752  0.574693
    Cu  Cu1  0.512216  0.525582  0.647439  0.963197
    Cu  Cu2  0.487930  0.475634  0.352128  0.972645
    C   C5   0.269295  0.507134  0.519156  0.013809
    C   C6   0.730510  0.491586  0.479920  0.022586
    C   C7   0.219208  0.546087  0.424008  0.030056
    C   C8   0.780767  0.454505  0.576630  0.024430
    C   C9   0.140186  0.532209  0.423844  -0.241713
    C   C10  0.859770  0.469813  0.577605  -0.243370
    C   C11  0.110168  0.486131  0.523155  0.205431
    C   C12  0.889667  0.516569  0.478713  0.210283
    C   C13  0.160289  0.450411  0.619445  -0.149775
    C   C14  0.839338  0.551024  0.381540  -0.155311
    C   C15  0.239139  0.460655  0.617462  -0.150115
    C   C16  0.760567  0.537699  0.381285  -0.146889
    C   C17  0.026395  0.470603  0.528507  -0.196758
    C   C18  0.973484  0.532730  0.473794  -0.199674
    H   H1   0.722386  0.568371  0.306538  0.131621
    H   H2   0.277065  0.428779  0.691254  0.132026
    H   H3   0.991083  0.596929  0.421022  0.134153
    H   H4   0.008796  0.405286  0.580067  0.133593
    H   H5   0.137677  0.413593  0.696973  0.116415
    H   H6   0.861333  0.589401  0.304795  0.117586
    H   H7   0.897145  0.443914  0.657116  0.125929
    H   H8   0.103064  0.558659  0.344574  0.125892
    H   H9   0.491640  0.866201  0.363145  0.106187
    H   H10  0.509616  0.135902  0.636501  0.105632
    C   C19  0.491410  0.117211  0.410153  -0.375960
    C   C20  0.508267  0.884106  0.589687  -0.377972
    C   C21  0.500726  0.071000  0.519255  0.006366
    C   C22  0.499727  0.930700  0.480684  0.004774
    H   H11  0.515434  0.950361  0.706379  0.179449
    H   H12  0.483068  0.050808  0.293707  0.178441
    H   H13  0.443330  0.428493  0.850641  0.104793
    H   H14  0.557987  0.569375  0.148950  0.107482
    N   N1   0.469980  0.438862  0.131421  -0.306043
    N   N2   0.529361  0.562018  0.868173  -0.301179
    C   C23  0.509792  0.505717  0.078333  0.068767
    C   C24  0.490842  0.494145  0.921344  0.071266
    H   H15  0.577412  0.614082  0.937416  0.245463
    H   H16  0.421316  0.389005  0.062918  0.247972
    C   C25  0.246811  0.608966  0.327602  0.339513
    H   H17  0.208925  0.608901  0.231055  -0.000962
    O   O9   0.307637  0.674389  0.364436  -0.368085
    C   C26  0.753526  0.392063  0.673909  0.343502
    H   H18  0.791385  0.393372  0.771240  -0.001066
    O   O10  0.692947  0.325945  0.637454  -0.371325
