# Generated by REPEAT Assigner based on pymatgen
data_DB0-m2_o15_o28_f0_nbo.sym.21_sqe
_audit_creation_date              2022-05-24
_audit_creation_method            REPEAT_Assigner
_cell_length_a                    21.569247
_cell_length_b                    21.569247
_cell_length_c                    46.544413
_cell_angle_alpha                 90.000000
_cell_angle_beta                  90.000000
_cell_angle_gamma                 90.000000
_cell_volume                      21653.969209
_symmetry_space_group_name_H-M    P1
_symmetry_Int_Tables_number       1
loop_
    _symmetry_equiv_pos_site_id
    _symmetry_equiv_pos_as_xyz
    1  x,y,z
loop_
    _atom_site_type_symbol
    _atom_site_label
    _atom_site_fract_x
    _atom_site_fract_y
    _atom_site_fract_z
    _atom_type_partial_charge
    O   O1    0.911567  0.982863  0.476313  -0.556705
    O   O2    0.017137  0.911567  0.476313  -0.556708
    O   O3    0.088433  0.017137  0.476313  -0.556709
    O   O4    0.982863  0.088433  0.476313  -0.556707
    O   O5    0.911567  0.017137  0.523687  -0.556723
    O   O6    0.017137  0.088433  0.523687  -0.556720
    O   O7    0.088433  0.982863  0.523687  -0.556725
    O   O8    0.982863  0.911567  0.523687  -0.556717
    O   O9    0.411567  0.482863  0.976313  -0.556660
    O   O10   0.517137  0.411567  0.976313  -0.556654
    O   O11   0.588433  0.517137  0.976313  -0.556650
    O   O12   0.482863  0.588433  0.976313  -0.556649
    O   O13   0.411567  0.517137  0.023687  -0.556737
    O   O14   0.517137  0.588433  0.023687  -0.556724
    O   O15   0.588433  0.482863  0.023687  -0.556731
    O   O16   0.482863  0.411567  0.023687  -0.556730
    C   C1    0.882459  0.000000  0.500000  0.722278
    C   C2    0.000000  0.882459  0.500000  0.722264
    C   C3    0.117541  0.000000  0.500000  0.722257
    C   C4    0.000000  0.117541  0.500000  0.722239
    C   C5    0.382459  0.500000  0.000000  0.722229
    C   C6    0.500000  0.382460  0.000000  0.722219
    C   C7    0.617541  0.500000  0.000000  0.722221
    C   C8    0.500000  0.617541  0.000000  0.722206
    N   N1    0.500000  0.000000  0.676145  -0.128627
    N   N2    0.000000  0.500000  0.676145  -0.128633
    N   N3    0.500000  0.000000  0.323855  -0.128644
    N   N4    0.000000  0.500000  0.323855  -0.128663
    N   N5    0.000000  0.500000  0.176145  -0.128651
    N   N6    0.500000  0.000000  0.176145  -0.128648
    N   N7    0.000000  0.500000  0.823855  -0.128650
    N   N8    0.500000  0.000000  0.823855  -0.128662
    C   C9    0.460559  0.038384  0.720291  -0.083359
    C   C10   0.961616  0.460559  0.720291  -0.083329
    C   C11   0.539442  0.961616  0.720291  -0.083356
    C   C12   0.038384  0.539442  0.720291  -0.083376
    C   C13   0.460558  0.961616  0.279709  -0.083350
    C   C14   0.961616  0.539441  0.279709  -0.083309
    C   C15   0.539441  0.038384  0.279709  -0.083371
    C   C16   0.038384  0.460558  0.279709  -0.083313
    C   C17   0.960558  0.538384  0.220291  -0.083301
    C   C18   0.461616  0.960559  0.220291  -0.083233
    C   C19   0.039442  0.461616  0.220291  -0.083296
    C   C20   0.538384  0.039442  0.220291  -0.083131
    C   C21   0.960558  0.461616  0.779709  -0.083260
    C   C22   0.461616  0.039442  0.779709  -0.083111
    C   C23   0.039441  0.538384  0.779709  -0.083107
    C   C24   0.538384  0.960559  0.779709  -0.083241
    Cu  Cu1   0.000000  0.000000  0.471951  0.882370
    Cu  Cu2   0.000000  0.000000  0.528049  0.882405
    Cu  Cu3   0.500000  0.500000  0.971951  0.882478
    Cu  Cu4   0.500000  0.500000  0.028049  0.882421
    C   C25   0.421419  0.077601  0.735204  -0.059806
    C   C26   0.922399  0.421419  0.735204  -0.059929
    C   C27   0.578582  0.922399  0.735204  -0.059913
    C   C28   0.077601  0.578582  0.735204  -0.059786
    C   C29   0.421418  0.922399  0.264796  -0.059919
    C   C30   0.922399  0.578581  0.264796  -0.059945
    C   C31   0.578581  0.077601  0.264796  -0.059811
    C   C32   0.077601  0.421419  0.264796  -0.059937
    C   C33   0.921419  0.577601  0.235204  -0.059940
    C   C34   0.422399  0.921419  0.235204  -0.059958
    C   C35   0.078581  0.422399  0.235204  -0.059944
    C   C36   0.577601  0.078582  0.235204  -0.060178
    C   C37   0.921419  0.422399  0.764796  -0.059945
    C   C38   0.422399  0.078581  0.764796  -0.060194
    C   C39   0.078581  0.577601  0.764796  -0.060215
    C   C40   0.577601  0.921419  0.764796  -0.059960
    C   C41   0.539805  0.962991  0.690592  0.409442
    C   C42   0.037009  0.539805  0.690592  0.409448
    C   C43   0.460196  0.037009  0.690592  0.409418
    C   C44   0.962991  0.460196  0.690592  0.409428
    C   C45   0.539804  0.037009  0.309408  0.409455
    C   C46   0.037009  0.460195  0.309408  0.409453
    C   C47   0.460195  0.962991  0.309408  0.409444
    C   C48   0.962991  0.539804  0.309408  0.409461
    C   C49   0.039804  0.462991  0.190592  0.409438
    C   C50   0.537009  0.039805  0.190592  0.409430
    C   C51   0.960195  0.537009  0.190592  0.409436
    C   C52   0.462991  0.960196  0.190592  0.409384
    C   C53   0.039804  0.537009  0.809408  0.409408
    C   C54   0.537009  0.960196  0.809408  0.409415
    C   C55   0.960195  0.462991  0.809408  0.409408
    C   C56   0.462991  0.039805  0.809408  0.409425
    H   H1    0.852733  0.807693  0.430543  0.136783
    H   H2    0.192307  0.852733  0.430543  0.136790
    H   H3    0.147267  0.192307  0.430543  0.136791
    H   H4    0.807693  0.147267  0.430543  0.136786
    H   H5    0.852733  0.192307  0.569457  0.136792
    H   H6    0.192307  0.147267  0.569457  0.136797
    H   H7    0.147267  0.807693  0.569457  0.136787
    H   H8    0.807693  0.852733  0.569457  0.136787
    H   H9    0.352733  0.307693  0.930543  0.136774
    H   H10   0.692307  0.352733  0.930543  0.136764
    H   H11   0.647267  0.692307  0.930543  0.136789
    H   H12   0.307693  0.647267  0.930543  0.136780
    H   H13   0.352733  0.692307  0.069457  0.136792
    H   H14   0.692308  0.647267  0.069457  0.136789
    H   H15   0.647267  0.307693  0.069457  0.136781
    H   H16   0.307693  0.352733  0.069457  0.136781
    C   C57   0.079869  0.813373  0.536508  -0.229388
    C   C58   0.186627  0.079869  0.536508  -0.229330
    C   C59   0.920131  0.186627  0.536508  -0.229346
    C   C60   0.813373  0.920131  0.536508  -0.229371
    C   C61   0.079869  0.186627  0.463492  -0.229343
    C   C62   0.186627  0.920131  0.463492  -0.229330
    C   C63   0.920131  0.813373  0.463492  -0.229367
    C   C64   0.813373  0.079869  0.463492  -0.229366
    C   C65   0.579869  0.313373  0.036508  -0.229377
    C   C66   0.686627  0.579869  0.036508  -0.229342
    C   C67   0.420131  0.686627  0.036508  -0.229339
    C   C68   0.313373  0.420131  0.036508  -0.229351
    C   C69   0.579869  0.686627  0.963492  -0.229335
    C   C70   0.686627  0.420131  0.963492  -0.229387
    C   C71   0.420131  0.313373  0.963492  -0.229369
    C   C72   0.313373  0.579869  0.963492  -0.229352
    C   C73   0.116304  0.781688  0.555759  -0.127889
    C   C74   0.218312  0.116304  0.555759  -0.127921
    C   C75   0.883696  0.218312  0.555759  -0.127916
    C   C76   0.781688  0.883696  0.555759  -0.127883
    C   C77   0.116304  0.218312  0.444241  -0.127912
    C   C78   0.218312  0.883696  0.444241  -0.127911
    C   C79   0.883696  0.781688  0.444241  -0.127893
    C   C80   0.781688  0.116304  0.444241  -0.127889
    C   C81   0.616303  0.281689  0.055759  -0.127875
    C   C82   0.718312  0.616304  0.055759  -0.127925
    C   C83   0.383696  0.718312  0.055759  -0.127929
    C   C84   0.281688  0.383696  0.055759  -0.127896
    C   C85   0.616304  0.718312  0.944241  -0.127919
    C   C86   0.718312  0.383697  0.944241  -0.127831
    C   C87   0.383697  0.281689  0.944241  -0.127863
    C   C88   0.281688  0.616304  0.944241  -0.127895
    C   C89   0.112535  0.718166  0.557641  0.116181
    C   C90   0.281834  0.112535  0.557641  0.116189
    C   C91   0.887465  0.281834  0.557641  0.116166
    C   C92   0.718166  0.887465  0.557641  0.116157
    C   C93   0.112535  0.281834  0.442359  0.116183
    C   C94   0.281834  0.887465  0.442359  0.116182
    C   C95   0.887465  0.718166  0.442359  0.116179
    C   C96   0.718166  0.112535  0.442359  0.116181
    C   C97   0.612535  0.218166  0.057641  0.116169
    C   C98   0.781834  0.612535  0.057641  0.116223
    C   C99   0.387465  0.781834  0.057641  0.116195
    C   C100  0.218166  0.387465  0.057641  0.116183
    C   C101  0.612535  0.781834  0.942359  0.116198
    C   C102  0.781834  0.387465  0.942359  0.116043
    C   C103  0.387465  0.218166  0.942359  0.116150
    C   C104  0.218166  0.612535  0.942359  0.116191
    C   C105  0.073465  0.686480  0.539322  -0.246776
    C   C106  0.313520  0.073465  0.539322  -0.246786
    C   C107  0.926535  0.313520  0.539322  -0.246737
    C   C108  0.686480  0.926535  0.539322  -0.246730
    C   C109  0.073465  0.313520  0.460678  -0.246752
    C   C110  0.313520  0.926535  0.460678  -0.246730
    C   C111  0.926535  0.686480  0.460678  -0.246727
    C   C112  0.686480  0.073465  0.460678  -0.246754
    C   C113  0.573465  0.186480  0.039322  -0.246751
    C   C114  0.813520  0.573465  0.039322  -0.246805
    C   C115  0.426535  0.813520  0.039322  -0.246772
    C   C116  0.186480  0.426535  0.039322  -0.246737
    C   C117  0.573465  0.813520  0.960678  -0.246775
    C   C118  0.813520  0.426536  0.960678  -0.246540
    C   C119  0.426535  0.186480  0.960678  -0.246698
    C   C120  0.186480  0.573465  0.960678  -0.246741
    C   C121  0.037546  0.717934  0.519198  0.225257
    C   C122  0.282066  0.037546  0.519198  0.225253
    C   C123  0.962454  0.282066  0.519198  0.225238
    C   C124  0.717934  0.962454  0.519198  0.225231
    C   C125  0.037546  0.282066  0.480802  0.225233
    C   C126  0.282066  0.962454  0.480802  0.225218
    C   C127  0.962454  0.717934  0.480801  0.225229
    C   C128  0.717934  0.037546  0.480802  0.225231
    C   C129  0.537546  0.217934  0.019198  0.225216
    C   C130  0.782066  0.537546  0.019198  0.225229
    C   C131  0.462454  0.782066  0.019198  0.225261
    C   C132  0.217934  0.462454  0.019198  0.225216
    C   C133  0.537546  0.782066  0.980802  0.225251
    C   C134  0.782066  0.462454  0.980802  0.225102
    C   C135  0.462454  0.217934  0.980801  0.225194
    C   C136  0.217934  0.537546  0.980802  0.225201
    C   C137  0.038859  0.782112  0.518604  0.154261
    C   C138  0.217888  0.038859  0.518604  0.154235
    C   C139  0.961141  0.217888  0.518604  0.154233
    C   C140  0.782112  0.961141  0.518604  0.154266
    C   C141  0.038859  0.217888  0.481396  0.154237
    C   C142  0.217888  0.961141  0.481396  0.154235
    C   C143  0.961141  0.782112  0.481396  0.154245
    C   C144  0.782112  0.038859  0.481396  0.154268
    C   C145  0.538859  0.282112  0.018604  0.154271
    C   C146  0.717888  0.538859  0.018604  0.154271
    C   C147  0.461141  0.717889  0.018604  0.154228
    C   C148  0.282112  0.461141  0.018604  0.154252
    C   C149  0.538859  0.717889  0.981396  0.154231
    C   C150  0.717888  0.461141  0.981396  0.154310
    C   C151  0.461141  0.282112  0.981396  0.154257
    C   C152  0.282112  0.538859  0.981396  0.154261
    C   C153  0.000000  0.685693  0.500000  -0.356467
    C   C154  0.314307  0.000000  0.500000  -0.356443
    C   C155  0.000000  0.314307  0.500000  -0.356433
    C   C156  0.685693  0.000000  0.500000  -0.356442
    C   C157  0.500000  0.185693  0.000000  -0.356427
    C   C158  0.814307  0.500000  0.000000  -0.356380
    C   C159  0.500000  0.814307  0.000000  -0.356451
    C   C160  0.185693  0.500000  0.000000  -0.356362
    C   C161  0.000000  0.814392  0.500000  -0.267463
    C   C162  0.185608  0.000000  0.500000  -0.267432
    C   C163  0.000000  0.185608  0.500000  -0.267436
    C   C164  0.814392  0.000000  0.500000  -0.267468
    C   C165  0.500000  0.314392  0.000000  -0.267460
    C   C166  0.685608  0.500000  0.000000  -0.267466
    C   C167  0.500000  0.685608  0.000000  -0.267455
    C   C168  0.314392  0.500000  0.000000  -0.267444
    C   C169  0.054945  0.506278  0.369604  -0.250227
    C   C170  0.493722  0.054945  0.369604  -0.250212
    C   C171  0.945055  0.493722  0.369604  -0.250215
    C   C172  0.506278  0.945055  0.369604  -0.250183
    C   C173  0.054945  0.493722  0.630396  -0.250193
    C   C174  0.493722  0.945055  0.630396  -0.250183
    C   C175  0.945055  0.506278  0.630396  -0.250194
    C   C176  0.506278  0.054945  0.630396  -0.250192
    C   C177  0.554946  0.006278  0.869604  -0.250255
    C   C178  0.993722  0.554946  0.869604  -0.250235
    C   C179  0.445055  0.993722  0.869604  -0.250240
    C   C180  0.006278  0.445055  0.869604  -0.250215
    C   C181  0.554945  0.993722  0.130396  -0.250219
    C   C182  0.993722  0.445055  0.130396  -0.250206
    C   C183  0.445054  0.006278  0.130396  -0.250221
    C   C184  0.006278  0.554945  0.130396  -0.250202
    H   H17   0.098252  0.512414  0.358270  0.159985
    H   H18   0.487586  0.098253  0.358271  0.159989
    H   H19   0.901748  0.487586  0.358270  0.159983
    H   H20   0.512414  0.901748  0.358270  0.159979
    H   H21   0.098252  0.487586  0.641730  0.159983
    H   H22   0.487586  0.901748  0.641730  0.159984
    H   H23   0.901747  0.512414  0.641729  0.159983
    H   H24   0.512414  0.098253  0.641729  0.159990
    H   H25   0.598253  0.012414  0.858271  0.159997
    H   H26   0.987586  0.598253  0.858271  0.159992
    H   H27   0.401748  0.987586  0.858270  0.159988
    H   H28   0.012414  0.401748  0.858270  0.159981
    H   H29   0.598252  0.987586  0.141730  0.159990
    H   H30   0.987586  0.401747  0.141729  0.159984
    H   H31   0.401747  0.012414  0.141729  0.159995
    H   H32   0.012414  0.598252  0.141730  0.159983
    C   C185  0.055060  0.505269  0.399208  0.079942
    C   C186  0.494731  0.055060  0.399208  0.079940
    C   C187  0.944940  0.494731  0.399208  0.079927
    C   C188  0.505269  0.944940  0.399208  0.079922
    C   C189  0.055060  0.494731  0.600792  0.079894
    C   C190  0.494731  0.944940  0.600792  0.079912
    C   C191  0.944940  0.505269  0.600792  0.079907
    C   C192  0.505269  0.055060  0.600792  0.079920
    C   C193  0.555061  0.005269  0.899208  0.079964
    C   C194  0.994731  0.555061  0.899208  0.079963
    C   C195  0.444940  0.994731  0.899208  0.079960
    C   C196  0.005269  0.444940  0.899208  0.079953
    C   C197  0.555060  0.994731  0.100792  0.079905
    C   C198  0.994731  0.444940  0.100792  0.079903
    C   C199  0.444940  0.005269  0.100792  0.079904
    C   C200  0.005269  0.555060  0.100792  0.079909
    H   H33   0.085293  0.862970  0.536026  0.164204
    H   H34   0.137030  0.085293  0.536026  0.164185
    H   H35   0.914707  0.137030  0.536026  0.164191
    H   H36   0.862970  0.914707  0.536026  0.164203
    H   H37   0.085293  0.137030  0.463974  0.164186
    H   H38   0.137030  0.914707  0.463974  0.164189
    H   H39   0.914707  0.862970  0.463974  0.164202
    H   H40   0.862970  0.085293  0.463974  0.164199
    H   H41   0.585293  0.362970  0.036026  0.164201
    H   H42   0.637030  0.585293  0.036026  0.164190
    H   H43   0.414707  0.637031  0.036026  0.164198
    H   H44   0.362970  0.414707  0.036026  0.164197
    H   H45   0.585293  0.637031  0.963974  0.164195
    H   H46   0.637030  0.414707  0.963974  0.164201
    H   H47   0.414707  0.362970  0.963974  0.164202
    H   H48   0.362970  0.585293  0.963974  0.164196
    C   C201  0.000000  0.500000  0.414123  -0.155609
    C   C202  0.500000  0.000000  0.414123  -0.155602
    C   C203  0.000000  0.500000  0.585877  -0.155518
    C   C204  0.500000  0.000000  0.585877  -0.155543
    C   C205  0.500000  0.000000  0.914123  -0.155661
    C   C206  0.000000  0.500000  0.914123  -0.155637
    C   C207  0.500000  0.000000  0.085877  -0.155532
    C   C208  0.000000  0.500000  0.085877  -0.155504
    H   H49   0.071343  0.636886  0.541344  0.153139
    H   H50   0.363114  0.071343  0.541344  0.153142
    H   H51   0.928657  0.363114  0.541344  0.153120
    H   H52   0.636886  0.928657  0.541344  0.153105
    H   H53   0.071343  0.363114  0.458656  0.153120
    H   H54   0.363114  0.928657  0.458656  0.153107
    H   H55   0.928657  0.636886  0.458656  0.153104
    H   H56   0.636886  0.071343  0.458656  0.153112
    H   H57   0.571343  0.136886  0.041344  0.153122
    H   H58   0.863114  0.571343  0.041344  0.153146
    H   H59   0.428657  0.863114  0.041344  0.153121
    H   H60   0.136886  0.428657  0.041344  0.153113
    H   H61   0.571343  0.863114  0.958656  0.153126
    H   H62   0.863114  0.428657  0.958656  0.153033
    H   H63   0.428657  0.136886  0.958656  0.153094
    H   H64   0.136886  0.571343  0.958656  0.153113
    C   C209  0.000000  0.500000  0.354589  0.244306
    C   C210  0.500000  0.000000  0.354589  0.244296
    C   C211  0.000000  0.500000  0.645411  0.244261
    C   C212  0.500000  0.000000  0.645411  0.244276
    C   C213  0.500000  0.000000  0.854589  0.244345
    C   C214  0.000000  0.500000  0.854589  0.244343
    C   C215  0.500000  0.000000  0.145411  0.244317
    C   C216  0.000000  0.500000  0.145411  0.244318
    C   C217  0.500000  0.000000  0.735182  0.088581
    C   C218  0.000000  0.500000  0.735182  0.088583
    C   C219  0.500000  0.000000  0.264818  0.088563
    C   C220  0.000000  0.500000  0.264818  0.088487
    C   C221  0.000000  0.500000  0.235182  0.088472
    C   C222  0.500000  0.000000  0.235182  0.088370
    C   C223  0.000000  0.500000  0.764818  0.088346
    C   C224  0.500000  0.000000  0.764818  0.088344
    H   H65   0.098529  0.510231  0.410518  0.099490
    H   H66   0.489769  0.098529  0.410518  0.099487
    H   H67   0.901471  0.489769  0.410518  0.099492
    H   H68   0.510230  0.901471  0.410518  0.099490
    H   H69   0.098529  0.489770  0.589482  0.099492
    H   H70   0.489769  0.901471  0.589482  0.099486
    H   H71   0.901471  0.510231  0.589482  0.099490
    H   H72   0.510231  0.098529  0.589482  0.099480
    H   H73   0.598529  0.010231  0.910518  0.099489
    H   H74   0.989769  0.598529  0.910518  0.099482
    H   H75   0.401472  0.989769  0.910518  0.099487
    H   H76   0.010231  0.401472  0.910518  0.099487
    H   H77   0.598529  0.989769  0.089482  0.099492
    H   H78   0.989769  0.401471  0.089482  0.099490
    H   H79   0.401471  0.010231  0.089482  0.099493
    H   H80   0.010231  0.598529  0.089482  0.099483
    O   O17   0.948628  0.516188  0.458985  -0.528080
    O   O18   0.483812  0.948628  0.458985  -0.528059
    O   O19   0.051372  0.483812  0.458985  -0.528101
    O   O20   0.516188  0.051372  0.458985  -0.528073
    O   O21   0.948628  0.483812  0.541015  -0.528040
    O   O22   0.483812  0.051372  0.541015  -0.528047
    O   O23   0.051372  0.516188  0.541015  -0.528071
    O   O24   0.516188  0.948628  0.541015  -0.528012
    O   O25   0.448628  0.016188  0.958985  -0.528079
    O   O26   0.983812  0.448629  0.958985  -0.528037
    O   O27   0.551372  0.983812  0.958985  -0.528090
    O   O28   0.016188  0.551372  0.958985  -0.528057
    O   O29   0.448628  0.983812  0.041015  -0.528063
    O   O30   0.983812  0.551372  0.041015  -0.528038
    O   O31   0.551372  0.016188  0.041015  -0.528084
    O   O32   0.016188  0.448628  0.041015  -0.528023
    C   C225  0.000000  0.500000  0.445531  0.555045
    C   C226  0.500000  0.000000  0.445531  0.555021
    C   C227  0.000000  0.500000  0.554469  0.554918
    C   C228  0.500000  0.000000  0.554469  0.554911
    C   C229  0.500000  0.000000  0.945531  0.555070
    C   C230  0.000000  0.500000  0.945531  0.555047
    C   C231  0.500000  0.000000  0.054469  0.554937
    C   C232  0.000000  0.500000  0.054469  0.554885
    O   O33   0.948653  0.588582  0.507597  -0.622195
    O   O34   0.411418  0.948653  0.507597  -0.622170
    O   O35   0.051347  0.411418  0.507597  -0.622137
    O   O36   0.588582  0.051347  0.507597  -0.622087
    O   O37   0.948653  0.411418  0.492403  -0.622177
    O   O38   0.411418  0.051347  0.492403  -0.622185
    O   O39   0.051347  0.588582  0.492403  -0.622222
    O   O40   0.588582  0.948653  0.492403  -0.622131
    O   O41   0.448653  0.088582  0.007597  -0.622206
    O   O42   0.911418  0.448653  0.007597  -0.622170
    O   O43   0.551347  0.911418  0.007597  -0.622129
    O   O44   0.088582  0.551347  0.007597  -0.622090
    O   O45   0.448653  0.911418  0.992403  -0.622161
    O   O46   0.911418  0.551347  0.992403  -0.622169
    O   O47   0.551347  0.088582  0.992403  -0.622211
    O   O48   0.088582  0.448653  0.992403  -0.622134
    C   C233  0.000000  0.617649  0.500000  0.896427
    C   C234  0.382351  0.000000  0.500000  0.896410
    C   C235  0.000000  0.382351  0.500000  0.896320
    C   C236  0.617649  0.000000  0.500000  0.896294
    C   C237  0.500000  0.117649  0.000000  0.896426
    C   C238  0.882351  0.500000  0.000000  0.896430
    C   C239  0.500000  0.882351  0.000000  0.896334
    C   C240  0.117649  0.500000  0.000000  0.896274
    Cu  Cu5   0.939287  0.500000  0.500000  0.970986
    Cu  Cu6   0.500000  0.939287  0.500000  0.971135
    Cu  Cu7   0.060713  0.500000  0.500000  0.971002
    Cu  Cu8   0.500000  0.060713  0.500000  0.971183
    Cu  Cu9   0.439287  0.000000  0.000000  0.970972
    Cu  Cu10  0.000000  0.439287  0.000000  0.971148
    Cu  Cu11  0.560713  0.000000  0.000000  0.970986
    Cu  Cu12  0.000000  0.560713  0.000000  0.971156
    O   O49   0.581072  0.928360  0.676084  -0.454835
    O   O50   0.071640  0.581072  0.676084  -0.454836
    O   O51   0.418929  0.071640  0.676084  -0.454827
    O   O52   0.928360  0.418929  0.676084  -0.454831
    O   O53   0.581071  0.071640  0.323916  -0.454841
    O   O54   0.071640  0.418928  0.323916  -0.454830
    O   O55   0.418928  0.928360  0.323916  -0.454839
    O   O56   0.928360  0.581071  0.323916  -0.454839
    O   O57   0.081071  0.428360  0.176084  -0.454841
    O   O58   0.571640  0.081072  0.176084  -0.454868
    O   O59   0.918928  0.571640  0.176084  -0.454833
    O   O60   0.428359  0.918929  0.176084  -0.454832
    O   O61   0.081071  0.571641  0.823916  -0.454864
    O   O62   0.571641  0.918929  0.823916  -0.454843
    O   O63   0.918928  0.428360  0.823916  -0.454834
    O   O64   0.428360  0.081072  0.823916  -0.454868
    H   H81   0.390031  0.108384  0.724087  0.131191
    H   H82   0.891616  0.390031  0.724087  0.131228
    H   H83   0.609970  0.891617  0.724087  0.131226
    H   H84   0.108383  0.609970  0.724087  0.131192
    H   H85   0.390030  0.891617  0.275913  0.131237
    H   H86   0.891616  0.609969  0.275913  0.131242
    H   H87   0.609969  0.108384  0.275913  0.131201
    H   H88   0.108384  0.390031  0.275913  0.131237
    H   H89   0.890031  0.608383  0.224087  0.131227
    H   H90   0.391616  0.890031  0.224087  0.131234
    H   H91   0.109969  0.391616  0.224087  0.131230
    H   H92   0.608383  0.109969  0.224087  0.131335
    H   H93   0.890031  0.391617  0.775913  0.131238
    H   H94   0.391617  0.109969  0.775913  0.131346
    H   H95   0.109969  0.608384  0.775913  0.131345
    H   H96   0.608384  0.890031  0.775913  0.131243
    N   N9    0.149185  0.685390  0.578233  0.571591
    O   O65   0.186041  0.715482  0.595383  -0.381501
    O   O66   0.145602  0.625362  0.580220  -0.365987
    N   N10   0.314610  0.149185  0.578233  0.571605
    O   O67   0.284518  0.186041  0.595383  -0.381489
    O   O68   0.374638  0.145602  0.580220  -0.365998
    N   N11   0.850815  0.314610  0.578233  0.571610
    O   O69   0.813959  0.284518  0.595383  -0.381498
    O   O70   0.854398  0.374638  0.580220  -0.366002
    N   N12   0.685390  0.850815  0.578233  0.571600
    O   O71   0.715482  0.813959  0.595383  -0.381483
    O   O72   0.625362  0.854398  0.580220  -0.365991
    N   N13   0.149185  0.314610  0.421767  0.571592
    O   O73   0.186041  0.284518  0.404617  -0.381492
    O   O74   0.145602  0.374638  0.419780  -0.365993
    N   N14   0.314610  0.850815  0.421767  0.571579
    O   O75   0.284518  0.813959  0.404617  -0.381467
    O   O76   0.374638  0.854398  0.419780  -0.365989
    N   N15   0.850815  0.685390  0.421767  0.571567
    O   O77   0.813959  0.715482  0.404617  -0.381485
    O   O78   0.854398  0.625362  0.419780  -0.365977
    N   N16   0.685390  0.149185  0.421767  0.571579
    O   O79   0.715482  0.186041  0.404617  -0.381477
    O   O80   0.625362  0.145602  0.419780  -0.365985
    N   N17   0.649184  0.185390  0.078233  0.571589
    O   O81   0.686041  0.215482  0.095383  -0.381503
    O   O82   0.645602  0.125362  0.080220  -0.365978
    N   N18   0.814610  0.649185  0.078233  0.571590
    O   O83   0.784518  0.686041  0.095383  -0.381502
    O   O84   0.874638  0.645602  0.080220  -0.365983
    N   N19   0.350815  0.814610  0.078233  0.571594
    O   O85   0.313959  0.784518  0.095383  -0.381491
    O   O86   0.354398  0.874638  0.080220  -0.365994
    N   N20   0.185390  0.350815  0.078233  0.571589
    O   O87   0.215482  0.313959  0.095383  -0.381498
    O   O88   0.125362  0.354398  0.080220  -0.365979
    N   N21   0.649185  0.814610  0.921767  0.571583
    O   O89   0.686041  0.784518  0.904617  -0.381482
    O   O90   0.645602  0.874638  0.919780  -0.365989
    N   N22   0.814610  0.350816  0.921767  0.571648
    O   O91   0.784518  0.313959  0.904617  -0.381499
    O   O92   0.874638  0.354398  0.919780  -0.366002
    N   N23   0.350816  0.185390  0.921767  0.571570
    O   O93   0.313959  0.215482  0.904617  -0.381487
    O   O94   0.354398  0.125362  0.919780  -0.365972
    N   N24   0.185390  0.649185  0.921767  0.571578
    O   O95   0.215482  0.686041  0.904617  -0.381493
    O   O96   0.125362  0.645602  0.919780  -0.365975
