# Generated by REPEAT Assigner based on pymatgen
data_DB0-m2_o6_o28_f0_pcu.sym.99_sqe
_audit_creation_date              2022-05-24
_audit_creation_method            REPEAT_Assigner
_cell_length_a                    16.076853
_cell_length_b                    14.608397
_cell_length_c                    23.393971
_cell_angle_alpha                 90.000000
_cell_angle_beta                  90.002306
_cell_angle_gamma                 90.000000
_cell_volume                      5494.239014
_symmetry_space_group_name_H-M    P1
_symmetry_Int_Tables_number       1
loop_
    _symmetry_equiv_pos_site_id
    _symmetry_equiv_pos_as_xyz
    1  x,y,z
loop_
    _atom_site_type_symbol
    _atom_site_label
    _atom_site_fract_x
    _atom_site_fract_y
    _atom_site_fract_z
    _atom_type_partial_charge
    O   O1    0.379600  0.604301  0.503579  -0.601964
    O   O2    0.621418  0.447911  0.497514  -0.618239
    O   O3    0.621398  0.605283  0.501045  -0.601977
    O   O4    0.379664  0.446986  0.499180  -0.590305
    C   C1    0.340750  0.525552  0.501595  0.833339
    C   C2    0.660284  0.526571  0.499105  0.866683
    O   O5    0.501386  0.604308  0.417200  -0.576554
    O   O6    0.498980  0.448010  0.583400  -0.534997
    O   O7    0.505278  0.605162  0.583356  -0.570287
    O   O8    0.496485  0.447195  0.417339  -0.499940
    C   C3    0.497069  0.525704  0.390291  0.569326
    C   C4    0.504037  0.526482  0.610301  0.594992
    Cu  Cu1   0.500415  0.617642  0.500288  0.933466
    Cu  Cu2   0.500608  0.434638  0.500369  0.924128
    C   C5    0.575594  0.532712  0.881237  0.316065
    C   C6    0.426398  0.533746  0.119179  0.316446
    N   N1    0.503228  0.532277  0.852764  0.003711
    N   N2    0.498745  0.532491  0.147672  0.004834
    C   C7    0.429968  0.532058  0.880105  0.297568
    C   C8    0.572001  0.531454  0.120324  0.292475
    C   C9    0.427095  0.533542  0.939866  -0.018506
    C   C10   0.574879  0.533092  0.060563  -0.010648
    C   C11   0.501403  0.532390  0.970398  -0.027889
    C   C12   0.500580  0.532465  0.030025  -0.027916
    C   C13   0.576559  0.530640  0.940965  -0.021958
    C   C14   0.425429  0.531407  0.059461  -0.020273
    C   C15   0.351906  0.533413  0.969737  -0.005297
    C   C16   0.650064  0.532550  0.030705  -0.018448
    C   C17   0.351156  0.529280  0.028623  -0.021295
    C   C18   0.650819  0.528209  0.971823  -0.010821
    O   O9    0.645870  0.538667  0.850431  -0.416029
    O   O10   0.356163  0.540767  0.149944  -0.411771
    O   O11   0.360767  0.527377  0.848102  -0.403927
    O   O12   0.641161  0.525621  0.152295  -0.399997
    C   C19   0.528651  0.602949  0.239711  -0.158729
    C   C20   0.474519  0.603908  0.760930  -0.156278
    H   H1    0.554414  0.661772  0.217972  0.137090
    H   H2    0.449855  0.663140  0.782838  0.136507
    C   C21   0.526883  0.600863  0.298601  -0.104496
    C   C22   0.476129  0.602121  0.702041  -0.115189
    H   H3    0.552995  0.657847  0.321949  0.139033
    H   H4    0.451007  0.659699  0.678741  0.139291
    C   C23   0.494018  0.526340  0.327325  -0.030509
    C   C24   0.507429  0.526979  0.673184  -0.032945
    C   C25   0.460999  0.453901  0.295764  0.073305
    C   C26   0.539318  0.453704  0.704465  0.072132
    C   C27   0.464268  0.456171  0.236832  -0.168419
    C   C28   0.536317  0.455711  0.763419  -0.166026
    H   H5    0.438564  0.400030  0.212449  0.124830
    H   H6    0.561215  0.398998  0.787680  0.121650
    C   C29   0.497655  0.530418  0.208640  0.100860
    C   C30   0.504248  0.530506  0.791799  0.101508
    C   C31   0.957598  0.606312  0.501466  -0.098361
    C   C32   0.043531  0.441823  0.500243  -0.102994
    C   C33   0.043770  0.606057  0.501605  -0.079387
    C   C34   0.957083  0.442097  0.499892  -0.090955
    C   C35   0.914392  0.524474  0.500377  0.128480
    C   C36   0.086612  0.523970  0.501050  0.134737
    C   C37   0.824786  0.525406  0.499940  -0.068750
    C   C38   0.176231  0.524512  0.501260  -0.076999
    C   C39   0.251320  0.525180  0.501491  -0.242906
    C   C40   0.749705  0.526218  0.499473  -0.259150
    H   H7    0.632789  0.110107  0.505888  0.180047
    H   H8    0.368095  0.942242  0.494200  0.172158
    H   H9    0.368359  0.110680  0.494529  0.179737
    H   H10   0.632499  0.941683  0.505929  0.193229
    C   C41   0.574493  0.978843  0.503377  -0.281335
    C   C42   0.426372  0.073511  0.496991  -0.190117
    C   C43   0.426219  0.979155  0.496824  -0.240234
    C   C44   0.574655  0.073190  0.503395  -0.179344
    C   C45   0.500277  0.931862  0.500079  0.409652
    C   C46   0.500596  0.120472  0.500277  0.262595
    C   C47   0.500146  0.833708  0.500091  -0.008834
    C   C48   0.500772  0.218593  0.500421  0.052422
    N   N3    0.500869  0.297752  0.500508  -0.145166
    N   N4    0.500121  0.754536  0.500129  -0.134960
    C   C49   0.271042  0.540754  0.941135  0.213056
    C   C50   0.240609  0.626161  0.926916  -0.089315
    C   C51   0.165586  0.634229  0.898933  0.022201
    Cl  Cl1   0.127352  0.742582  0.880704  -0.087689
    C   C52   0.120868  0.556966  0.884976  -0.126587
    C   C53   0.150784  0.471541  0.899386  -0.113038
    C   C54   0.225881  0.463315  0.927414  -0.172559
    H   H11   0.275947  0.686765  0.937530  0.072166
    H   H12   0.062505  0.563596  0.862519  0.133093
    H   H13   0.115580  0.411003  0.888403  0.117779
    H   H14   0.249707  0.396323  0.938211  0.102508
    C   C55   0.730896  0.540277  0.059315  0.217761
    C   C56   0.760860  0.625837  0.073640  -0.078825
    C   C57   0.835821  0.634318  0.101651  0.008748
    Cl  Cl2   0.873452  0.742871  0.120011  -0.081458
    C   C58   0.880948  0.557311  0.115533  -0.123499
    C   C59   0.851501  0.471732  0.101021  -0.114217
    C   C60   0.776464  0.463092  0.072965  -0.173377
    H   H15   0.725202  0.686240  0.063085  0.069291
    H   H16   0.939258  0.564263  0.138015  0.134904
    H   H17   0.887021  0.411394  0.111952  0.118817
    H   H18   0.752995  0.395973  0.062106  0.103193
    C   C61   0.270296  0.514130  0.056028  0.207558
    C   C62   0.247150  0.426132  0.070545  -0.061778
    C   C63   0.171841  0.410336  0.096796  0.006079
    Cl  Cl3   0.142825  0.298653  0.115231  -0.086062
    C   C64   0.119471  0.482476  0.108695  -0.133173
    C   C65   0.142248  0.570509  0.094212  -0.091452
    C   C66   0.217682  0.586473  0.067956  -0.171210
    H   H19   0.288300  0.369516  0.061323  0.063636
    H   H20   0.060689  0.469765  0.129546  0.127372
    H   H21   0.101083  0.627035  0.103641  0.103660
    H   H22   0.235779  0.655538  0.057003  0.106904
    C   C67   0.731684  0.512958  0.944450  0.200472
    C   C68   0.754897  0.424896  0.930133  -0.059952
    C   C69   0.830246  0.409009  0.903958  0.013567
    Cl  Cl4   0.859354  0.297243  0.885789  -0.091351
    C   C70   0.882591  0.481121  0.891937  -0.138078
    C   C71   0.859745  0.569216  0.906220  -0.089797
    C   C72   0.784272  0.585271  0.932401  -0.171352
    H   H23   0.713772  0.368302  0.939461  0.063994
    H   H24   0.941414  0.468341  0.871154  0.127826
    H   H25   0.900893  0.625719  0.896702  0.103540
    H   H26   0.766134  0.654377  0.943219  0.104614
    C   C73   0.418085  0.376558  0.322535  0.098388
    C   C74   0.446905  0.288524  0.314269  -0.151985
    C   C75   0.407309  0.215811  0.340199  0.049089
    Cl  Cl5   0.445353  0.104476  0.331013  -0.102342
    C   C76   0.338238  0.230804  0.373819  -0.019075
    C   C77   0.308288  0.318441  0.381085  -0.166899
    C   C78   0.347706  0.391126  0.355161  -0.108940
    H   H27   0.501586  0.276536  0.288445  0.099961
    H   H28   0.307549  0.173824  0.394381  0.058732
    H   H29   0.254169  0.330493  0.407338  0.139436
    H   H30   0.323906  0.459702  0.361005  0.103335
    C   C79   0.581117  0.375965  0.677251  0.105246
    C   C80   0.552454  0.288061  0.686322  -0.151793
    C   C81   0.591231  0.214968  0.660216  0.075780
    Cl  Cl6   0.553394  0.103797  0.670506  -0.121680
    C   C82   0.659353  0.229425  0.625605  -0.064691
    C   C83   0.689106  0.316925  0.617433  -0.137797
    C   C84   0.650503  0.389992  0.643521  -0.126480
    H   H31   0.498552  0.276423  0.712968  0.102307
    H   H32   0.689483  0.172138  0.604985  0.073839
    H   H33   0.742507  0.328538  0.590409  0.134189
    H   H34   0.674355  0.458409  0.637083  0.105036
    C   C85   0.089924  0.692426  0.504216  0.239474
    C   C86   0.134096  0.722854  0.457266  -0.054135
    C   C87   0.176542  0.804792  0.459642  0.037247
    Cl  Cl7   0.232254  0.843334  0.400008  -0.085415
    C   C88   0.174880  0.856593  0.508880  -0.153468
    C   C89   0.130995  0.826315  0.555827  -0.108332
    C   C90   0.088610  0.744364  0.553527  -0.207612
    H   H35   0.134941  0.682764  0.418434  0.081769
    H   H36   0.207890  0.920989  0.510665  0.120798
    H   H37   0.129747  0.866890  0.594455  0.132017
    H   H38   0.054343  0.720793  0.590453  0.108742
    C   C91   0.910717  0.355522  0.500923  0.241036
    C   C92   0.917542  0.297423  0.547313  -0.186856
    C   C93   0.877322  0.214077  0.547191  0.096595
    Cl  Cl8   0.887335  0.140252  0.605747  -0.098419
    C   C94   0.829144  0.188924  0.501071  -0.113529
    C   C95   0.821550  0.246965  0.454917  -0.190044
    C   C96   0.862551  0.329875  0.454678  -0.058999
    H   H39   0.954943  0.316899  0.583728  0.087840
    H   H40   0.797493  0.123640  0.501056  0.110683
    H   H41   0.784037  0.227086  0.418638  0.131317
    H   H42   0.857740  0.374252  0.417853  0.094962
    C   C97   0.911845  0.693048  0.501139  0.245292
    C   C98   0.913638  0.748553  0.453368  -0.143221
    C   C99   0.871756  0.830914  0.453373  0.042745
    Cl  Cl9   0.874453  0.901247  0.392800  -0.075675
    C   C100  0.827895  0.858026  0.501083  -0.139427
    C   C101  0.825770  0.802665  0.548776  -0.115664
    C   C102  0.867716  0.720342  0.548850  -0.121868
    H   H43   0.947913  0.727495  0.415858  0.088108
    H   H44   0.795301  0.922743  0.501119  0.106594
    H   H45   0.791462  0.823977  0.586216  0.118615
    H   H46   0.866555  0.677492  0.586512  0.101671
    C   C103  0.089415  0.354964  0.498240  0.223853
    C   C104  0.081808  0.297882  0.451412  -0.132854
    C   C105  0.121449  0.214205  0.450702  0.030246
    Cl  Cl10  0.110367  0.141647  0.391620  -0.078444
    C   C106  0.169924  0.187746  0.496388  -0.054007
    C   C107  0.178295  0.244754  0.542975  -0.222944
    C   C108  0.137787  0.327937  0.544079  -0.057264
    H   H47   0.044255  0.318406  0.415298  0.078338
    H   H48   0.201208  0.122254  0.495718  0.096597
    H   H49   0.216013  0.223837  0.578925  0.135695
    H   H50   0.143159  0.371444  0.581271  0.095141
