# Generated by REPEAT Assigner based on pymatgen
data_DB0-m9_o8_o21_f0_sra.sym.63_sqe
_audit_creation_date              2022-05-24
_audit_creation_method            REPEAT_Assigner
_cell_length_a                    6.326941
_cell_length_b                    19.365270
_cell_length_c                    22.752347
_cell_angle_alpha                 100.912658
_cell_angle_beta                  90.570297
_cell_angle_gamma                 90.658654
_cell_volume                      2736.884287
_symmetry_space_group_name_H-M    P1
_symmetry_Int_Tables_number       1
loop_
    _symmetry_equiv_pos_site_id
    _symmetry_equiv_pos_as_xyz
    1  x,y,z
loop_
    _atom_site_type_symbol
    _atom_site_label
    _atom_site_fract_x
    _atom_site_fract_y
    _atom_site_fract_z
    _atom_type_partial_charge
    O  O1   0.545721  0.486380  0.581793  -0.691449
    O  O2   0.164317  0.457377  0.418836  -0.562109
    O  O3   0.961101  0.575726  0.471479  -0.415867
    C  C1   0.338927  0.422106  0.415004  0.874531
    O  O4   0.256234  0.425912  0.532706  -0.454707
    O  O5   0.045933  0.544902  0.585116  -0.627867
    C  C2   0.378237  0.444858  0.581166  0.815642
    O  O6   0.454645  0.422098  0.462746  -0.457973
    O  O7   0.357136  0.558016  0.506964  -0.589526
    V  V1   0.080614  0.495518  0.501925  1.280526
    O  O8   0.763240  0.592082  0.542170  -0.577030
    C  C3   0.877669  0.585302  0.589905  0.998035
    O  O9   0.665415  0.527657  0.423046  -0.717222
    C  C4   0.843684  0.561857  0.423003  0.757674
    V  V2   0.581114  0.512493  0.502992  1.452062
    O  O10  0.853307  0.450335  0.500117  -0.588344
    C  C5   0.864414  0.607166  0.378989  -0.045537
    C  C6   0.702144  0.651634  0.371424  -0.106044
    C  C7   0.721250  0.695700  0.330802  -0.200579
    C  C8   0.898176  0.693053  0.295698  0.162700
    C  C9   0.058745  0.647369  0.302179  0.068930
    C  C10  0.043851  0.605470  0.344810  -0.217729
    C  C11  0.916080  0.811161  0.170312  -0.239132
    C  C12  0.914477  0.852239  0.126891  -0.027162
    C  C13  0.762904  0.819899  0.213749  0.400271
    N  N1   0.911481  0.736536  0.252785  0.045838
    N  N2   0.757951  0.776650  0.256957  -0.312200
    C  C14  0.760818  0.902331  0.127375  -0.199419
    H  H1   0.032582  0.844851  0.092333  0.089230
    H  H2   0.035336  0.771522  0.169757  0.134439
    C  C15  0.609918  0.911598  0.171312  0.087282
    C  C16  0.610404  0.870223  0.214291  -0.288113
    H  H3   0.489201  0.950692  0.171525  0.074724
    H  H4   0.596610  0.731999  0.325977  0.129550
    H  H5   0.490240  0.876914  0.248271  0.131125
    H  H6   0.561972  0.653114  0.398391  0.091863
    C  C17  0.873553  0.641709  0.640959  -0.420073
    C  C18  0.882399  0.746360  0.734454  -0.099252
    C  C19  0.717321  0.760098  0.770321  -0.107655
    C  C20  0.731796  0.816657  0.821404  0.111403
    C  C21  0.874733  0.689289  0.683680  0.129679
    C  C22  0.748923  0.864106  0.864013  -0.386100
    H  H7   0.573898  0.728511  0.761500  0.154259
    H  H8   0.025309  0.778112  0.743876  0.163035
    C  C23  0.261769  0.143628  0.138581  -0.385138
    C  C24  0.250500  0.251792  0.228931  -0.093324
    C  C25  0.395333  0.260335  0.272519  -0.113033
    C  C26  0.378300  0.317853  0.322511  0.129169
    C  C27  0.259412  0.192869  0.179879  0.117330
    C  C28  0.361511  0.365680  0.364579  -0.419855
    H  H9   0.523079  0.223248  0.271065  0.154607
    H  H10  0.122053  0.288703  0.230976  0.154625
    C  C29  0.377879  0.399505  0.625447  -0.221138
    C  C30  0.203128  0.358402  0.631751  -0.173480
    C  C31  0.206696  0.314664  0.673089  0.022475
    C  C32  0.387627  0.310278  0.706443  0.262466
    C  C33  0.562696  0.350885  0.699651  -0.206291
    C  C34  0.556557  0.396364  0.659920  0.067782
    C  C35  0.417490  0.163670  0.805140  -0.094995
    C  C36  0.432721  0.117864  0.844441  -0.043457
    C  C37  0.228874  0.196348  0.798343  0.308199
    N  N3   0.395688  0.263752  0.746976  -0.127769
    N  N4   0.216019  0.243968  0.758824  -0.233662
    C  C38  0.261641  0.106764  0.878652  -0.211223
    H  H11  0.580806  0.092332  0.849815  0.124892
    H  H12  0.553253  0.173728  0.779384  0.045839
    H  H13  0.704324  0.347433  0.725850  0.065664
    H  H14  0.693874  0.428256  0.654639  0.094146
    C  C39  0.073125  0.139825  0.872243  -0.096196
    C  C40  0.055517  0.183611  0.831188  -0.111219
    H  H15  0.939114  0.131233  0.899201  0.114330
    H  H16  0.069688  0.282590  0.678271  0.048902
    H  H17  0.907929  0.209553  0.826088  0.068264
    H  H18  0.063162  0.360762  0.604604  0.129275
    O  O11  0.088987  0.043781  0.084554  -0.609667
    O  O12  0.456972  0.026222  0.922370  -0.688221
    O  O13  0.662787  0.920892  0.962104  -0.487850
    C  C41  0.284076  0.062033  0.923046  0.801814
    O  O14  0.372478  0.091051  0.041581  -0.554630
    O  O15  0.585604  0.985165  0.081172  -0.651593
    C  C42  0.257937  0.085289  0.089075  0.946468
    O  O16  0.168225  0.074756  0.970994  -0.388527
    O  O17  0.269275  0.949222  0.999615  -0.546239
    V  V3   0.545844  0.011338  0.002402  1.462134
    O  O18  0.866351  0.924657  0.032009  -0.410999
    C  C43  0.752521  0.944745  0.080916  0.726400
    O  O19  0.953028  0.956263  0.918286  -0.618789
    C  C44  0.776243  0.920708  0.914447  0.901442
    V  V4   0.045088  0.994285  0.001402  1.234240
    O  O20  0.773226  0.056801  0.006306  -0.577229
    C  C45  0.246719  0.642896  0.263109  0.129117
    O  O21  0.229016  0.691284  0.225154  -0.549008
    H  H19  0.256640  0.589065  0.236009  0.024275
    H  H20  0.391867  0.654477  0.291013  0.111779
    H  H21  0.181974  0.662826  0.186308  0.317524
    C  C46  0.217404  0.556712  0.352383  0.151929
    O  O22  0.296191  0.573159  0.410867  -0.086983
    H  H22  0.345711  0.562052  0.320631  -0.061707
    H  H23  0.154945  0.501935  0.343360  0.029375
    H  H24  0.247053  0.621529  0.426097  0.196053
