# Generated by REPEAT Assigner based on pymatgen
data_DB0-m29_o88_o1470_f0_pts.sym.125
_audit_creation_date              2022-05-24
_audit_creation_method            REPEAT_Assigner
_cell_length_a                    15.483223
_cell_length_b                    11.652041
_cell_length_c                    13.487774
_cell_angle_alpha                 88.544242
_cell_angle_beta                  101.956339
_cell_angle_gamma                 106.614540
_cell_volume                      2279.681269
_symmetry_space_group_name_H-M    P1
_symmetry_Int_Tables_number       1
loop_
    _symmetry_equiv_pos_site_id
    _symmetry_equiv_pos_as_xyz
    1  x,y,z
loop_
    _atom_site_type_symbol
    _atom_site_label
    _atom_site_fract_x
    _atom_site_fract_y
    _atom_site_fract_z
    _atom_type_partial_charge
    C   C1   0.767787  0.893613  0.150451  -0.073234
    H   H1   0.740507  0.842145  0.210600  0.110910
    C   C2   0.848322  0.883865  0.129028  -0.139694
    H   H2   0.880389  0.822055  0.171937  0.109133
    C   C3   0.887437  0.952761  0.055869  0.210832
    C   C4   0.841140  0.029509  0.002655  -0.264521
    H   H3   0.870747  0.089014  0.948301  0.128930
    C   C5   0.755194  0.030802  0.017137  0.076320
    C   C6   0.721553  0.967540  0.096432  -0.045889
    C   C7   0.978399  0.944135  0.040883  0.040555
    C   C8   0.005704  0.965446  0.950874  0.076865
    C   C9   0.117007  0.959731  0.844702  -0.279156
    H   H4   0.059679  0.924589  0.782287  0.151304
    C   C10  0.204554  0.987034  0.825439  0.476535
    C   C11  0.280939  0.024503  0.904223  -0.213711
    C   C12  0.267626  0.033809  0.002645  0.036950
    C   C13  0.179503  0.021555  0.017510  -0.266896
    H   H5   0.172749  0.046247  0.091218  0.148429
    C   C14  0.102482  0.980728  0.939498  0.200444
    O   O1   0.556960  0.228154  0.752134  -0.543239
    C   C15  0.493073  0.222973  0.669764  0.584040
    O   O2   0.421927  0.176959  0.896469  -0.469253
    O   O3   0.425769  0.123258  0.648196  -0.538470
    O   O4   0.406379  0.987847  0.841932  -0.540965
    C   C16  0.373148  0.064184  0.880451  0.673280
    Fe  Fe1  0.527729  0.066283  0.808344  1.405368
    O   O5   0.611890  0.076396  0.944740  -0.567425
    O   O6   0.717132  0.095150  0.847092  -0.544755
    C   C17  0.695564  0.078673  0.936528  0.591370
    O   O7   0.539964  0.967886  0.694874  -0.513448
    O   O8   0.443141  0.806791  0.754039  -0.487349
    C   C18  0.494224  0.853177  0.688517  0.493680
    O   O9   0.549260  0.175656  0.324995  -0.579125
    O   O10  0.445139  0.260910  0.230799  -0.475346
    C   C19  0.502478  0.254653  0.315796  0.597476
    O   O11  0.428120  0.062734  0.083505  -0.570167
    O   O12  0.322763  0.026130  0.183231  -0.528533
    C   C20  0.342842  0.046183  0.093304  0.689347
    O   O13  0.616905  0.958270  0.356927  -0.582269
    O   O14  0.633072  0.078716  0.157241  -0.580060
    C   C21  0.638175  0.975183  0.126414  0.684805
    O   O15  0.466275  0.905211  0.277706  -0.629173
    C   C22  0.533648  0.884098  0.346010  0.800852
    O   O16  0.573443  0.876494  0.134544  -0.555976
    Fe  Fe2  0.519668  0.054170  0.210852  1.449589
    C   C23  0.501128  0.848970  0.512439  -0.151388
    C   C24  0.494124  0.784282  0.598735  0.049910
    C   C25  0.494497  0.664401  0.597017  -0.204455
    C   C26  0.478608  0.584765  0.684740  0.451175
    C   C27  0.533035  0.494128  0.692411  -0.285291
    C   C28  0.513539  0.801436  0.426710  -0.135201
    C   C29  0.521867  0.686505  0.426938  0.048167
    C   C30  0.509250  0.617073  0.510384  0.168295
    C   C31  0.511101  0.492456  0.505657  -0.140688
    C   C32  0.515404  0.428255  0.593585  0.207955
    C   C33  0.507851  0.306700  0.587441  -0.098737
    C   C34  0.552143  0.638914  0.342828  -0.217190
    C   C35  0.497942  0.509633  0.318847  0.047662
    C   C36  0.504979  0.438705  0.412581  0.027907
    C   C37  0.504404  0.319644  0.408435  -0.058536
    C   C38  0.504080  0.255407  0.495383  -0.101572
    H   H6   0.503944  0.638620  0.756550  0.039316
    H   H7   0.607427  0.543302  0.713120  0.070240
    H   H8   0.626250  0.644501  0.367047  0.081758
    H   H9   0.527378  0.477433  0.260730  0.056307
    H   H10  0.499760  0.941139  0.511712  0.158073
    H   H11  0.498838  0.161132  0.491205  0.151945
    H   H12  0.515808  0.432490  0.753721  0.156015
    H   H13  0.542214  0.689034  0.272643  0.141343
    H   H14  0.424601  0.503756  0.287623  0.042070
    N   N1   0.381510  0.523088  0.670731  -0.706433
    C   C39  0.345515  0.501230  0.754960  0.814569
    O   O17  0.395102  0.501509  0.838053  -0.497701
    C   C40  0.243859  0.471906  0.746688  -0.536474
    H   H15  0.339079  0.540060  0.606120  0.314506
    H   H16  0.207665  0.471289  0.666573  0.125564
    H   H17  0.228777  0.539671  0.791411  0.153784
    H   H18  0.218527  0.382183  0.777448  0.176347
    N   N2   0.036221  0.909794  0.125182  -0.330058
    C   C41  0.041417  0.796084  0.121112  0.744663
    O   O18  0.014042  0.737429  0.041392  -0.507531
    C   C42  0.079958  0.740732  0.214542  -0.630900
    H   H19  0.037763  0.942526  0.195885  0.240641
    H   H20  0.103579  0.805675  0.280065  0.142731
    H   H21  0.139274  0.712048  0.201669  0.196304
    H   H22  0.026123  0.661365  0.231513  0.179364
    N   N3   0.940584  0.974025  0.861986  -0.293123
    C   C43  0.880784  0.869172  0.821000  0.697297
    O   O19  0.871897  0.778351  0.869513  -0.484297
    C   C44  0.825593  0.863292  0.715504  -0.594920
    H   H23  0.961824  0.038026  0.811265  0.268012
    H   H24  0.839776  0.953073  0.682257  0.142312
    H   H25  0.751212  0.830062  0.716861  0.189913
    H   H26  0.843409  0.800677  0.668060  0.162401
    N   N4   0.214426  0.972428  0.724866  -0.704048
    C   C45  0.184888  0.046619  0.655973  0.747053
    O   O20  0.144645  0.114574  0.679035  -0.579206
    C   C46  0.202009  0.047094  0.551061  -0.411397
    H   H27  0.263304  0.935123  0.710157  0.384540
    H   H28  0.238060  0.979791  0.541404  0.101733
    H   H29  0.244713  0.137390  0.536308  0.132610
    H   H30  0.135156  0.025347  0.495889  0.108300
