# Generated by REPEAT Assigner based on pymatgen
data_DB0-m3_o10_o18_f0_pcu.sym.12
_audit_creation_date              2022-05-24
_audit_creation_method            REPEAT_Assigner
_cell_length_a                    7.853661
_cell_length_b                    8.895062
_cell_length_c                    14.504131
_cell_angle_alpha                 91.745478
_cell_angle_beta                  95.502245
_cell_angle_gamma                 91.466051
_cell_volume                      1007.690838
_symmetry_space_group_name_H-M    P1
_symmetry_Int_Tables_number       1
loop_
    _symmetry_equiv_pos_site_id
    _symmetry_equiv_pos_as_xyz
    1  x,y,z
loop_
    _atom_site_type_symbol
    _atom_site_label
    _atom_site_fract_x
    _atom_site_fract_y
    _atom_site_fract_z
    _atom_type_partial_charge
    O   O1   0.888115  0.737206  0.505108  -0.543100
    O   O2   0.111886  0.262795  0.494892  -0.543095
    O   O3   0.175288  0.708187  0.489110  -0.640500
    O   O4   0.824713  0.291814  0.510890  -0.640504
    C   C1   0.041874  0.792128  0.496344  0.780821
    C   C2   0.958127  0.207873  0.503655  0.780811
    O   O5   0.897493  0.526335  0.645675  -0.622004
    O   O6   0.102507  0.473666  0.354325  -0.622064
    O   O7   0.184153  0.494583  0.629894  -0.639304
    O   O8   0.815848  0.505418  0.370106  -0.639301
    C   C3   0.057095  0.513705  0.680743  0.661329
    C   C4   0.942906  0.486296  0.319257  0.661420
    Zn  Zn1  0.810229  0.518914  0.509349  1.021316
    Zn  Zn2  0.189771  0.481087  0.490651  1.021352
    C   C5   0.100041  0.528261  0.781015  -0.024870
    C   C6   0.899960  0.471740  0.218985  -0.025216
    C   C7   0.030596  0.604471  0.930671  -0.331064
    C   C8   0.969405  0.395530  0.069329  -0.331499
    C   C9   0.982449  0.580102  0.837650  -0.000315
    C   C10  0.017552  0.419899  0.162350  0.000197
    C   C11  0.264157  0.497598  0.817728  -0.141801
    C   C12  0.735843  0.502403  0.182272  -0.141639
    C   C13  0.313574  0.518019  0.912247  -0.019081
    C   C14  0.686427  0.481982  0.087753  -0.019150
    C   C15  0.194459  0.574184  0.967486  0.316579
    C   C16  0.805542  0.425817  0.032514  0.316759
    C   C17  0.478418  0.486197  0.952533  0.032374
    C   C18  0.521583  0.513803  0.047467  0.032752
    C   C19  0.398989  0.573672  0.100033  -0.066008
    C   C20  0.601012  0.426329  0.899967  -0.065458
    C   C21  0.237863  0.602089  0.060300  -0.266875
    C   C22  0.762137  0.397912  0.939700  -0.267344
    H   H1   0.144749  0.648160  0.102765  0.136661
    H   H2   0.855251  0.351841  0.897235  0.136775
    H   H3   0.650125  0.539995  0.230707  0.124645
    H   H4   0.349876  0.460006  0.769293  0.124665
    H   H5   0.145165  0.394032  0.191075  0.113799
    H   H6   0.854835  0.605969  0.808925  0.113884
    H   H7   0.939774  0.649322  0.974990  0.158700
    H   H8   0.060227  0.350679  0.025010  0.158770
    H   H9   0.422039  0.601701  0.172606  0.106528
    H   H10  0.577962  0.398299  0.827394  0.106423
    C   C23  0.065862  0.955586  0.495493  -0.291709
    C   C24  0.934138  0.044415  0.504507  -0.291688
    H   H11  0.191510  0.004103  0.487906  0.228923
    H   H12  0.808491  0.995898  0.512093  0.228919
    N   N1   0.440583  0.456945  0.482236  -0.051270
    N   N2   0.559418  0.543056  0.517764  -0.051276
    N   N3   0.492711  0.320293  0.447936  0.519334
    O   O9   0.394636  0.201497  0.452950  -0.351021
    O   O10  0.605716  0.318389  0.388295  -0.212445
    N   N4   0.507289  0.679708  0.552064  0.519311
    O   O11  0.605364  0.798504  0.547050  -0.351002
    O   O12  0.394284  0.681612  0.611705  -0.212445
