# Generated by REPEAT Assigner based on pymatgen
data_DB0-m3_o32_o32_pto.sym.35_sqe
_audit_creation_date              2022-05-24
_audit_creation_method            REPEAT_Assigner
_cell_length_a                    27.397646
_cell_length_b                    27.539864
_cell_length_c                    27.453566
_cell_angle_alpha                 90.182873
_cell_angle_beta                  90.058234
_cell_angle_gamma                 90.055810
_cell_volume                      20714.343354
_symmetry_space_group_name_H-M    P1
_symmetry_Int_Tables_number       1
loop_
    _symmetry_equiv_pos_site_id
    _symmetry_equiv_pos_as_xyz
    1  x,y,z
loop_
    _atom_site_type_symbol
    _atom_site_label
    _atom_site_fract_x
    _atom_site_fract_y
    _atom_site_fract_z
    _atom_type_partial_charge
    Br  Br1   0.461493  0.399029  0.598549  -0.045567
    Br  Br2   0.914849  0.002585  0.087237  -0.011039
    Br  Br3   0.088891  0.030668  0.106787  -0.045708
    Br  Br4   0.900301  0.406115  0.041851  -0.035406
    Br  Br5   0.105810  0.409246  0.809916  -0.014281
    Br  Br6   0.026415  0.411451  0.892681  -0.042520
    Br  Br7   0.587853  0.498732  0.087356  -0.010409
    C   C1    0.126489  0.958815  0.874148  -0.195608
    C   C2    0.963257  0.109418  0.074813  -0.226018
    C   C3    0.499257  0.352186  0.144013  0.115634
    C   C4    0.501827  0.424400  0.074171  0.034496
    C   C5    0.502716  0.462844  0.037413  0.199177
    C   C6    0.644023  0.646280  0.000868  0.115369
    C   C7    0.573866  0.573852  0.002427  0.035037
    C   C8    0.537170  0.535057  0.003031  0.194689
    C   C9    0.501812  0.534280  0.967162  -0.261910
    C   C10   0.466703  0.463370  0.002273  -0.262614
    C   C11   0.538073  0.498931  0.038157  -0.167714
    C   C12   0.043222  0.126099  0.368619  -0.202862
    C   C13   0.121707  0.045157  0.869626  -0.183677
    C   C14   0.042794  0.090595  0.403865  -0.121157
    C   C15   0.874454  0.872438  0.454554  -0.204537
    C   C16   0.909601  0.908280  0.454436  -0.114572
    C   C17   0.128425  0.959218  0.622344  -0.198489
    C   C18   0.093150  0.959295  0.586547  -0.123534
    C   C19   0.123039  0.045500  0.628124  -0.203037
    C   C20   0.087684  0.045526  0.592387  -0.119431
    C   C21   0.870115  0.877299  0.541205  -0.197781
    C   C22   0.905087  0.913281  0.541037  -0.123951
    C   C23   0.956473  0.131681  0.373281  -0.200352
    C   C24   0.086147  0.045111  0.905110  -0.153983
    C   C25   0.956092  0.096230  0.408618  -0.124065
    C   C26   0.000063  0.146891  0.353130  0.129920
    C   C27   0.999254  0.075451  0.424219  0.105702
    C   C28   0.998955  0.037857  0.462088  0.046137
    C   C29   0.854604  0.856638  0.497962  0.127008
    C   C30   0.925225  0.928955  0.497679  0.098690
    C   C31   0.963067  0.966816  0.497660  0.049987
    C   C32   0.143566  0.002326  0.643362  0.123471
    C   C33   0.072457  0.002427  0.571355  0.104846
    C   C34   0.034603  0.002419  0.533436  0.043595
    C   C35   0.142150  0.002003  0.853971  0.118199
    C   C36   0.034467  0.037774  0.497867  -0.165620
    C   C37   0.963277  0.002329  0.462186  -0.172697
    C   C38   0.998872  0.967016  0.533130  -0.165460
    C   C39   0.456424  0.125080  0.371716  -0.196027
    C   C40   0.456239  0.089354  0.406766  -0.124260
    C   C41   0.623875  0.870172  0.455372  -0.201629
    C   C42   0.588253  0.905499  0.455584  -0.119639
    C   C43   0.369511  0.956099  0.624209  -0.198720
    C   C44   0.404976  0.956119  0.588640  -0.119822
    C   C45   0.374589  0.042419  0.629462  -0.195628
    C   C46   0.070563  0.001951  0.925473  0.132219
    C   C47   0.410227  0.042388  0.594068  -0.124887
    C   C48   0.628439  0.874471  0.542039  -0.203067
    C   C49   0.592975  0.909922  0.542204  -0.119159
    C   C50   0.543284  0.128948  0.376204  -0.199960
    C   C51   0.543051  0.093394  0.411418  -0.117760
    C   C52   0.499966  0.145021  0.356143  0.122061
    C   C53   0.499545  0.073221  0.426907  0.101408
    C   C54   0.499342  0.035135  0.464319  0.045357
    C   C55   0.644167  0.854418  0.498616  0.128285
    C   C56   0.572557  0.925705  0.498996  0.098885
    C   C57   0.033211  0.001932  0.963863  0.112102
    C   C58   0.534725  0.963542  0.499255  0.048113
    C   C59   0.354038  0.999264  0.644778  0.122225
    C   C60   0.425649  0.999255  0.573300  0.102775
    C   C61   0.463498  0.999267  0.535371  0.043943
    C   C62   0.463841  0.034897  0.500040  -0.164248
    C   C63   0.534684  0.999347  0.464091  -0.168412
    C   C64   0.499027  0.963681  0.534793  -0.166705
    C   C65   0.877275  0.630953  0.458029  -0.198011
    C   C66   0.912629  0.595373  0.458083  -0.123736
    C   C67   0.131498  0.542130  0.625010  -0.202666
    C   C68   0.001420  0.147939  0.142996  0.053120
    C   C69   0.095525  0.542353  0.589902  -0.116701
    C   C70   0.042485  0.376296  0.370790  -0.208593
    C   C71   0.042732  0.411496  0.406557  -0.115794
    C   C72   0.955609  0.372495  0.374966  -0.209278
    C   C73   0.955905  0.407555  0.410919  -0.117701
    C   C74   0.126422  0.455797  0.629356  -0.258771
    C   C75   0.090250  0.456069  0.594387  -0.107158
    C   C76   0.871900  0.625901  0.544569  -0.206953
    C   C77   0.907179  0.590242  0.544576  -0.112724
    C   C78   0.856640  0.646404  0.501276  0.126936
    C   C79   0.000111  0.075295  0.073230  0.209185
    C   C80   0.927774  0.574635  0.501333  0.098566
    C   C81   0.965131  0.536335  0.501292  0.050809
    C   C82   0.147212  0.498856  0.644932  0.155905
    C   C83   0.074514  0.499353  0.574364  0.106301
    C   C84   0.036177  0.499706  0.536824  0.036345
    C   C85   0.998922  0.356602  0.354748  0.141278
    C   C86   0.999469  0.427344  0.426984  0.098460
    C   C87   0.999841  0.464811  0.465233  0.044313
    C   C88   0.964792  0.500852  0.465588  -0.167148
    C   C89   0.000869  0.535552  0.536863  -0.167309
    C   C90   0.999082  0.036983  0.036193  0.187853
    C   C91   0.035430  0.464411  0.500942  -0.160048
    C   C92   0.499038  0.317083  0.317098  0.637512
    C   C93   0.500268  0.182559  0.318411  0.646808
    C   C94   0.499946  0.180890  0.183438  0.631878
    C   C95   0.498742  0.315154  0.182096  0.656575
    C   C96   0.320391  0.497532  0.684591  0.665478
    C   C97   0.318594  0.497150  0.819476  0.625024
    C   C98   0.182842  0.498284  0.817073  0.639293
    C   C99   0.185145  0.498878  0.682636  0.600184
    C   C100  0.683486  0.682526  0.501543  0.641020
    C   C101  0.856004  0.854687  0.999245  0.117451
    C   C102  0.818707  0.683936  0.501227  0.641912
    C   C103  0.817353  0.818422  0.498138  0.640268
    C   C104  0.682160  0.816965  0.498498  0.638668
    C   C105  0.624991  0.629344  0.458421  -0.199644
    C   C106  0.589806  0.593566  0.458437  -0.118657
    C   C107  0.368263  0.539082  0.620849  -0.162518
    C   C108  0.403754  0.538537  0.585305  -0.214525
    C   C109  0.456425  0.375979  0.370128  -0.187128
    C   C110  0.456896  0.411562  0.405550  -0.146061
    C   C111  0.543194  0.370553  0.374653  -0.203315
    C   C112  0.090983  0.958810  0.909674  -0.132294
    C   C113  0.926299  0.926941  0.001151  0.039085
    C   C114  0.543620  0.406096  0.410114  -0.112937
    C   C115  0.385623  0.456192  0.638814  -0.115176
    C   C116  0.421692  0.455764  0.603875  -0.075213
    C   C117  0.631611  0.623285  0.544829  -0.202983
    C   C118  0.596522  0.587384  0.544795  -0.116631
    C   C119  0.646082  0.644452  0.501624  0.123915
    C   C120  0.575334  0.572259  0.501603  0.097934
    C   C121  0.537728  0.534176  0.501556  0.071521
    C   C122  0.358647  0.497680  0.647390  0.068911
    C   C123  0.430288  0.496876  0.576175  0.232031
    C   C124  0.963375  0.965328  0.001667  0.222177
    C   C125  0.467424  0.497324  0.537805  0.014315
    C   C126  0.499573  0.355184  0.354521  0.122651
    C   C127  0.500480  0.426837  0.425886  0.112888
    C   C128  0.500944  0.464105  0.464325  0.062805
    C   C129  0.536873  0.499378  0.465131  -0.188591
    C   C130  0.502866  0.532903  0.537870  -0.191890
    C   C131  0.465801  0.463789  0.500368  -0.160329
    C   C132  0.997850  0.966164  0.965036  -0.285813
    C   C133  0.033415  0.037410  0.999496  -0.287214
    C   C134  0.963687  0.001123  0.037323  -0.206440
    C   C135  0.817668  0.683302  0.001184  0.630287
    C   C136  0.682202  0.683475  0.000876  0.661365
    C   C137  0.682600  0.817724  0.998628  0.629725
    C   C138  0.817927  0.817412  0.998916  0.660317
    C   C139  0.315302  0.999087  0.817359  0.640465
    C   C140  0.039250  0.114982  0.140323  -0.098279
    C   C141  0.316120  0.999283  0.682402  0.641414
    C   C142  0.181049  0.002226  0.681456  0.642485
    C   C143  0.180165  0.002021  0.816424  0.642833
    C   C144  0.000577  0.184715  0.315690  0.629996
    C   C145  0.998793  0.319178  0.316681  0.628006
    C   C146  0.999551  0.319643  0.181677  0.633892
    C   C147  0.001416  0.185433  0.180761  0.668774
    C   C148  0.368791  0.955756  0.875149  -0.199969
    C   C149  0.404315  0.955709  0.910718  -0.118187
    C   C150  0.455896  0.123031  0.130254  -0.195993
    C   C151  0.038352  0.078334  0.106024  -0.106246
    C   C152  0.455592  0.087526  0.094753  -0.123211
    C   C153  0.623841  0.869999  0.042199  -0.200743
    C   C154  0.587988  0.905035  0.042441  -0.120973
    C   C155  0.629100  0.875748  0.955678  -0.203905
    C   C156  0.593311  0.910887  0.955972  -0.117852
    C   C157  0.542708  0.127326  0.125286  -0.202418
    C   C158  0.542353  0.092032  0.089621  -0.116800
    C   C159  0.373227  0.042165  0.871266  -0.195236
    C   C160  0.408895  0.042070  0.906684  -0.125977
    C   C161  0.353012  0.998997  0.855236  0.124010
    C   C162  0.885134  0.860890  0.039882  -0.206946
    C   C163  0.424694  0.998853  0.926715  0.103386
    C   C164  0.462705  0.998774  0.964512  0.045082
    C   C165  0.499478  0.143092  0.145767  0.128456
    C   C166  0.498816  0.071791  0.074115  0.098496
    C   C167  0.498563  0.034094  0.036105  0.044110
    C   C168  0.644608  0.855132  0.998812  0.129966
    C   C169  0.572484  0.925790  0.999354  0.098471
    C   C170  0.534406  0.963308  0.999725  0.047461
    C   C171  0.498603  0.963562  0.964259  -0.167373
    C   C172  0.462867  0.033964  0.000513  -0.163692
    C   C173  0.920793  0.896184  0.040398  -0.079003
    C   C174  0.534190  0.998624  0.035571  -0.165894
    C   C175  0.140882  0.536539  0.886088  -0.237183
    C   C176  0.105495  0.537242  0.921689  -0.180338
    C   C177  0.041735  0.382657  0.133628  -0.172695
    C   C178  0.041362  0.417988  0.098192  -0.210777
    C   C179  0.876718  0.631283  0.044549  -0.188699
    C   C180  0.913136  0.596805  0.044556  -0.149533
    C   C181  0.872743  0.626922  0.957850  -0.211794
    C   C182  0.909006  0.592284  0.957901  -0.100871
    C   C183  0.957845  0.365914  0.117337  -0.136157
    C   C184  0.863176  0.883790  0.958997  -0.205557
    C   C185  0.957598  0.400542  0.081232  -0.053675
    C   C186  0.110002  0.460581  0.856865  -0.075865
    C   C187  0.074820  0.461406  0.892717  -0.039962
    C   C188  0.144063  0.497957  0.853940  0.158232
    C   C189  0.072925  0.499340  0.925701  0.215628
    C   C190  0.035936  0.500411  0.963976  0.043788
    C   C191  0.999748  0.356881  0.143769  0.100377
    C   C192  0.999301  0.427581  0.072194  0.206759
    C   C193  0.999995  0.465651  0.035063  0.063879
    C   C194  0.856234  0.646476  0.001194  0.130701
    C   C195  0.898023  0.919914  0.960090  -0.116710
    C   C196  0.929452  0.576903  0.001249  0.110024
    C   C197  0.967025  0.538859  0.001248  0.081119
    C   C198  0.002192  0.537487  0.965188  -0.211773
    C   C199  0.035246  0.464947  0.999303  -0.208754
    C   C200  0.966630  0.503170  0.036555  -0.188749
    C   C201  0.371870  0.540910  0.877635  -0.192748
    C   C202  0.407573  0.541294  0.913071  -0.147788
    C   C203  0.459286  0.381910  0.137074  -0.202883
    C   C204  0.460713  0.418011  0.102438  -0.116597
    C   C205  0.615145  0.639933  0.041546  -0.203221
    C   C206  0.963310  0.144958  0.110224  -0.139692
    C   C207  0.579483  0.604640  0.041856  -0.082091
    C   C208  0.636507  0.617398  0.960315  -0.196487
    C   C209  0.601760  0.581144  0.961246  -0.119725
    C   C210  0.539877  0.357675  0.114787  -0.197308
    C   C211  0.540695  0.392938  0.079323  -0.089940
    C   C212  0.376930  0.454565  0.873139  -0.197160
    C   C213  0.412636  0.454985  0.908559  -0.144653
    C   C214  0.356316  0.497533  0.857436  0.127731
    C   C215  0.428248  0.498340  0.928819  0.144435
    C   C216  0.466240  0.498690  0.966699  0.072425
    H   H1    0.142045  0.924557  0.862855  0.141349
    H   H2    0.132995  0.079435  0.854258  0.140190
    H   H3    0.635318  0.645514  0.424139  0.143559
    H   H4    0.573041  0.583306  0.424284  0.104808
    H   H5    0.347607  0.571954  0.626879  0.146705
    H   H6    0.410130  0.570875  0.564023  0.134603
    H   H7    0.421807  0.364924  0.354801  0.139684
    H   H8    0.422736  0.427843  0.416461  0.110581
    H   H9    0.577451  0.354725  0.363387  0.142633
    H   H10   0.578104  0.416502  0.426185  0.108690
    H   H11   0.379763  0.423851  0.660209  0.109756
    H   H12   0.647750  0.634139  0.579100  0.142681
    H   H13   0.070101  0.079272  0.916010  0.115789
    H   H14   0.586687  0.570643  0.578944  0.104737
    H   H15   0.564326  0.499878  0.436959  0.108899
    H   H16   0.502786  0.560009  0.566392  0.113327
    H   H17   0.437323  0.436649  0.500126  0.105222
    H   H18   0.996704  0.938535  0.937040  0.132576
    H   H19   0.061025  0.065441  0.999651  0.136300
    H   H20   0.353351  0.921499  0.863567  0.140229
    H   H21   0.415156  0.921493  0.926517  0.106409
    H   H22   0.421594  0.134427  0.145920  0.140390
    H   H23   0.421128  0.071585  0.084131  0.108126
    H   H24   0.634963  0.854234  0.076435  0.144798
    H   H25   0.571557  0.915187  0.076746  0.106177
    H   H26   0.080352  0.924645  0.925742  0.113538
    H   H27   0.644928  0.865033  0.921262  0.141679
    H   H28   0.582639  0.927261  0.921879  0.107434
    H   H29   0.577284  0.142694  0.136383  0.142144
    H   H30   0.576577  0.081323  0.073316  0.105958
    H   H31   0.361874  0.076479  0.856050  0.140775
    H   H32   0.424972  0.076231  0.917665  0.108389
    H   H33   0.498694  0.936050  0.936164  0.107229
    H   H34   0.434947  0.061586  0.000792  0.108232
    H   H35   0.562126  0.998527  0.063323  0.110556
    H   H36   0.166735  0.566135  0.884283  0.169963
    H   H37   0.068957  0.116459  0.166213  0.114546
    H   H38   0.103926  0.567282  0.947073  0.130575
    H   H39   0.074949  0.376171  0.153831  0.149982
    H   H40   0.074175  0.438694  0.091390  0.133165
    H   H41   0.864877  0.646327  0.078947  0.141698
    H   H42   0.929156  0.586263  0.078899  0.114111
    H   H43   0.857180  0.637919  0.923441  0.144178
    H   H44   0.920125  0.576491  0.923599  0.102205
    H   H45   0.925086  0.344959  0.123529  0.106283
    H   H46   0.003726  0.565406  0.937678  0.111579
    H   H47   0.062023  0.436159  0.998417  0.111619
    H   H48   0.880965  0.837701  0.071281  0.145818
    H   H49   0.939518  0.503687  0.065066  0.106452
    H   H50   0.356234  0.575045  0.866264  0.142284
    H   H51   0.418295  0.575611  0.928994  0.114214
    H   H52   0.427107  0.378138  0.159476  0.145689
    H   H53   0.429715  0.441871  0.098133  0.104132
    H   H54   0.619545  0.663017  0.073151  0.142037
    H   H55   0.556246  0.600929  0.073419  0.087945
    H   H56   0.658626  0.621907  0.928075  0.145241
    H   H57   0.597134  0.557853  0.929811  0.106968
    H   H58   0.571045  0.334003  0.118785  0.143615
    H   H59   0.944276  0.899741  0.071867  0.086081
    H   H60   0.572167  0.396049  0.055828  0.092623
    H   H61   0.365761  0.420145  0.857758  0.144045
    H   H62   0.428900  0.420956  0.919365  0.116075
    H   H63   0.502305  0.561935  0.939352  0.134165
    H   H64   0.438764  0.435678  0.002950  0.133809
    H   H65   0.077804  0.136990  0.353236  0.141291
    H   H66   0.076957  0.074187  0.414537  0.107729
    H   H67   0.863239  0.856691  0.420227  0.142548
    H   H68   0.925475  0.919037  0.420114  0.105338
    H   H69   0.144110  0.924963  0.633279  0.142677
    H   H70   0.840846  0.879469  0.926806  0.147722
    H   H71   0.082730  0.925203  0.569944  0.107106
    H   H72   0.133960  0.079708  0.644147  0.143751
    H   H73   0.071361  0.079643  0.581944  0.107881
    H   H74   0.854892  0.865980  0.575638  0.142234
    H   H75   0.915734  0.929591  0.575280  0.107857
    H   H76   0.922210  0.147520  0.362078  0.143295
    H   H77   0.921646  0.085825  0.424634  0.109253
    H   H78   0.062346  0.065500  0.498020  0.107392
    H   H79   0.935430  0.002299  0.434340  0.111159
    H   H80   0.998952  0.939303  0.560843  0.107979
    H   H81   0.902484  0.943263  0.928834  0.105192
    H   H82   0.422045  0.136652  0.356357  0.141745
    H   H83   0.421780  0.073486  0.417339  0.106774
    H   H84   0.635225  0.854881  0.420916  0.141649
    H   H85   0.572182  0.916337  0.421356  0.107142
    H   H86   0.353791  0.921854  0.635196  0.140018
    H   H87   0.415483  0.921972  0.572279  0.106164
    H   H88   0.363483  0.076669  0.645198  0.140658
    H   H89   0.426533  0.076538  0.583644  0.109737
    H   H90   0.643940  0.863162  0.576372  0.143204
    H   H91   0.582280  0.925853  0.576578  0.107316
    H   H92   0.933780  0.170921  0.111394  0.145320
    H   H93   0.577841  0.144154  0.364994  0.141329
    H   H94   0.577354  0.082340  0.427323  0.107565
    H   H95   0.436178  0.062773  0.500360  0.108765
    H   H96   0.562498  0.999387  0.436275  0.109269
    H   H97   0.498921  0.935802  0.562337  0.107935
    H   H98   0.866316  0.646579  0.423674  0.143065
    H   H99   0.928891  0.584696  0.423856  0.106521
    H   H100  0.147343  0.576327  0.636214  0.138617
    H   H101  0.084854  0.576607  0.574078  0.106971
    H   H102  0.076875  0.364872  0.355344  0.143992
    H   H103  0.933794  0.107898  0.048634  0.127926
    H   H104  0.077221  0.427145  0.417526  0.105079
    H   H105  0.921053  0.357448  0.363371  0.146086
    H   H106  0.921629  0.418472  0.426978  0.108659
    H   H107  0.137672  0.421489  0.644668  0.177649
    H   H108  0.073750  0.422001  0.583746  0.106984
    H   H109  0.856175  0.637022  0.578903  0.143153
    H   H110  0.917541  0.573954  0.578804  0.105321
    H   H111  0.936973  0.501333  0.437725  0.109784
    H   H112  0.001257  0.563217  0.564803  0.107924
    H   H113  0.062939  0.436385  0.500725  0.107619
    O   O1    0.800530  0.698377  0.043174  -0.668551
    O   O2    0.298676  0.040998  0.801990  -0.686188
    O   O3    0.300471  0.957444  0.698942  -0.671153
    O   O4    0.299312  0.041158  0.697943  -0.686472
    O   O5    0.197658  0.960312  0.696839  -0.689119
    O   O6    0.196462  0.044016  0.698613  -0.670783
    O   O7    0.197010  0.960159  0.800902  -0.686769
    O   O8    0.195828  0.043859  0.799887  -0.671176
    O   O9    0.042861  0.200053  0.299494  -0.662768
    O   O10   0.958742  0.201652  0.299849  -0.678699
    O   O11   0.040865  0.302241  0.301481  -0.681458
    O   O12   0.802303  0.700124  0.959206  -0.681211
    O   O13   0.956736  0.304157  0.299358  -0.675618
    O   O14   0.041462  0.302722  0.197403  -0.691178
    O   O15   0.957285  0.304507  0.198048  -0.643268
    O   O16   0.043488  0.200163  0.198254  -0.666215
    O   O17   0.959264  0.202417  0.195725  -0.689772
    O   O18   0.456755  0.301874  0.300597  -0.668549
    O   O19   0.540856  0.299715  0.301633  -0.684671
    O   O20   0.458342  0.199588  0.302870  -0.690440
    O   O21   0.542455  0.197271  0.301388  -0.672311
    O   O22   0.458117  0.198367  0.198764  -0.685139
    O   O23   0.698940  0.698868  0.042950  -0.671755
    O   O24   0.542239  0.195859  0.200126  -0.666557
    O   O25   0.456520  0.300812  0.199390  -0.679626
    O   O26   0.540681  0.298054  0.197464  -0.688584
    O   O27   0.302850  0.539220  0.699911  -0.696767
    O   O28   0.305263  0.455502  0.701033  -0.656925
    O   O29   0.301506  0.538833  0.804014  -0.678677
    O   O30   0.303701  0.455206  0.802219  -0.665769
    O   O31   0.198590  0.540387  0.801202  -0.681375
    O   O32   0.200879  0.456796  0.802056  -0.662276
    O   O33   0.199980  0.540799  0.699938  -0.652591
    O   O34   0.698018  0.699867  0.958921  -0.699765
    O   O35   0.202273  0.457111  0.697988  -0.676662
    O   O36   0.698646  0.699236  0.459488  -0.686615
    O   O37   0.700350  0.698278  0.543448  -0.671049
    O   O38   0.802922  0.700323  0.459224  -0.688559
    O   O39   0.801822  0.699366  0.543188  -0.670419
    O   O40   0.800552  0.802627  0.456240  -0.669330
    O   O41   0.802187  0.801708  0.540206  -0.688953
    O   O42   0.699027  0.801543  0.456506  -0.670711
    O   O43   0.697941  0.800573  0.540480  -0.686411
    O   O44   0.698240  0.801157  0.040587  -0.683944
    O   O45   0.699304  0.802228  0.956602  -0.664622
    O   O46   0.802536  0.800608  0.040844  -0.688561
    O   O47   0.800787  0.802435  0.956838  -0.683720
    O   O48   0.299849  0.957294  0.800239  -0.671047
    Zn  Zn1   0.750051  0.750769  0.055031  1.292716
    Zn  Zn2   0.252095  0.443062  0.750696  1.288974
    Zn  Zn3   0.750242  0.749826  0.444740  1.293819
    Zn  Zn4   0.750617  0.751079  0.554955  1.293263
    Zn  Zn5   0.750115  0.750140  0.944757  1.296367
    Zn  Zn6   0.247685  0.945712  0.749163  1.293218
    Zn  Zn7   0.248631  0.055597  0.749681  1.293610
    Zn  Zn8   0.055329  0.252241  0.249188  1.291817
    Zn  Zn9   0.944835  0.252246  0.248254  1.290535
    Zn  Zn10  0.444276  0.249240  0.250401  1.294610
    Zn  Zn11  0.554727  0.248645  0.250199  1.292862
    Zn  Zn12  0.251649  0.552903  0.751374  1.294545
