# Generated by REPEAT Assigner based on pymatgen
data_DB0-m2_o13_o20_f0_pcu.sym.48_sqe
_audit_creation_date              2022-05-24
_audit_creation_method            REPEAT_Assigner
_cell_length_a                    14.389286
_cell_length_b                    12.939018
_cell_length_c                    11.737870
_cell_angle_alpha                 99.510319
_cell_angle_beta                  93.849986
_cell_angle_gamma                 89.994388
_cell_volume                      2150.360076
_symmetry_space_group_name_H-M    P1
_symmetry_Int_Tables_number       1
loop_
    _symmetry_equiv_pos_site_id
    _symmetry_equiv_pos_as_xyz
    1  x,y,z
loop_
    _atom_site_type_symbol
    _atom_site_label
    _atom_site_fract_x
    _atom_site_fract_y
    _atom_site_fract_z
    _atom_type_partial_charge
    O   O1   0.500724  0.352243  0.576819  -0.543995
    O   O2   0.499276  0.647757  0.423181  -0.543971
    O   O3   0.496305  0.343412  0.379420  -0.593846
    O   O4   0.503695  0.656588  0.620581  -0.593860
    C   C1   0.498440  0.298661  0.472235  0.646068
    C   C2   0.501559  0.701338  0.527766  0.646054
    O   O5   0.363703  0.508913  0.584025  -0.610136
    O   O6   0.636297  0.491086  0.415975  -0.610112
    O   O7   0.365701  0.492512  0.386036  -0.638531
    O   O8   0.634299  0.507487  0.613964  -0.638555
    C   C3   0.321293  0.501090  0.481153  0.950804
    C   C4   0.678707  0.498909  0.518848  0.950811
    Cu  Cu1  0.498493  0.504771  0.614764  0.823444
    Cu  Cu2  0.501506  0.495229  0.385236  0.823603
    C   C5   0.221394  0.500474  0.475385  -0.356366
    C   C6   0.778606  0.499525  0.524615  -0.356374
    C   C7   0.138038  0.500198  0.480477  0.152223
    C   C8   0.861962  0.499801  0.519523  0.152228
    C   C9   0.041190  0.500044  0.493529  -0.041039
    C   C10  0.958810  0.499955  0.506472  -0.041042
    C   C11  0.501990  0.815902  0.538560  -0.008921
    C   C12  0.498010  0.184097  0.461440  -0.008931
    C   C13  0.486800  0.013094  0.347276  -0.280221
    C   C14  0.513199  0.986905  0.652724  -0.280222
    C   C15  0.488359  0.120633  0.354449  -0.086102
    C   C16  0.511641  0.879367  0.645551  -0.086102
    C   C17  0.506693  0.138821  0.560706  -0.252531
    C   C18  0.493307  0.861179  0.439294  -0.252538
    C   C19  0.505012  0.031428  0.553332  0.231975
    C   C20  0.494988  0.968572  0.446668  0.231980
    H   H1   0.484808  0.813329  0.354681  0.139814
    H   H2   0.515192  0.186670  0.645319  0.139811
    H   H3   0.518583  0.845905  0.724137  0.107831
    H   H4   0.481417  0.154094  0.275863  0.107835
    H   H5   0.478974  0.963970  0.263188  0.160593
    H   H6   0.521026  0.036029  0.736813  0.160593
    N   N1   0.495650  0.510323  0.786436  -0.037654
    N   N2   0.504350  0.489676  0.213564  -0.037640
    C   C21  0.424131  0.402788  0.040425  -0.235356
    C   C22  0.575869  0.597211  0.959575  -0.235343
    C   C23  0.441917  0.418219  0.157994  0.015384
    C   C24  0.558083  0.581781  0.842006  0.015378
    C   C25  0.550328  0.550948  0.149535  -0.036907
    C   C26  0.449672  0.449052  0.850466  -0.036903
    C   C27  0.531752  0.537269  0.027940  0.141384
    C   C28  0.468248  0.462730  0.972061  0.141409
    H   H7   0.596891  0.629425  0.794349  0.159011
    H   H8   0.403109  0.370574  0.205651  0.159009
    H   H9   0.373535  0.342264  0.007563  0.162300
    H   H10  0.626465  0.657735  0.992437  0.162297
    C   C29  0.376759  0.367173  0.797331  0.595960
    F   F1   0.359727  0.359720  0.680665  -0.136303
    F   F2   0.292696  0.391693  0.845506  -0.215424
    F   F3   0.405317  0.269329  0.817665  -0.213558
    C   C30  0.623241  0.632827  0.202669  0.595976
    F   F4   0.640273  0.640279  0.319335  -0.136308
    F   F5   0.594683  0.730671  0.182336  -0.213559
    F   F6   0.707304  0.608307  0.154494  -0.215424
