# Generated by REPEAT Assigner based on pymatgen
data_DB0-m3_o1490_o156_f0_fsc.sym.39_sqe
_audit_creation_date              2022-05-24
_audit_creation_method            REPEAT_Assigner
_cell_length_a                    8.526072
_cell_length_b                    10.787299
_cell_length_c                    17.512984
_cell_angle_alpha                 97.805090
_cell_angle_beta                  90.110491
_cell_angle_gamma                 90.008333
_cell_volume                      1595.801348
_symmetry_space_group_name_H-M    P1
_symmetry_Int_Tables_number       1
loop_
    _symmetry_equiv_pos_site_id
    _symmetry_equiv_pos_as_xyz
    1  x,y,z
loop_
    _atom_site_type_symbol
    _atom_site_label
    _atom_site_fract_x
    _atom_site_fract_y
    _atom_site_fract_z
    _atom_type_partial_charge
    C   C1   0.005886  0.689360  0.026009  -0.059321
    C   C2   0.146545  0.744427  0.013778  -0.029989
    C   C3   0.151169  0.866048  0.998968  -0.009909
    C   C4   0.867949  0.751093  0.017089  -0.278916
    C   C5   0.870902  0.876072  0.006132  0.622978
    C   C6   0.013662  0.936084  0.999816  -0.400140
    C   C7   0.014832  0.063096  0.991710  0.457178
    C   C8   0.154092  0.130145  0.989729  -0.400882
    C   C9   0.151136  0.253189  0.978038  0.032029
    N   N1   0.735386  0.939122  0.002671  -0.609907
    C   C10  0.733905  0.061515  0.994524  0.292331
    C   C11  0.872869  0.125875  0.989044  -0.221845
    C   C12  0.871849  0.252137  0.979996  -0.105211
    C   C13  0.010880  0.311908  0.970173  -0.172403
    H   H1   0.002998  0.593067  0.035988  0.075034
    H   H2   0.009949  0.409058  0.962038  0.162188
    H   H3   0.264732  0.900960  0.986222  0.039678
    H   H4   0.267952  0.091914  0.998241  0.236599
    H   H5   0.622535  0.108532  0.991915  0.003440
    O   O1   0.339532  0.625060  0.939163  -0.769713
    O   O2   0.342106  0.630400  0.071153  -0.680988
    C   C14  0.287424  0.667441  0.008115  0.844749
    O   O3   0.343178  0.371780  0.053762  -0.568074
    O   O4   0.348473  0.365821  0.920999  -0.712306
    C   C15  0.293609  0.328383  0.984101  0.726397
    O   O5   0.680677  0.375421  0.055475  -0.741500
    O   O6   0.676661  0.368718  0.923124  -0.755716
    C   C16  0.730582  0.330374  0.986180  0.946137
    O   O7   0.677512  0.629073  0.941557  -0.726702
    O   O8   0.671023  0.635874  0.073393  -0.577572
    C   C17  0.725041  0.675268  0.010902  0.800795
    Zn  Zn1  0.509408  0.502502  0.082948  0.929521
    Zn  Zn2  0.511174  0.498510  0.911931  1.113767
    C   C18  0.533749  0.399352  0.212436  0.007662
    N   N2   0.507816  0.507590  0.183702  -0.084100
    C   C19  0.486918  0.615310  0.232673  -0.062851
    C   C20  0.560970  0.284661  0.320180  -0.283830
    C   C21  0.535934  0.396001  0.291156  0.032927
    C   C22  0.512781  0.504290  0.340979  0.078031
    C   C23  0.488470  0.614703  0.311743  0.090010
    C   C24  0.465725  0.724250  0.361968  -0.338897
    C   C25  0.586503  0.171420  0.428335  -0.227064
    C   C26  0.561850  0.282350  0.398976  0.200974
    C   C27  0.537982  0.391265  0.448646  0.015978
    C   C28  0.586540  0.169547  0.507018  -0.205385
    C   C29  0.561689  0.278501  0.556683  0.205613
    C   C30  0.513810  0.502251  0.419608  -0.030245
    C   C31  0.490376  0.611229  0.469235  -0.036353
    C   C32  0.466303  0.722080  0.440328  0.261468
    C   C33  0.442546  0.831353  0.489756  -0.229222
    C   C34  0.538031  0.389376  0.527334  -0.015466
    C   C35  0.514513  0.498545  0.576762  0.020904
    C   C36  0.491026  0.609547  0.547750  -0.009933
    C   C37  0.468015  0.718859  0.597264  0.225656
    C   C38  0.443697  0.829819  0.568215  -0.233594
    C   C39  0.560372  0.276867  0.635535  -0.365722
    C   C40  0.536443  0.386476  0.684898  0.266541
    C   C41  0.514390  0.496902  0.655269  -0.094011
    C   C42  0.492152  0.605861  0.704658  0.256270
    C   C43  0.469124  0.717110  0.675794  -0.351840
    C   C44  0.534480  0.386659  0.763888  -0.274377
    N   N3   0.513563  0.494629  0.811511  0.172228
    C   C45  0.493024  0.603310  0.783044  -0.273015
    H   H6   0.552362  0.314094  0.173619  0.139454
    H   H7   0.579436  0.199226  0.281262  0.121390
    H   H8   0.447812  0.813481  0.341950  0.097897
    H   H9   0.605752  0.085594  0.389890  0.140520
    H   H10  0.606304  0.082424  0.529551  0.139030
    H   H11  0.422598  0.918509  0.467281  0.153456
    H   H12  0.425182  0.915746  0.606672  0.143806
    H   H13  0.578329  0.189912  0.658565  0.163088
    H   H14  0.451359  0.802736  0.714638  0.156056
    H   H15  0.477493  0.689148  0.821899  0.199700
    H   H16  0.550338  0.300099  0.787608  0.178800
    C   C46  0.454405  0.733888  0.204329  0.411822
    C   C47  0.575497  0.813041  0.190966  -0.226584
    C   C48  0.543028  0.930935  0.172879  -0.156262
    C   C49  0.389745  0.971002  0.170221  0.170107
    Cl  Cl1  0.348018  0.121749  0.149706  -0.124816
    C   C50  0.269068  0.893834  0.186344  -0.273972
    C   C51  0.301543  0.776282  0.204561  -0.080380
    H   H17  0.695910  0.784301  0.196742  0.111358
    H   H18  0.637882  0.992855  0.162295  0.141077
    H   H19  0.149142  0.926238  0.185881  0.138902
    H   H20  0.207021  0.716940  0.219063  0.075465
