# Generated by REPEAT Assigner based on pymatgen
data_DB0-m2_o4_o6_f0_nbo.sym.36
_audit_creation_date              2022-05-24
_audit_creation_method            REPEAT_Assigner
_cell_length_a                    30.618865
_cell_length_b                    30.774621
_cell_length_c                    22.170830
_cell_angle_alpha                 90.000000
_cell_angle_beta                  46.321962
_cell_angle_gamma                 90.000000
_cell_volume                      15109.195535
_symmetry_space_group_name_H-M    P1
_symmetry_Int_Tables_number       1
loop_
    _symmetry_equiv_pos_site_id
    _symmetry_equiv_pos_as_xyz
    1  x,y,z
loop_
    _atom_site_type_symbol
    _atom_site_label
    _atom_site_fract_x
    _atom_site_fract_y
    _atom_site_fract_z
    _atom_type_partial_charge
    O   O1    0.180552  0.234194  0.499900  -0.558333
    O   O2    0.819448  0.234194  0.500100  -0.558358
    O   O3    0.680552  0.734194  0.499900  -0.558353
    O   O4    0.319448  0.734194  0.500100  -0.558354
    O   O5    0.229407  0.180919  0.507690  -0.557935
    O   O6    0.770593  0.180919  0.492310  -0.557930
    O   O7    0.729407  0.680919  0.507690  -0.557931
    O   O8    0.270593  0.680919  0.492310  -0.557920
    C   C1    0.192420  0.193280  0.500104  0.613972
    C   C2    0.807580  0.193280  0.499896  0.613980
    C   C3    0.692420  0.693280  0.500104  0.613960
    C   C4    0.307580  0.693280  0.499896  0.613908
    O   O9    0.291063  0.277584  0.375161  -0.579625
    O   O10   0.708937  0.277584  0.624839  -0.579712
    O   O11   0.791063  0.777584  0.375161  -0.579643
    O   O12   0.208937  0.777584  0.624839  -0.579660
    O   O13   0.337576  0.221521  0.381811  -0.597536
    O   O14   0.662424  0.221521  0.618189  -0.597510
    O   O15   0.837576  0.721521  0.381811  -0.597538
    O   O16   0.162424  0.721521  0.618189  -0.597546
    C   C5    0.334107  0.248705  0.339706  0.750941
    C   C6    0.665893  0.248705  0.660294  0.750898
    C   C7    0.834107  0.748705  0.339706  0.751007
    C   C8    0.165893  0.748705  0.660294  0.751022
    Cu  Cu1   0.223585  0.282814  0.495724  0.984726
    Cu  Cu2   0.776415  0.282814  0.504276  0.984729
    Cu  Cu3   0.723585  0.782814  0.495724  0.984666
    Cu  Cu4   0.276415  0.782814  0.504276  0.984624
    Cu  Cu5   0.280779  0.221196  0.503401  0.971587
    Cu  Cu6   0.719222  0.221196  0.496599  0.971640
    Cu  Cu7   0.780779  0.721196  0.503401  0.971647
    Cu  Cu8   0.219222  0.721196  0.496599  0.971699
    O   O17   0.271321  0.323214  0.498558  -0.588970
    O   O18   0.728680  0.323214  0.501441  -0.588995
    O   O19   0.771321  0.823214  0.498558  -0.588949
    O   O20   0.228679  0.823214  0.501441  -0.588972
    O   O21   0.321105  0.269915  0.504511  -0.607368
    O   O22   0.678895  0.269915  0.495489  -0.607371
    O   O23   0.821105  0.769915  0.504511  -0.607335
    O   O24   0.178895  0.769915  0.495489  -0.607366
    O   O25   0.166371  0.282256  0.617371  -0.583130
    O   O26   0.833629  0.282256  0.382629  -0.583157
    O   O27   0.666371  0.782256  0.617371  -0.583137
    O   O28   0.333629  0.782256  0.382629  -0.583150
    O   O29   0.213667  0.226675  0.624017  -0.556563
    O   O30   0.786333  0.226675  0.375983  -0.556555
    O   O31   0.713667  0.726675  0.624017  -0.556562
    O   O32   0.286333  0.726675  0.375983  -0.556564
    C   C9    0.312624  0.310729  0.497830  0.686853
    C   C10   0.687376  0.310729  0.502170  0.686923
    C   C11   0.812624  0.810729  0.497830  0.686710
    C   C12   0.187376  0.810729  0.502170  0.686864
    C   C13   0.170307  0.255369  0.659463  0.795223
    C   C14   0.829693  0.255369  0.340537  0.795205
    C   C15   0.670307  0.755369  0.659463  0.795244
    C   C16   0.329693  0.755369  0.340537  0.795294
    H   H1    0.463373  0.176147  0.076689  0.153716
    H   H2    0.536627  0.176147  0.923311  0.153718
    H   H3    0.963373  0.676147  0.076689  0.153714
    H   H4    0.036627  0.676147  0.923311  0.153718
    C   C17   0.520477  0.206552  0.957026  -0.179698
    C   C18   0.479523  0.206552  0.042974  -0.179684
    C   C19   0.020477  0.706552  0.957026  -0.179691
    C   C20   0.979523  0.706552  0.042974  -0.179680
    C   C21   0.540865  0.245380  0.914129  0.229506
    C   C22   0.459135  0.245380  0.085871  0.229504
    C   C23   0.040865  0.745380  0.914129  0.229478
    C   C24   0.959135  0.745380  0.085871  0.229482
    C   C25   0.520434  0.284158  0.957090  -0.133702
    C   C26   0.479566  0.284158  0.042910  -0.133695
    C   C27   0.020434  0.784158  0.957090  -0.133692
    C   C28   0.979566  0.784158  0.042910  -0.133689
    H   H5    0.536492  0.314582  0.923495  0.112344
    H   H6    0.463508  0.314582  0.076504  0.112337
    H   H7    0.036492  0.814582  0.923495  0.112336
    H   H8    0.963508  0.814582  0.076504  0.112337
    C   C29   0.584070  0.245650  0.824732  -0.101597
    C   C30   0.415930  0.245650  0.175268  -0.101588
    C   C31   0.084070  0.745650  0.824732  -0.101552
    C   C32   0.915930  0.745650  0.175268  -0.101550
    C   C33   0.379044  0.246608  0.250358  -0.169165
    C   C34   0.620956  0.246608  0.749641  -0.169117
    C   C35   0.879044  0.746608  0.250358  -0.169222
    C   C36   0.120956  0.746608  0.749642  -0.169221
    C   C37   0.145925  0.163050  0.451933  0.006064
    C   C38   0.854075  0.163050  0.548067  0.006237
    C   C39   0.645925  0.663050  0.451933  0.006029
    C   C40   0.354075  0.663050  0.548067  0.006181
    C   C41   0.158319  0.159899  0.500579  -0.054959
    C   C42   0.841681  0.159899  0.499420  -0.054996
    C   C43   0.658319  0.659899  0.500580  -0.054925
    C   C44   0.341681  0.659899  0.499420  -0.054894
    C   C45   0.137846  0.122887  0.549424  -0.146536
    C   C46   0.862154  0.122887  0.450576  -0.146523
    C   C47   0.637846  0.622887  0.549424  -0.146541
    C   C48   0.362154  0.622887  0.450576  -0.146566
    H   H9    0.145827  0.118771  0.589566  0.154884
    H   H10   0.854173  0.118771  0.410434  0.154882
    H   H11   0.645827  0.618771  0.589566  0.154887
    H   H12   0.354173  0.618771  0.410434  0.154891
    C   C49   0.104726  0.091582  0.549827  -0.068133
    C   C50   0.895274  0.091582  0.450173  -0.068178
    C   C51   0.604726  0.591582  0.549827  -0.068137
    C   C52   0.395274  0.591582  0.450173  -0.068156
    H   H13   0.087560  0.063614  0.590177  0.118772
    H   H14   0.912440  0.063614  0.409822  0.118784
    H   H15   0.587560  0.563614  0.590177  0.118770
    H   H16   0.412440  0.563614  0.409822  0.118778
    C   C53   0.095441  0.095374  0.497012  -0.114107
    C   C54   0.904559  0.095374  0.502987  -0.114006
    C   C55   0.595441  0.595374  0.497012  -0.114102
    C   C56   0.404559  0.595374  0.502987  -0.114042
    C   C57   0.118176  0.131712  0.447952  0.203880
    C   C58   0.881824  0.131712  0.552047  0.203757
    C   C59   0.618176  0.631712  0.447953  0.203883
    C   C60   0.381824  0.631712  0.552047  0.203784
    C   C61   0.120910  0.154585  0.386539  -0.273292
    C   C62   0.879090  0.154585  0.613461  -0.273238
    C   C63   0.620910  0.654585  0.386539  -0.273304
    C   C64   0.379090  0.654585  0.613461  -0.273250
    C   C65   0.153706  0.191392  0.391018  -0.122535
    C   C66   0.846294  0.191392  0.608982  -0.122667
    C   C67   0.653706  0.691392  0.391018  -0.122508
    C   C68   0.346294  0.691392  0.608982  -0.122641
    H   H17   0.150793  0.137741  0.325421  0.109483
    H   H18   0.849207  0.137741  0.674579  0.109480
    H   H19   0.650793  0.637741  0.325421  0.109484
    H   H20   0.349207  0.637741  0.674579  0.109482
    H   H21   0.075557  0.163937  0.413021  0.111628
    H   H22   0.924443  0.163937  0.586979  0.111625
    H   H23   0.575557  0.663937  0.413021  0.111632
    H   H24   0.424443  0.663937  0.586979  0.111625
    H   H25   0.201506  0.196378  0.332226  0.076590
    H   H26   0.798494  0.196378  0.667774  0.076612
    H   H27   0.701506  0.696378  0.332226  0.076586
    H   H28   0.298494  0.696378  0.667774  0.076603
    C   C69   0.015147  0.260124  0.045478  -0.081078
    C   C70   0.984853  0.260124  0.954521  -0.081055
    C   C71   0.515147  0.760124  0.045478  -0.081046
    C   C72   0.484853  0.760124  0.954522  -0.081138
    H   H29   0.025698  0.259919  0.082987  0.146212
    H   H30   0.974302  0.259919  0.917013  0.146216
    H   H31   0.525698  0.759919  0.082987  0.146212
    H   H32   0.474302  0.759919  0.917013  0.146236
    C   C73   0.955126  0.259831  0.086312  0.257871
    C   C74   0.044874  0.259831  0.913688  0.257827
    C   C75   0.455126  0.759831  0.086312  0.257794
    C   C76   0.544874  0.759831  0.913688  0.257977
    C   C77   0.939296  0.259958  0.040669  -0.253096
    C   C78   0.060704  0.259958  0.959331  -0.253046
    C   C79   0.439296  0.759958  0.040669  -0.253047
    C   C80   0.560704  0.759958  0.959331  -0.253109
    C   C81   0.911159  0.258983  0.175961  -0.131773
    C   C82   0.088841  0.258983  0.824039  -0.131725
    C   C83   0.411159  0.758983  0.175961  -0.131701
    C   C84   0.588841  0.758983  0.824039  -0.131834
    C   C85   0.125579  0.257681  0.748883  -0.194056
    C   C86   0.874421  0.257681  0.251117  -0.194006
    C   C87   0.625579  0.757681  0.748883  -0.194023
    C   C88   0.374421  0.757681  0.251117  -0.194099
    C   C89   0.351864  0.385394  0.470733  0.106711
    C   C90   0.648136  0.385394  0.529267  0.106781
    C   C91   0.851864  0.885394  0.470733  0.106659
    C   C92   0.148136  0.885394  0.529267  0.106768
    C   C93   0.345534  0.344270  0.499559  -0.113070
    C   C94   0.654466  0.344270  0.500441  -0.113162
    C   C95   0.845534  0.844270  0.499559  -0.112906
    C   C96   0.154466  0.844270  0.500441  -0.113107
    C   C97   0.370805  0.336541  0.531834  -0.133056
    C   C98   0.629195  0.336541  0.468166  -0.132939
    C   C99   0.870805  0.836541  0.531834  -0.133133
    C   C100  0.129195  0.836541  0.468166  -0.132964
    H   H33   0.367515  0.304799  0.555466  0.148652
    H   H34   0.632485  0.304799  0.444533  0.148621
    H   H35   0.867515  0.804799  0.555466  0.148668
    H   H36   0.132485  0.804799  0.444534  0.148624
    C   C101  0.399967  0.369859  0.535314  -0.117732
    C   C102  0.600033  0.369859  0.464686  -0.117912
    C   C103  0.899967  0.869859  0.535314  -0.117710
    C   C104  0.100033  0.869859  0.464686  -0.117906
    H   H37   0.419438  0.363373  0.560538  0.127374
    H   H38   0.580562  0.363373  0.439462  0.127452
    H   H39   0.919438  0.863373  0.560538  0.127376
    H   H40   0.080562  0.863373  0.439462  0.127452
    C   C105  0.405725  0.410833  0.504394  -0.128152
    C   C106  0.594275  0.410833  0.495606  -0.127994
    C   C107  0.905725  0.910833  0.504394  -0.128176
    C   C108  0.094275  0.910833  0.495606  -0.127999
    C   C109  0.380639  0.416825  0.472498  0.175649
    C   C110  0.619361  0.416825  0.527502  0.175536
    C   C111  0.880639  0.916825  0.472498  0.175663
    C   C112  0.119361  0.916825  0.527502  0.175538
    C   C113  0.371369  0.449628  0.433167  -0.496970
    C   C114  0.628631  0.449628  0.566833  -0.496914
    C   C115  0.871369  0.949628  0.433167  -0.496988
    C   C116  0.128631  0.949628  0.566833  -0.496892
    C   C117  0.338590  0.412389  0.429648  -0.194447
    C   C118  0.661410  0.412389  0.570352  -0.194471
    C   C119  0.838590  0.912389  0.429648  -0.194469
    C   C120  0.161410  0.912389  0.570352  -0.194490
    H   H41   0.413812  0.461427  0.371816  0.211020
    H   H42   0.586188  0.461427  0.628183  0.211005
    H   H43   0.913812  0.961427  0.371816  0.211025
    H   H44   0.086188  0.961427  0.628183  0.211005
    H   H45   0.289673  0.417897  0.468829  0.117076
    H   H46   0.710327  0.417897  0.531170  0.117077
    H   H47   0.789673  0.917897  0.468829  0.117079
    H   H48   0.210327  0.917897  0.531170  0.117077
    O   O33   0.580071  0.458420  0.425775  -0.590003
    O   O34   0.419929  0.458420  0.574224  -0.589987
    O   O35   0.080071  0.958420  0.425775  -0.590016
    O   O36   0.919929  0.958420  0.574224  -0.589954
    O   O37   0.509685  0.457933  0.569714  -0.581561
    O   O38   0.490315  0.457933  0.430286  -0.581590
    O   O39   0.009685  0.957933  0.569714  -0.581520
    O   O40   0.990315  0.957933  0.430286  -0.581593
    C   C121  0.561045  0.445362  0.496964  0.754927
    C   C122  0.438955  0.445362  0.503036  0.755002
    C   C123  0.061045  0.945362  0.496964  0.754907
    C   C124  0.938955  0.945362  0.503036  0.754995
    O   O41   0.081703  0.047871  0.426052  -0.570449
    O   O42   0.918297  0.047871  0.573948  -0.570382
    O   O43   0.581703  0.547871  0.426052  -0.570425
    O   O44   0.418297  0.547871  0.573948  -0.570417
    O   O45   0.012595  0.047119  0.569574  -0.648343
    O   O46   0.987405  0.047119  0.430425  -0.648392
    O   O47   0.512595  0.547119  0.569574  -0.648372
    O   O48   0.487405  0.547119  0.430425  -0.648378
    C   C125  0.060495  0.063018  0.497395  0.695393
    C   C126  0.939505  0.063018  0.502605  0.695336
    C   C127  0.560495  0.563018  0.497395  0.695388
    C   C128  0.439505  0.563018  0.502604  0.695349
    Cu  Cu9   0.540385  0.504016  0.416894  0.982458
    Cu  Cu10  0.459615  0.504016  0.583106  0.982432
    Cu  Cu11  0.040385  0.004016  0.416894  0.982319
    Cu  Cu12  0.959615  0.004016  0.583106  0.982515
    C   C129  0.328208  0.484128  0.493367  0.923145
    O   O49   0.308168  0.509460  0.475229  -0.603955
    O   O50   0.310273  0.486523  0.568457  -0.469602
    C   C130  0.267916  0.516319  0.626841  0.436391
    C   C131  0.256730  0.511339  0.704489  -0.337831
    H   H49   0.225058  0.510632  0.643049  -0.025554
    H   H50   0.284376  0.549682  0.601967  -0.050068
    H   H51   0.240073  0.478039  0.729778  0.087592
    H   H52   0.222515  0.535411  0.751866  0.079044
    H   H53   0.299446  0.516879  0.688649  0.092773
    C   C132  0.671792  0.484128  0.506632  0.923138
    O   O51   0.691832  0.509460  0.524770  -0.603963
    O   O52   0.689727  0.486523  0.431543  -0.469578
    C   C133  0.732084  0.516319  0.373158  0.436340
    C   C134  0.743270  0.511339  0.295511  -0.337801
    H   H54   0.774942  0.510632  0.356950  -0.025548
    H   H55   0.715624  0.549682  0.398033  -0.050037
    H   H56   0.759927  0.478039  0.270221  0.087589
    H   H57   0.777485  0.535411  0.248134  0.079043
    H   H58   0.700554  0.516879  0.311351  0.092761
    C   C135  0.828208  0.984128  0.493367  0.923160
    O   O53   0.808168  0.009460  0.475230  -0.603952
    O   O54   0.810273  0.986523  0.568457  -0.469590
    C   C136  0.767916  0.016319  0.626841  0.436365
    C   C137  0.756730  0.011339  0.704489  -0.337828
    H   H59   0.725058  0.010632  0.643049  -0.025551
    H   H60   0.784376  0.049682  0.601967  -0.050059
    H   H61   0.740073  0.978039  0.729778  0.087592
    H   H62   0.722515  0.035411  0.751866  0.079045
    H   H63   0.799446  0.016879  0.688649  0.092774
    C   C138  0.171792  0.984128  0.506632  0.923112
    O   O55   0.191832  0.009460  0.524770  -0.603950
    O   O56   0.189727  0.986523  0.431543  -0.469561
    C   C139  0.232084  0.016319  0.373158  0.436328
    C   C140  0.243270  0.011339  0.295511  -0.337802
    H   H64   0.274942  0.010632  0.356950  -0.025546
    H   H65   0.215624  0.049682  0.398033  -0.050035
    H   H66   0.259927  0.978039  0.270221  0.087588
    H   H67   0.277485  0.035411  0.248134  0.079044
    H   H68   0.200554  0.016879  0.311351  0.092761
    C   C141  0.373105  0.397039  0.343065  0.881981
    O   O57   0.427149  0.389980  0.295584  -0.599606
    O   O58   0.344032  0.389493  0.318447  -0.557175
    C   C142  0.374904  0.374819  0.239409  0.577699
    C   C143  0.331061  0.367415  0.229878  -0.309807
    H   H69   0.397678  0.343711  0.228556  -0.045969
    H   H70   0.408957  0.399301  0.193089  -0.069054
    H   H71   0.298025  0.342069  0.274528  0.089825
    H   H72   0.356186  0.356512  0.165382  0.046434
    H   H73   0.306903  0.398113  0.242731  0.083853
    C   C144  0.626895  0.397039  0.656935  0.881979
    O   O59   0.572851  0.389980  0.704416  -0.599606
    O   O60   0.655968  0.389493  0.681552  -0.557168
    C   C145  0.625096  0.374819  0.760591  0.577712
    C   C146  0.668939  0.367415  0.770122  -0.309879
    H   H74   0.602322  0.343711  0.771444  -0.045979
    H   H75   0.591043  0.399301  0.806911  -0.069047
    H   H76   0.701975  0.342069  0.725472  0.089879
    H   H77   0.643815  0.356512  0.834617  0.046449
    H   H78   0.693097  0.398113  0.757269  0.083866
    C   C147  0.873105  0.897039  0.343065  0.882010
    O   O61   0.927149  0.889980  0.295584  -0.599617
    O   O62   0.844032  0.889493  0.318447  -0.557180
    C   C148  0.874904  0.874819  0.239409  0.577701
    C   C149  0.831061  0.867415  0.229878  -0.309808
    H   H79   0.897678  0.843711  0.228556  -0.045966
    H   H80   0.908957  0.899301  0.193089  -0.069054
    H   H81   0.798025  0.842069  0.274528  0.089823
    H   H82   0.856186  0.856512  0.165382  0.046434
    H   H83   0.806903  0.898113  0.242731  0.083854
    C   C150  0.126895  0.897039  0.656935  0.881973
    O   O63   0.072851  0.889980  0.704416  -0.599611
    O   O64   0.155968  0.889493  0.681552  -0.557162
    C   C151  0.125096  0.874819  0.760591  0.577701
    C   C152  0.168939  0.867415  0.770122  -0.309821
    H   H84   0.102322  0.843711  0.771444  -0.045965
    H   H85   0.091043  0.899301  0.806911  -0.069049
    H   H86   0.201975  0.842069  0.725472  0.089832
    H   H87   0.143814  0.856512  0.834617  0.046435
    H   H88   0.193097  0.898113  0.757269  0.083855
    C   C153  0.116547  0.231664  0.431059  0.830534
    O   O65   0.064779  0.229709  0.499033  -0.557569
    O   O66   0.140710  0.270287  0.392642  -0.574655
    C   C154  0.107324  0.307712  0.428374  0.617540
    C   C155  0.145715  0.345898  0.372255  -0.439479
    H   H89   0.092470  0.312807  0.489804  -0.065273
    H   H90   0.067342  0.305326  0.436526  -0.070116
    H   H91   0.184900  0.349059  0.365677  0.115140
    H   H92   0.118374  0.376061  0.400075  0.085289
    H   H93   0.161968  0.340542  0.310031  0.120480
    C   C156  0.883453  0.231664  0.568940  0.830581
    O   O67   0.935221  0.229709  0.500967  -0.557598
    O   O68   0.859290  0.270287  0.607358  -0.574628
    C   C157  0.892676  0.307712  0.571626  0.617493
    C   C158  0.854285  0.345898  0.627745  -0.439447
    H   H94   0.907530  0.312807  0.510196  -0.065265
    H   H95   0.932659  0.305326  0.563474  -0.070106
    H   H96   0.815100  0.349059  0.634323  0.115121
    H   H97   0.881626  0.376061  0.599924  0.085286
    H   H98   0.838032  0.340542  0.689969  0.120471
    C   C159  0.616547  0.731664  0.431060  0.830540
    O   O69   0.564779  0.729709  0.499033  -0.557567
    O   O70   0.640710  0.770287  0.392642  -0.574659
    C   C160  0.607324  0.807712  0.428374  0.617521
    C   C161  0.645715  0.845898  0.372255  -0.439469
    H   H99   0.592470  0.812807  0.489804  -0.065270
    H   H100  0.567341  0.805326  0.436526  -0.070110
    H   H101  0.684900  0.849059  0.365677  0.115140
    H   H102  0.618374  0.876061  0.400075  0.085286
    H   H103  0.661968  0.840542  0.310031  0.120479
    C   C162  0.383453  0.731664  0.568940  0.830592
    O   O71   0.435221  0.729709  0.500967  -0.557598
    O   O72   0.359290  0.770287  0.607358  -0.574645
    C   C163  0.392676  0.807712  0.571626  0.617502
    C   C164  0.354285  0.845898  0.627745  -0.439459
    H   H104  0.407530  0.812807  0.510196  -0.065263
    H   H105  0.432659  0.805326  0.563474  -0.070112
    H   H106  0.315100  0.849059  0.634323  0.115135
    H   H107  0.381626  0.876061  0.599924  0.085286
    H   H108  0.338032  0.840542  0.689969  0.120475
    C   C165  0.123988  0.259859  0.920309  0.740352
    O   O73   0.134330  0.264126  0.964144  -0.545244
    O   O74   0.170589  0.254592  0.837496  -0.311293
    C   C166  0.229022  0.254673  0.802197  0.216151
    C   C167  0.271332  0.248095  0.709078  -0.212746
    H   H109  0.235581  0.227894  0.828792  0.020836
    H   H110  0.239231  0.286308  0.814176  0.007717
    H   H111  0.262322  0.216051  0.696661  0.073254
    H   H112  0.318732  0.249254  0.679914  0.052385
    H   H113  0.263743  0.274178  0.682663  0.089918
    C   C168  0.876012  0.259859  0.079691  0.740410
    O   O75   0.865671  0.264126  0.035856  -0.545256
    O   O76   0.829411  0.254592  0.162504  -0.311320
    C   C169  0.770978  0.254673  0.197803  0.216164
    C   C170  0.728668  0.248095  0.290922  -0.212729
    H   H114  0.764419  0.227894  0.171208  0.020831
    H   H115  0.760769  0.286308  0.185823  0.007713
    H   H116  0.737678  0.216051  0.303338  0.073253
    H   H117  0.681268  0.249254  0.320086  0.052381
    H   H118  0.736257  0.274178  0.317337  0.089903
    C   C171  0.623988  0.759859  0.920309  0.740358
    O   O77   0.634330  0.764126  0.964144  -0.545243
    O   O78   0.670589  0.754592  0.837496  -0.311281
    C   C172  0.729022  0.754673  0.802197  0.216161
    C   C173  0.771332  0.748095  0.709078  -0.212757
    H   H119  0.735581  0.727894  0.828792  0.020829
    H   H120  0.739231  0.786308  0.814177  0.007718
    H   H121  0.762322  0.716051  0.696661  0.073253
    H   H122  0.818732  0.749254  0.679914  0.052390
    H   H123  0.763743  0.774178  0.682663  0.089921
    C   C174  0.376012  0.759859  0.079691  0.740410
    O   O79   0.365671  0.764126  0.035856  -0.545258
    O   O80   0.329411  0.754592  0.162504  -0.311334
    C   C175  0.270978  0.754673  0.197803  0.216182
    C   C176  0.228668  0.748095  0.290922  -0.212741
    H   H124  0.264419  0.727894  0.171208  0.020826
    H   H125  0.260769  0.786308  0.185823  0.007712
    H   H126  0.237678  0.716051  0.303338  0.073250
    H   H127  0.181268  0.749254  0.320086  0.052382
    H   H128  0.236257  0.774178  0.317337  0.089916
