# Generated by REPEAT Assigner based on pymatgen
data_DB0-m2_o2_o29_f0_pcu.sym.27
_audit_creation_date              2022-05-24
_audit_creation_method            REPEAT_Assigner
_cell_length_a                    15.111909
_cell_length_b                    13.674852
_cell_length_c                    27.502375
_cell_angle_alpha                 90.000000
_cell_angle_beta                  89.990185
_cell_angle_gamma                 90.000000
_cell_volume                      5683.451469
_symmetry_space_group_name_H-M    P1
_symmetry_Int_Tables_number       1
loop_
    _symmetry_equiv_pos_site_id
    _symmetry_equiv_pos_as_xyz
    1  x,y,z
loop_
    _atom_site_type_symbol
    _atom_site_label
    _atom_site_fract_x
    _atom_site_fract_y
    _atom_site_fract_z
    _atom_type_partial_charge
    O   O1   0.368500  0.580103  0.502950  -0.634701
    O   O2   0.625945  0.414420  0.495573  -0.586802
    O   O3   0.625636  0.582456  0.500488  -0.624630
    O   O4   0.368935  0.412096  0.500596  -0.581146
    C   C1   0.327251  0.495899  0.502715  0.658611
    C   C2   0.667299  0.498609  0.497642  0.694269
    O   O5   0.497647  0.580834  0.429184  -0.692235
    O   O6   0.498804  0.413329  0.570504  -0.663115
    O   O7   0.502152  0.581474  0.570523  -0.667918
    O   O8   0.490009  0.412747  0.429253  -0.671282
    C   C3   0.492212  0.496744  0.406530  0.881711
    C   C4   0.502520  0.497456  0.593321  0.864155
    Cu  Cu1  0.496945  0.595004  0.499845  0.987950
    Cu  Cu2  0.497252  0.399338  0.500099  0.856175
    C   C5   0.460077  0.436079  0.177305  0.456012
    C   C6   0.555695  0.566621  0.822997  0.448467
    O   O9   0.407143  0.375237  0.202305  -0.527484
    O   O10  0.614164  0.620296  0.797620  -0.519748
    N   N1   0.514708  0.496498  0.201576  -0.152794
    N   N2   0.494198  0.513933  0.799119  -0.164075
    C   C7   0.568488  0.557941  0.177353  0.453077
    C   C8   0.433761  0.461458  0.823890  0.458552
    C   C9   0.576420  0.458112  0.281120  -0.152845
    C   C10  0.426347  0.544942  0.720116  -0.179909
    C   C11  0.568576  0.455720  0.331024  -0.146270
    C   C12  0.429655  0.540270  0.670001  -0.110772
    C   C13  0.429447  0.538410  0.325534  0.074137
    C   C14  0.571356  0.462692  0.674133  0.118797
    C   C15  0.437518  0.539904  0.275548  -0.195594
    C   C16  0.568499  0.469735  0.724139  -0.230951
    C   C17  0.510629  0.499722  0.253270  0.233215
    C   C18  0.496134  0.509878  0.747298  0.244838
    C   C19  0.511180  0.500120  0.101446  0.111560
    C   C20  0.497688  0.512715  0.899366  0.129779
    C   C21  0.457740  0.437011  0.127055  -0.131832
    C   C22  0.558018  0.566803  0.873300  -0.130222
    C   C23  0.402002  0.375092  0.102380  -0.037300
    C   C24  0.621473  0.619551  0.897550  -0.037602
    C   C25  0.567369  0.560473  0.127035  -0.132351
    C   C26  0.434818  0.460286  0.874196  -0.147770
    C   C27  0.495626  0.496313  0.353475  -0.116820
    C   C28  0.501254  0.498229  0.646676  -0.137863
    H   H1   0.384797  0.569823  0.253502  0.125158
    H   H2   0.622816  0.441770  0.745541  0.141099
    H   H3   0.360630  0.323295  0.121435  0.124941
    H   H4   0.670578  0.661618  0.878118  0.122217
    C   C29  0.441859  0.451349  0.975307  0.052543
    C   C30  0.564209  0.565621  0.025636  0.051980
    C   C31  0.563641  0.565316  0.974631  0.052023
    C   C32  0.448622  0.444054  0.025969  0.052544
    C   C33  0.501022  0.509909  0.949932  0.012123
    C   C34  0.508071  0.503208  0.050861  0.021074
    C   C35  0.376398  0.402395  0.949166  -0.193208
    C   C36  0.618965  0.627750  0.052341  -0.195052
    C   C37  0.373429  0.406490  0.899411  -0.029308
    C   C38  0.620435  0.624970  0.102253  -0.035029
    O   O11  0.373852  0.407915  0.799461  -0.518216
    O   O12  0.621279  0.618898  0.202382  -0.528075
    C   C39  0.397646  0.378102  0.052563  -0.191285
    C   C40  0.624438  0.619003  0.947392  -0.192842
    H   H5   0.375711  0.569739  0.648783  0.106948
    H   H6   0.620104  0.422027  0.352525  0.126870
    H   H7   0.369548  0.577365  0.737934  0.141290
    H   H8   0.633190  0.424588  0.264027  0.129717
    H   H9   0.322040  0.366175  0.880871  0.121426
    H   H10  0.663672  0.674878  0.121326  0.126665
    H   H11  0.323932  0.361124  0.965667  0.135134
    H   H12  0.660548  0.682443  0.036182  0.134350
    H   H13  0.354409  0.325165  0.036227  0.134359
    H   H14  0.677924  0.660055  0.962985  0.136515
    C   C41  0.093418  0.583364  0.500183  -0.211470
    C   C42  0.902111  0.419276  0.482040  -0.170035
    C   C43  0.901121  0.575077  0.520659  -0.090091
    C   C44  0.092414  0.409640  0.508154  -0.131514
    H   H15  0.060467  0.652545  0.494771  0.145508
    H   H16  0.936148  0.357945  0.465999  0.093481
    H   H17  0.934529  0.635362  0.538099  0.073340
    H   H18  0.058023  0.340889  0.512336  0.133233
    C   C45  0.184593  0.583170  0.500600  -0.032170
    C   C46  0.810851  0.419610  0.480592  -0.062737
    C   C47  0.809969  0.576588  0.517974  -0.126330
    C   C48  0.183723  0.409440  0.507819  -0.145540
    H   H19  0.219541  0.651746  0.496351  0.089988
    H   H20  0.776653  0.358715  0.464043  0.093779
    H   H21  0.775117  0.638994  0.532422  0.120566
    H   H22  0.218284  0.340552  0.510607  0.100763
    C   C49  0.230214  0.496060  0.504141  0.005937
    C   C50  0.764227  0.498450  0.498506  -0.052666
    C   C51  0.046214  0.496698  0.503882  0.062523
    C   C52  0.948417  0.496753  0.502279  0.138641
    C   C53  0.571071  0.102773  0.515274  -0.177371
    C   C54  0.453593  0.890961  0.463288  -0.207813
    C   C55  0.426889  0.102948  0.481403  -0.171243
    C   C56  0.541800  0.891188  0.534653  -0.193775
    H   H23  0.630255  0.065128  0.526717  0.112207
    H   H24  0.418256  0.927401  0.434377  0.125414
    H   H25  0.368058  0.067277  0.467705  0.116488
    H   H26  0.573409  0.928050  0.564669  0.124222
    C   C57  0.570045  0.203795  0.515678  -0.011175
    C   C58  0.453174  0.790177  0.464414  0.017526
    C   C59  0.428515  0.203623  0.481777  -0.062328
    C   C60  0.540786  0.790424  0.534375  -0.008113
    H   H27  0.627370  0.243156  0.528999  0.151498
    H   H28  0.417830  0.750154  0.436788  0.121302
    H   H29  0.371744  0.241727  0.467939  0.161332
    H   H30  0.574799  0.751291  0.562980  0.135758
    N   N3   0.498305  0.252958  0.499752  0.020322
    N   N4   0.495867  0.741299  0.499735  -0.038819
    C   C61  0.498168  0.050884  0.498946  0.116944
    C   C62  0.498170  0.943000  0.498835  0.147392
    C   C63  0.346250  0.572278  0.346709  0.007520
    C   C64  0.290447  0.506422  0.369191  0.020167
    C   C65  0.206079  0.534213  0.382023  -0.419742
    C   C66  0.176775  0.627960  0.373135  0.495899
    O   O13  0.093030  0.651089  0.385712  -0.333209
    C   C67  0.056089  0.741548  0.378626  0.087205
    C   C68  0.233243  0.694578  0.351122  -0.313768
    C   C69  0.316916  0.665978  0.337348  -0.080552
    H   H31  0.311075  0.431513  0.374755  0.086011
    H   H32  0.161696  0.481825  0.398528  0.175322
    H   H33  0.987559  0.741012  0.392898  0.047606
    H   H34  0.053924  0.758604  0.339191  0.023580
    H   H35  0.094547  0.797536  0.398758  0.015327
    H   H36  0.213444  0.768695  0.343012  0.133667
    H   H37  0.359036  0.717355  0.318472  0.097197
    C   C70  0.652442  0.424280  0.652215  -0.050583
    C   C71  0.654262  0.333219  0.630733  0.058967
    C   C72  0.733747  0.293663  0.615737  -0.476695
    C   C73  0.812035  0.343645  0.622606  0.565031
    O   O14  0.888261  0.299979  0.609002  -0.382666
    C   C74  0.970822  0.337042  0.618596  0.103115
    C   C75  0.810012  0.435373  0.644101  -0.268392
    C   C76  0.730393  0.474527  0.659047  -0.144117
    H   H38  0.593915  0.291507  0.627018  0.077546
    H   H39  0.735554  0.221593  0.599618  0.161133
    H   H40  0.021376  0.284767  0.605301  0.053997
    H   H41  0.979493  0.346644  0.658343  0.013039
    H   H42  0.980012  0.407725  0.599593  0.006465
    H   H43  0.869452  0.477565  0.650399  0.119350
    H   H44  0.728798  0.544783  0.676910  0.143375
