data_DB0-m3_o12_o29_f0_pcu.sym.27_repeat
_audit_creation_date              2024-02-23
_audit_creation_method            'Materials Studio'
_symmetry_space_group_name_H-M    'P1'
_symmetry_Int_Tables_number       1
_symmetry_cell_setting            triclinic
loop_
_symmetry_equiv_pos_as_xyz
  x,y,z
_cell_length_a                    10.0182
_cell_length_b                    11.4224
_cell_length_c                    27.6535
_cell_angle_alpha                 89.9684
_cell_angle_beta                  80.7696
_cell_angle_gamma                 92.4124
loop_
_atom_site_label
_atom_site_type_symbol
_atom_site_fract_x
_atom_site_fract_y
_atom_site_fract_z
_atom_site_U_iso_or_equiv
_atom_site_adp_type
_atom_site_occupancy
O1     O     0.42121   0.68624   0.50526   0.00000  Uiso   1.00
O2     O     0.57869   0.31429   0.49472   0.00000  Uiso   1.00
O3     O     0.65088   0.66017   0.49051   0.00000  Uiso   1.00
O4     O     0.34903   0.34036   0.50960   0.00000  Uiso   1.00
C1     C     0.54688   0.72792   0.49722   0.00000  Uiso   1.00
C2     C     0.45302   0.27260   0.50283   0.00000  Uiso   1.00
O5     O     0.38987   0.51290   0.57916   0.00000  Uiso   1.00
O6     O     0.61008   0.48781   0.42088   0.00000  Uiso   1.00
O7     O     0.61960   0.48647   0.56442   0.00000  Uiso   1.00
O8     O     0.38027   0.51388   0.43563   0.00000  Uiso   1.00
C3     C     0.50573   0.49959   0.59440   0.00000  Uiso   1.00
C4     C     0.49419   0.50096   0.40565   0.00000  Uiso   1.00
Zn1    Zn    0.34848   0.51775   0.50984   0.00000  Uiso   1.00
Zn2    Zn    0.65143   0.48278   0.49021   0.00000  Uiso   1.00
C5     C     0.47819   0.59825   0.82501   0.00000  Uiso   1.00
C6     C     0.53816   0.40675   0.17413   0.00000  Uiso   1.00
O9     O     0.45086   0.69560   0.80176   0.00000  Uiso   1.00
O10    O     0.58156   0.31456   0.19654   0.00000  Uiso   1.00
N1     N     0.51049   0.50085   0.79905   0.00000  Uiso   1.00
N2     N     0.48972   0.49871   0.20092   0.00000  Uiso   1.00
C7     C     0.54122   0.40335   0.82162   0.00000  Uiso   1.00
C8     C     0.44274   0.59047   0.17911   0.00000  Uiso   1.00
C9     C     0.39170   0.51938   0.72951   0.00000  Uiso   1.00
C10    C     0.61073   0.49268   0.27041   0.00000  Uiso   1.00
C11    C     0.39034   0.51877   0.67975   0.00000  Uiso   1.00
C12    C     0.61191   0.49314   0.32017   0.00000  Uiso   1.00
C13    C     0.62601   0.48090   0.66539   0.00000  Uiso   1.00
C14    C     0.37180   0.50834   0.33477   0.00000  Uiso   1.00
C15    C     0.62690   0.48097   0.71523   0.00000  Uiso   1.00
C16    C     0.37088   0.50759   0.28493   0.00000  Uiso   1.00
C17    C     0.50982   0.50045   0.74747   0.00000  Uiso   1.00
C18    C     0.49032   0.49964   0.25253   0.00000  Uiso   1.00
C19    C     0.50617   0.50040   0.89905   0.00000  Uiso   1.00
C20    C     0.49390   0.49874   0.10090   0.00000  Uiso   1.00
C21    C     0.47525   0.59904   0.87522   0.00000  Uiso   1.00
C22    C     0.54080   0.40573   0.12394   0.00000  Uiso   1.00
C23    C     0.44305   0.69866   0.90156   0.00000  Uiso   1.00
C24    C     0.59155   0.31242   0.09669   0.00000  Uiso   1.00
C25    C     0.53985   0.40213   0.87176   0.00000  Uiso   1.00
C26    C     0.44429   0.59151   0.12896   0.00000  Uiso   1.00
C27    C     0.50757   0.49970   0.64735   0.00000  Uiso   1.00
C28    C     0.49242   0.50093   0.35269   0.00000  Uiso   1.00
H1     H     0.71905   0.46582   0.64092   0.00000  Uiso   1.00
H2     H     0.27692   0.51407   0.35934   0.00000  Uiso   1.00
H3     H     0.72025   0.46693   0.72889   0.00000  Uiso   1.00
H4     H     0.27574   0.51195   0.27141   0.00000  Uiso   1.00
H5     H     0.42130   0.77831   0.88379   0.00000  Uiso   1.00
H6     H     0.63170   0.23916   0.11354   0.00000  Uiso   1.00
C29    C     0.45383   0.59590   0.02768   0.00000  Uiso   1.00
C30    C     0.53905   0.40065   0.97261   0.00000  Uiso   1.00
C31    C     0.54291   0.40263   0.02304   0.00000  Uiso   1.00
C32    C     0.46419   0.59884   0.97656   0.00000  Uiso   1.00
C33    C     0.49683   0.49907   0.05038   0.00000  Uiso   1.00
C34    C     0.50318   0.49997   0.94956   0.00000  Uiso   1.00
C35    C     0.40014   0.68726   0.05700   0.00000  Uiso   1.00
C36    C     0.56906   0.30110   0.94445   0.00000  Uiso   1.00
C37    C     0.39594   0.68496   0.10684   0.00000  Uiso   1.00
C38    C     0.56958   0.30221   0.89480   0.00000  Uiso   1.00
O11    O     0.39771   0.68281   0.20611   0.00000  Uiso   1.00
O12    O     0.57013   0.30610   0.79535   0.00000  Uiso   1.00
C39    C     0.43777   0.69895   0.95144   0.00000  Uiso   1.00
C40    C     0.59305   0.31072   0.04699   0.00000  Uiso   1.00
H7     H     0.70775   0.48781   0.33306   0.00000  Uiso   1.00
H8     H     0.29629   0.53361   0.66677   0.00000  Uiso   1.00
H9     H     0.70512   0.48789   0.24544   0.00000  Uiso   1.00
H10    H     0.29914   0.53358   0.75442   0.00000  Uiso   1.00
H11    H     0.35362   0.75796   0.12796   0.00000  Uiso   1.00
H12    H     0.59353   0.22287   0.87458   0.00000  Uiso   1.00
H13    H     0.35607   0.76187   0.04313   0.00000  Uiso   1.00
H14    H     0.58920   0.21816   0.95948   0.00000  Uiso   1.00
H15    H     0.41599   0.78166   0.96876   0.00000  Uiso   1.00
H16    H     0.63874   0.23618   0.02852   0.00000  Uiso   1.00
C41    C     0.57603   0.85562   0.49542   0.00000  Uiso   1.00
C42    C     0.42388   0.14491   0.50463   0.00000  Uiso   1.00
C43    C     0.48055   0.93635   0.50124   0.00000  Uiso   1.00
C44    C     0.51935   0.06418   0.49880   0.00000  Uiso   1.00
H17    H     0.31773   0.11814   0.51121   0.00000  Uiso   1.00
H18    H     0.68218   0.88239   0.48885   0.00000  Uiso   1.00
H19    H     0.11711   0.43510   0.46649   0.00000  Uiso   1.00
H20    H     0.88280   0.56541   0.53357   0.00000  Uiso   1.00
N3     N     0.85053   0.45862   0.47682   0.00000  Uiso   1.00
N4     N     0.14937   0.54191   0.52323   0.00000  Uiso   1.00
C45    C     0.92681   0.50926   0.50420   0.00000  Uiso   1.00
C46    C     0.07310   0.49126   0.49585   0.00000  Uiso   1.00
H21    H     0.10154   0.59443   0.55027   0.00000  Uiso   1.00
H22    H     0.89837   0.40610   0.44978   0.00000  Uiso   1.00
N5     N     0.65924   0.10165   0.49023   0.00000  Uiso   1.00
H23    H     0.70604   0.06968   0.51838   0.00000  Uiso   1.00
H24    H     0.70455   0.06961   0.45646   0.00000  Uiso   1.00
N6     N     0.34067   0.89887   0.50980   0.00000  Uiso   1.00
H25    H     0.29388   0.93086   0.48165   0.00000  Uiso   1.00
H26    H     0.29535   0.93090   0.54357   0.00000  Uiso   1.00
