# Generated by REPEAT Assigner based on pymatgen
data_DB0-m2_o25_o27_f0_pcu.sym.72_sqe
_audit_creation_date              2022-05-24
_audit_creation_method            REPEAT_Assigner
_cell_length_a                    19.288736
_cell_length_b                    15.895210
_cell_length_c                    14.468364
_cell_angle_alpha                 90.007055
_cell_angle_beta                  89.996151
_cell_angle_gamma                 90.001001
_cell_volume                      4435.978904
_symmetry_space_group_name_H-M    P1
_symmetry_Int_Tables_number       1
loop_
    _symmetry_equiv_pos_site_id
    _symmetry_equiv_pos_as_xyz
    1  x,y,z
loop_
    _atom_site_type_symbol
    _atom_site_label
    _atom_site_fract_x
    _atom_site_fract_y
    _atom_site_fract_z
    _atom_type_partial_charge
    O   O1   0.497412  0.383086  0.586240  -0.576692
    O   O2   0.500116  0.627074  0.427189  -0.619025
    O   O3   0.495962  0.382611  0.427224  -0.663408
    O   O4   0.501929  0.627548  0.586188  -0.614987
    C   C1   0.496009  0.343658  0.506848  0.795504
    C   C2   0.501577  0.666524  0.506561  0.838516
    O   O5   0.396605  0.511117  0.582016  -0.553163
    O   O6   0.601139  0.499292  0.431358  -0.586335
    O   O7   0.399782  0.504381  0.423668  -0.495843
    O   O8   0.597952  0.505542  0.589840  -0.451682
    C   C3   0.365309  0.509540  0.501472  0.557098
    C   C4   0.632320  0.500563  0.511953  0.535477
    Cu  Cu1  0.496965  0.505405  0.599051  0.837292
    Cu  Cu2  0.500766  0.504760  0.414381  1.010424
    C   C5   0.253453  0.500303  0.582369  -0.164872
    C   C6   0.744329  0.520108  0.434028  -0.177676
    H   H1   0.281247  0.490769  0.646321  0.121750
    H   H2   0.716707  0.536061  0.371487  0.132868
    C   C7   0.182023  0.499200  0.585109  0.176622
    C   C8   0.815718  0.522865  0.432805  0.123292
    H   H3   0.156635  0.489711  0.650844  0.021642
    H   H4   0.841470  0.539793  0.369163  0.032702
    C   C9   0.144095  0.510109  0.505187  -0.605394
    C   C10  0.853110  0.505253  0.511825  -0.460190
    C   C11  0.178621  0.522119  0.422722  0.228721
    C   C12  0.818097  0.483974  0.591712  0.045511
    H   H5   0.150094  0.532141  0.359446  -0.037033
    H   H6   0.846128  0.468156  0.653958  0.046801
    C   C13  0.250174  0.523047  0.418987  -0.016788
    C   C14  0.746670  0.479098  0.593026  -0.003843
    C   C15  0.288677  0.511915  0.499852  0.001268
    C   C16  0.708795  0.499077  0.513834  0.051764
    N   N1   0.031658  0.523691  0.429545  -0.315272
    N   N2   0.965503  0.493221  0.588392  -0.321062
    N   N3   0.963162  0.522732  0.431072  -0.361456
    N   N4   0.034038  0.494304  0.586891  -0.355258
    C   C17  0.929211  0.507405  0.510491  0.892285
    C   C18  0.067975  0.509441  0.507373  0.938141
    C   C19  0.546753  0.978866  0.564501  -0.150099
    C   C20  0.449907  0.031411  0.448958  -0.171796
    C   C21  0.559364  0.034066  0.480296  -0.166652
    C   C22  0.437291  0.976203  0.533167  -0.174783
    H   H7   0.609965  0.060449  0.458331  0.069568
    H   H8   0.386686  0.949816  0.555118  0.074160
    H   H9   0.586996  0.954815  0.612422  0.047529
    H   H10  0.409683  0.055562  0.401068  0.069515
    H   H11  0.524040  0.953431  0.352460  0.070812
    H   H12  0.472644  0.056898  0.660984  0.066561
    C   C23  0.495468  0.253424  0.506985  -0.084604
    C   C24  0.501584  0.756792  0.506362  -0.163857
    C   C25  0.484322  0.032116  0.591049  -0.177277
    C   C26  0.512338  0.978162  0.422408  -0.182406
    C   C27  0.496955  0.085670  0.506840  0.737536
    C   C28  0.499702  0.924588  0.506611  0.718997
    C   C29  0.495759  0.177642  0.506923  -0.450868
    C   C30  0.500982  0.832586  0.506421  -0.382005
    C   C31  0.545999  0.558561  0.974882  -0.147394
    C   C32  0.452602  0.451734  0.038466  -0.173427
    C   C33  0.485611  0.581535  0.037623  -0.177155
    C   C34  0.512987  0.428769  0.975752  -0.197206
    H   H13  0.474318  0.644911  0.065904  0.093727
    H   H14  0.524195  0.365359  0.947563  0.097137
    H   H15  0.584665  0.602919  0.945870  0.089992
    H   H16  0.414137  0.407153  0.067509  0.088525
    H   H17  0.385177  0.547972  0.953476  0.099054
    H   H18  0.613627  0.462620  0.059565  0.075351
    N   N5   0.503525  0.504495  0.276198  -0.103925
    N   N6   0.494202  0.505687  0.737230  -0.068139
    C   C35  0.561752  0.481907  0.034236  -0.141971
    C   C36  0.436857  0.528397  0.979155  -0.191263
    C   C37  0.501323  0.504880  0.095163  0.682084
    C   C38  0.497249  0.505410  0.918223  0.681566
    C   C39  0.502929  0.504627  0.196240  -0.205225
    C   C40  0.495175  0.505611  0.817175  -0.214459
    C   C41  0.281741  0.540305  0.328537  0.349220
    O   O9   0.315515  0.604473  0.317975  -0.423198
    C   C42  0.267752  0.485394  0.248687  0.114233
    C   C43  0.278518  0.515092  0.159976  -0.085421
    C   C44  0.264632  0.464457  0.084823  -0.096130
    C   C45  0.241152  0.383487  0.097656  -0.113555
    C   C46  0.231410  0.353056  0.185798  -0.065640
    C   C47  0.244575  0.403683  0.261153  -0.172474
    H   H19  0.296839  0.578448  0.148311  0.090421
    H   H20  0.272271  0.488273  0.015632  0.102105
    H   H21  0.230604  0.343787  0.038646  0.103125
    H   H22  0.213422  0.289313  0.195947  0.107174
    H   H23  0.237276  0.377884  0.329535  0.087639
    C   C48  0.714248  0.450140  0.679123  0.392653
    O   O10  0.720451  0.492987  0.748540  -0.472509
    C   C49  0.679438  0.367766  0.685126  0.096187
    C   C50  0.640777  0.348102  0.762734  -0.093951
    C   C51  0.608744  0.270840  0.769987  -0.156275
    C   C52  0.615557  0.212416  0.700302  -0.093945
    C   C53  0.654371  0.231310  0.623173  -0.030172
    C   C54  0.686130  0.308678  0.615279  -0.195451
    H   H24  0.634747  0.393008  0.818246  0.110208
    H   H25  0.578368  0.255991  0.830594  0.109471
    H   H26  0.590572  0.151783  0.706151  0.107341
    H   H27  0.659943  0.185337  0.568633  0.087781
    H   H28  0.716819  0.321228  0.554413  0.095861
