# Generated by REPEAT Assigner based on pymatgen
data_DB0-m2_o6_o27_f0_nbo.sym.72
_audit_creation_date              2022-05-24
_audit_creation_method            REPEAT_Assigner
_cell_length_a                    31.957932
_cell_length_b                    31.957934
_cell_length_c                    38.256632
_cell_angle_alpha                 90.000000
_cell_angle_beta                  90.000000
_cell_angle_gamma                 90.000000
_cell_volume                      39071.859835
_symmetry_space_group_name_H-M    P1
_symmetry_Int_Tables_number       1
loop_
    _symmetry_equiv_pos_site_id
    _symmetry_equiv_pos_as_xyz
    1  x,y,z
loop_
    _atom_site_type_symbol
    _atom_site_label
    _atom_site_fract_x
    _atom_site_fract_y
    _atom_site_fract_z
    _atom_type_partial_charge
    C   C1    0.920872  0.500156  0.999983  0.928561
    C   C2    0.500186  0.999859  0.933775  0.862150
    C   C3    0.478605  0.772209  0.974322  -0.465472
    C   C4    0.772170  0.478604  0.025515  -0.466161
    C   C5    0.521443  0.772112  0.025554  -0.466457
    C   C6    0.227599  0.521536  0.025709  -0.465792
    C   C7    0.478697  0.227546  0.025681  -0.464235
    C   C8    0.272900  0.020914  0.474196  -0.462773
    C   C9    0.021048  0.728179  0.474246  -0.465652
    C   C10   0.728364  0.978135  0.474568  -0.468456
    C   C11   0.978154  0.272719  0.474529  -0.465785
    C   C12   0.272716  0.978151  0.525470  -0.465294
    C   C13   0.999849  0.500200  0.066226  0.862350
    C   C14   0.020914  0.272902  0.525805  -0.463067
    C   C15   0.728177  0.021046  0.525756  -0.465674
    C   C16   0.978135  0.728366  0.525432  -0.469052
    C   C17   0.793562  0.500060  0.999919  0.344088
    C   C18   0.500140  0.206197  0.000052  0.341838
    C   C19   0.206205  0.500146  0.000076  0.341411
    C   C20   0.500050  0.793554  0.999952  0.342280
    C   C21   0.294205  0.999459  0.499843  0.340524
    C   C22   0.999517  0.706875  0.499849  0.343747
    C   C23   0.706873  0.999515  0.500152  0.343169
    C   C24   0.500141  0.999865  0.066225  0.863112
    C   C25   0.999461  0.294207  0.500157  0.340654
    C   C26   0.662731  0.499901  0.999831  0.141393
    C   C27   0.500002  0.337031  0.000138  0.142130
    C   C28   0.337039  0.499996  0.000164  0.145824
    C   C29   0.499904  0.662722  0.999860  0.145723
    C   C30   0.163363  0.000081  0.499862  0.108804
    C   C31   0.000134  0.837719  0.499865  0.177711
    C   C32   0.837717  0.000135  0.500136  0.177101
    C   C33   0.000080  0.163366  0.500138  0.109025
    C   C34   0.838389  0.500107  0.999945  0.028356
    C   C35   0.500588  0.999307  0.433774  0.862037
    C   C36   0.500175  0.161368  0.000023  0.030027
    C   C37   0.161377  0.500180  0.000054  0.030726
    C   C38   0.500099  0.838381  0.999979  0.029531
    C   C39   0.339035  0.999367  0.499888  0.030907
    C   C40   0.999418  0.662043  0.499891  0.028427
    C   C41   0.662041  0.999415  0.500110  0.028553
    C   C42   0.999370  0.339038  0.500112  0.030775
    C   C43   0.876050  0.500137  0.999963  -0.318635
    C   C44   0.500189  0.123707  0.000007  -0.320426
    C   C45   0.123715  0.500194  0.000038  -0.321164
    C   C46   0.999373  0.500469  0.433776  0.863544
    C   C47   0.500128  0.876042  0.999993  -0.319712
    C   C48   0.376698  0.999332  0.499918  -0.320921
    C   C49   0.999373  0.624379  0.499920  -0.317664
    C   C50   0.624377  0.999370  0.500080  -0.317597
    C   C51   0.999334  0.376701  0.500082  -0.320526
    C   C52   0.625046  0.499871  0.999804  -0.319179
    C   C53   0.499963  0.374716  0.000168  -0.320352
    C   C54   0.374724  0.499954  0.000191  -0.321805
    C   C55   0.499877  0.625038  0.999827  -0.321935
    C   C56   0.125678  0.000392  0.499895  -0.270287
    C   C57   0.500466  0.999382  0.566225  0.863281
    C   C58   0.000434  0.875405  0.499896  -0.368431
    C   C59   0.875403  0.000435  0.500105  -0.367898
    C   C60   0.000391  0.125681  0.500105  -0.270487
    C   C61   0.499921  0.419576  0.000209  0.838077
    C   C62   0.419585  0.499911  0.000223  0.838992
    C   C63   0.499862  0.580178  0.999784  0.839893
    C   C64   0.580187  0.499853  0.999770  0.837577
    C   C65   0.000876  0.920267  0.499933  0.877579
    C   C66   0.920265  0.000878  0.500068  0.877257
    C   C67   0.000856  0.080819  0.500067  0.791455
    C   C68   0.999321  0.500591  0.566226  0.862383
    C   C69   0.080817  0.000858  0.499933  0.791234
    C   C70   0.893505  0.471540  0.886759  0.860816
    C   C71   0.860728  0.448664  0.906738  -0.601307
    C   C72   0.471623  0.106147  0.886592  0.860566
    C   C73   0.448806  0.138984  0.906549  -0.599218
    C   C74   0.106176  0.528782  0.886607  0.860962
    C   C75   0.139009  0.551576  0.906587  -0.598788
    C   C76   0.528788  0.893456  0.886772  0.861891
    C   C77   0.551615  0.860666  0.906775  -0.602116
    C   C78   0.893442  0.528797  0.113217  0.861552
    C   C79   0.966510  0.482963  0.877638  0.435989
    C   C80   0.860653  0.551615  0.093206  -0.601194
    C   C81   0.471532  0.893476  0.113232  0.860855
    C   C82   0.448664  0.860700  0.093246  -0.601492
    C   C83   0.106133  0.471631  0.113420  0.860673
    C   C84   0.138971  0.448806  0.093471  -0.600056
    C   C85   0.528775  0.106147  0.113403  0.860613
    C   C86   0.551575  0.138982  0.093430  -0.597903
    C   C87   0.394224  0.970711  0.386725  0.858223
    C   C88   0.361433  0.947841  0.406692  -0.597273
    C   C89   0.970827  0.606760  0.386594  0.860169
    C   C90   0.483000  0.033115  0.877581  0.432672
    C   C91   0.947986  0.639593  0.406536  -0.599759
    C   C92   0.606896  0.027949  0.386638  0.860379
    C   C93   0.639716  0.050747  0.406631  -0.599728
    C   C94   0.028018  0.394076  0.386772  0.861056
    C   C95   0.050828  0.361288  0.406791  -0.599526
    C   C96   0.394072  0.028032  0.613225  0.860574
    C   C97   0.361284  0.050838  0.593203  -0.599396
    C   C98   0.970730  0.394227  0.613280  0.858693
    C   C99   0.947856  0.361436  0.593315  -0.597676
    C   C100  0.606756  0.970840  0.613410  0.860671
    C   C101  0.033146  0.517391  0.877596  0.435971
    C   C102  0.639590  0.947996  0.593471  -0.599594
    C   C103  0.027968  0.606899  0.613359  0.860026
    C   C104  0.050762  0.639719  0.593364  -0.599399
    C   C105  0.718850  0.420912  0.064805  0.827714
    C   C106  0.696783  0.405893  0.096680  -0.545319
    C   C107  0.421025  0.280803  0.065051  0.829513
    C   C108  0.406018  0.302812  0.096958  -0.545239
    C   C109  0.280979  0.579078  0.065094  0.830373
    C   C110  0.303016  0.594025  0.097007  -0.545479
    C   C111  0.578995  0.718655  0.064857  0.827224
    C   C112  0.500182  0.078884  0.000000  0.928838
    C   C113  0.517405  0.966468  0.877649  0.435002
    C   C114  0.593952  0.696557  0.096737  -0.544750
    C   C115  0.718779  0.579022  0.934933  0.830850
    C   C116  0.696736  0.593988  0.903029  -0.546085
    C   C117  0.420934  0.718962  0.934943  0.830622
    C   C118  0.405933  0.696960  0.903031  -0.546756
    C   C119  0.280924  0.421047  0.935156  0.826672
    C   C120  0.302986  0.406049  0.903272  -0.544773
    C   C121  0.579103  0.281087  0.935152  0.827728
    C   C122  0.594067  0.303187  0.903275  -0.544308
    C   C123  0.219119  0.920830  0.564879  0.830109
    C   C124  0.966453  0.517420  0.122349  0.434823
    C   C125  0.196998  0.905999  0.596789  -0.550799
    C   C126  0.920696  0.781967  0.564717  0.835083
    C   C127  0.905765  0.804093  0.596593  -0.546025
    C   C128  0.781282  0.078953  0.565026  0.828690
    C   C129  0.803261  0.094085  0.596906  -0.539855
    C   C130  0.078701  0.219795  0.565195  0.821959
    C   C131  0.093735  0.197820  0.597109  -0.538849
    C   C132  0.219794  0.078704  0.434808  0.821764
    C   C133  0.197819  0.093740  0.402894  -0.538153
    C   C134  0.920834  0.219123  0.435119  0.829997
    C   C135  0.482950  0.966481  0.122362  0.436781
    C   C136  0.906004  0.197003  0.403208  -0.550258
    C   C137  0.781966  0.920698  0.435281  0.835550
    C   C138  0.804092  0.905770  0.403405  -0.547088
    C   C139  0.078956  0.781286  0.434977  0.828685
    C   C140  0.094090  0.803265  0.403098  -0.539617
    C   C141  0.033100  0.483015  0.122422  0.432346
    C   C142  0.517378  0.033116  0.122406  0.436449
    C   C143  0.467234  0.982118  0.377624  0.436684
    C   C144  0.982212  0.533730  0.377581  0.438051
    C   C145  0.533870  0.016545  0.377606  0.434676
    C   C146  0.016625  0.467087  0.377652  0.435051
    C   C147  0.467084  0.016642  0.622347  0.436257
    C   C148  0.078892  0.500194  0.000019  0.929049
    C   C149  0.982140  0.467238  0.622379  0.435810
    C   C150  0.533727  0.982228  0.622422  0.437152
    C   C151  0.016567  0.533873  0.622393  0.434595
    C   C152  0.967187  0.481856  0.841483  -0.122873
    C   C153  0.481875  0.032344  0.841427  -0.119676
    C   C154  0.032364  0.518580  0.841444  -0.121701
    C   C155  0.518577  0.967155  0.841497  -0.122015
    C   C156  0.967135  0.518591  0.158502  -0.121843
    C   C157  0.481844  0.967154  0.158517  -0.123818
    C   C158  0.032324  0.481888  0.158576  -0.119682
    C   C159  0.500143  0.920864  0.000000  0.929065
    C   C160  0.518568  0.032331  0.158558  -0.123005
    C   C161  0.467926  0.981016  0.341470  -0.123584
    C   C162  0.981109  0.532969  0.341427  -0.125162
    C   C163  0.533103  0.017739  0.341454  -0.122633
    C   C164  0.017820  0.467784  0.341499  -0.121481
    C   C165  0.467780  0.017840  0.658500  -0.121994
    C   C166  0.981044  0.467929  0.658533  -0.122292
    C   C167  0.532965  0.981130  0.658576  -0.124325
    C   C168  0.017767  0.533107  0.658545  -0.122561
    C   C169  0.999745  0.500244  0.823310  -0.427878
    C   C170  0.421524  0.999330  0.499946  0.929693
    C   C171  0.500239  0.999728  0.823309  -0.428219
    C   C172  0.999707  0.500252  0.176692  -0.428123
    C   C173  0.500234  0.999711  0.176690  -0.425816
    C   C174  0.500491  0.999407  0.323309  -0.426760
    C   C175  0.999490  0.500362  0.323310  -0.424899
    C   C176  0.500357  0.999513  0.676691  -0.425687
    C   C177  0.999437  0.500495  0.676692  -0.426964
    C   C178  0.999853  0.500160  0.895555  -0.365780
    C   C179  0.500195  0.999813  0.895554  -0.363238
    C   C180  0.999800  0.500210  0.104447  -0.363179
    C   C181  0.999357  0.579552  0.499948  0.927840
    C   C182  0.500146  0.999825  0.104445  -0.366361
    C   C183  0.500570  0.999310  0.395554  -0.365075
    C   C184  0.999397  0.500425  0.395555  -0.367029
    C   C185  0.500422  0.999411  0.604446  -0.366949
    C   C186  0.999330  0.500573  0.604447  -0.365070
    C   C187  0.999515  0.500436  0.715035  0.981389
    C   C188  0.500326  0.999572  0.715033  0.981492
    C   C189  0.999548  0.500332  0.284967  0.980695
    C   C190  0.500431  0.999482  0.284966  0.981846
    C   C191  0.500300  0.999635  0.215033  0.980325
    C   C192  0.579550  0.999354  0.500053  0.927569
    C   C193  0.999654  0.500280  0.215034  0.982009
    C   C194  0.500271  0.999678  0.784966  0.981891
    C   C195  0.999671  0.500308  0.784968  0.981760
    C   C196  0.728869  0.477686  0.025095  0.453862
    C   C197  0.477787  0.270847  0.025318  0.454573
    C   C198  0.270903  0.522351  0.025347  0.457961
    C   C199  0.522256  0.728809  0.025136  0.455673
    C   C200  0.728864  0.522271  0.974655  0.454629
    C   C201  0.477690  0.728908  0.974684  0.458326
    C   C202  0.270900  0.477798  0.974888  0.455898
    C   C203  0.999332  0.421526  0.500054  0.929072
    C   C204  0.522359  0.270940  0.974870  0.451886
    C   C205  0.229408  0.977460  0.525073  0.444202
    C   C206  0.977446  0.771674  0.525033  0.462722
    C   C207  0.771476  0.022085  0.525373  0.467618
    C   C208  0.021951  0.229604  0.525424  0.451588
    C   C209  0.229602  0.021952  0.474577  0.450951
    C   C210  0.977461  0.229411  0.474927  0.444653
    C   C211  0.771672  0.977447  0.474967  0.462295
    C   C212  0.022086  0.771478  0.474629  0.467861
    C   C213  0.707591  0.499951  0.999860  -0.204389
    C   C214  0.999891  0.500154  0.933776  0.863048
    C   C215  0.500050  0.292169  0.000107  -0.203470
    C   C216  0.292178  0.500050  0.000132  -0.208884
    C   C217  0.499947  0.707583  0.999896  -0.209219
    C   C218  0.208227  0.999797  0.499823  -0.185443
    C   C219  0.999857  0.792855  0.499829  -0.228617
    C   C220  0.792853  0.999857  0.500172  -0.227955
    C   C221  0.999797  0.208229  0.500177  -0.186016
    C   C222  0.772167  0.521462  0.974294  -0.465236
    C   C223  0.521540  0.227636  0.974451  -0.464471
    C   C224  0.227599  0.478711  0.974469  -0.466025
    Cu  Cu1   0.999872  0.540929  0.999989  1.040455
    Cu  Cu2   0.499873  0.499855  0.034850  0.997317
    Cu  Cu3   0.000489  0.000575  0.465128  0.988576
    Cu  Cu4   0.000573  0.000492  0.534872  0.988618
    Cu  Cu5   0.540917  0.999864  0.000011  1.040612
    Cu  Cu6   0.999891  0.459423  0.000013  1.040404
    Cu  Cu7   0.459410  0.999884  0.999988  1.040202
    Cu  Cu8   0.500530  0.040096  0.499982  1.040674
    Cu  Cu9   0.040099  0.500533  0.500014  1.040665
    Cu  Cu10  0.500543  0.958589  0.500017  1.039822
    Cu  Cu11  0.958592  0.500545  0.499988  1.040172
    Cu  Cu12  0.499899  0.499900  0.965143  0.996784
    H   H1    0.942020  0.466854  0.827426  0.097022
    H   H2    0.966116  0.558107  0.327327  0.097698
    H   H3    0.280093  0.402085  0.881742  0.166585
    H   H4    0.318293  0.375636  0.908864  0.181762
    H   H5    0.570772  0.327160  0.895491  0.136236
    H   H6    0.598089  0.280307  0.881744  0.165802
    H   H7    0.624445  0.318558  0.908879  0.181751
    H   H8    0.173102  0.929382  0.604551  0.137229
    H   H9    0.219883  0.901954  0.618314  0.167421
    H   H10   0.181532  0.875656  0.591238  0.183128
    H   H11   0.929124  0.827991  0.604403  0.136282
    H   H12   0.901652  0.781212  0.618112  0.164466
    H   H13   0.558232  0.032779  0.327377  0.097514
    H   H14   0.875439  0.819558  0.590974  0.183143
    H   H15   0.827340  0.070926  0.604743  0.134798
    H   H16   0.780330  0.098029  0.618411  0.165320
    H   H17   0.818485  0.124531  0.591280  0.180698
    H   H18   0.070551  0.173743  0.604899  0.134186
    H   H19   0.097616  0.220753  0.618619  0.166694
    H   H20   0.124197  0.182592  0.591549  0.179560
    H   H21   0.173742  0.070556  0.395104  0.134026
    H   H22   0.220753  0.097621  0.381384  0.166537
    H   H23   0.182593  0.124202  0.408455  0.179309
    H   H24   0.032852  0.442624  0.327457  0.096093
    H   H25   0.929387  0.173106  0.395446  0.137138
    H   H26   0.901960  0.219887  0.381682  0.167238
    H   H27   0.875660  0.181537  0.408758  0.182960
    H   H28   0.827989  0.929130  0.395595  0.136579
    H   H29   0.781211  0.901657  0.381886  0.164701
    H   H30   0.819558  0.875444  0.409023  0.183460
    H   H31   0.070931  0.827344  0.395261  0.134690
    H   H32   0.098036  0.780334  0.381594  0.165297
    H   H33   0.124535  0.818490  0.408725  0.180632
    H   H34   0.442620  0.032874  0.672541  0.096203
    H   H35   0.966049  0.442767  0.672601  0.096793
    H   H36   0.558102  0.966138  0.672677  0.097687
    H   H37   0.032808  0.558236  0.672620  0.097512
    H   H38   0.789864  0.463304  0.045903  0.213392
    H   H39   0.463399  0.209817  0.046048  0.213036
    H   H40   0.209903  0.536861  0.046082  0.213339
    H   H41   0.466875  0.057478  0.827328  0.095964
    H   H42   0.536777  0.789769  0.045946  0.213715
    H   H43   0.789862  0.536804  0.953929  0.213295
    H   H44   0.463313  0.789941  0.953953  0.212983
    H   H45   0.209907  0.463420  0.954076  0.213628
    H   H46   0.536872  0.209977  0.954060  0.213342
    H   H47   0.290342  0.962811  0.545878  0.213476
    H   H48   0.962734  0.710740  0.545808  0.213225
    H   H49   0.710415  0.036331  0.546110  0.213023
    H   H50   0.036142  0.290663  0.546190  0.213527
    H   H51   0.290662  0.036142  0.453812  0.213319
    H   H52   0.057488  0.533616  0.827359  0.096361
    H   H53   0.962815  0.290345  0.454121  0.213731
    H   H54   0.710739  0.962734  0.454191  0.213236
    H   H55   0.036335  0.710418  0.453892  0.212805
    H   H56   0.875792  0.429056  0.927079  0.159403
    H   H57   0.842588  0.428471  0.888685  0.171187
    H   H58   0.839430  0.471499  0.919388  0.176440
    H   H59   0.429192  0.123976  0.926915  0.158846
    H   H60   0.428625  0.157125  0.888488  0.170667
    H   H61   0.471679  0.160269  0.919169  0.175980
    H   H62   0.123999  0.571150  0.926978  0.158826
    H   H63   0.533596  0.941987  0.827454  0.096789
    H   H64   0.157140  0.571794  0.888548  0.170448
    H   H65   0.160304  0.528688  0.919177  0.175824
    H   H66   0.571195  0.875718  0.927140  0.159673
    H   H67   0.571830  0.842519  0.888744  0.171273
    H   H68   0.528748  0.839376  0.919396  0.176676
    H   H69   0.875707  0.571199  0.072845  0.159465
    H   H70   0.842495  0.571826  0.111232  0.171008
    H   H71   0.839374  0.528744  0.080579  0.176378
    H   H72   0.429052  0.875766  0.072909  0.159402
    H   H73   0.428477  0.842550  0.111295  0.171316
    H   H74   0.941966  0.533609  0.172544  0.096713
    H   H75   0.471505  0.839412  0.080590  0.176548
    H   H76   0.123965  0.429197  0.073101  0.159063
    H   H77   0.157101  0.428620  0.111536  0.170898
    H   H78   0.160266  0.471674  0.080857  0.176321
    H   H79   0.571146  0.123973  0.073035  0.158602
    H   H80   0.571798  0.157102  0.111473  0.170174
    H   H81   0.528693  0.160286  0.080846  0.175653
    H   H82   0.376483  0.928223  0.427033  0.158018
    H   H83   0.343292  0.927659  0.388632  0.170434
    H   H84   0.340138  0.970680  0.419342  0.176088
    H   H85   0.466844  0.941986  0.172572  0.097073
    H   H86   0.928359  0.624583  0.426892  0.158997
    H   H87   0.927815  0.657727  0.388462  0.170845
    H   H88   0.970843  0.660886  0.419165  0.176144
    H   H89   0.624693  0.070312  0.427021  0.158803
    H   H90   0.657848  0.070974  0.388599  0.170815
    H   H91   0.661012  0.027862  0.419221  0.175988
    H   H92   0.070392  0.376342  0.427166  0.158799
    H   H93   0.071058  0.343138  0.388774  0.170696
    H   H94   0.027951  0.340001  0.419402  0.176212
    H   H95   0.376339  0.070401  0.572827  0.158813
    H   H96   0.057457  0.466887  0.172677  0.096086
    H   H97   0.343134  0.071069  0.611219  0.170665
    H   H98   0.339998  0.027959  0.580594  0.176299
    H   H99   0.928236  0.376487  0.572976  0.158076
    H   H100  0.927676  0.343297  0.611377  0.170616
    H   H101  0.970693  0.340141  0.580663  0.175968
    H   H102  0.624579  0.928368  0.573116  0.158912
    H   H103  0.657722  0.927826  0.611547  0.170813
    H   H104  0.660883  0.970851  0.580840  0.176002
    H   H105  0.070325  0.624697  0.572972  0.158748
    H   H106  0.070991  0.657852  0.611393  0.170653
    H   H107  0.533605  0.057454  0.172644  0.096712
    H   H108  0.027875  0.661015  0.580775  0.176013
    H   H109  0.672757  0.429131  0.104466  0.136586
    H   H110  0.719672  0.401920  0.118212  0.166174
    H   H111  0.681482  0.375480  0.091073  0.181917
    H   H112  0.429264  0.326817  0.104772  0.136505
    H   H113  0.402046  0.279882  0.118460  0.165979
    H   H114  0.375608  0.318130  0.091377  0.182176
    H   H115  0.326970  0.570725  0.104817  0.135933
    H   H116  0.280092  0.598040  0.118508  0.166464
    H   H117  0.318400  0.624405  0.091435  0.181990
    H   H118  0.442763  0.966020  0.327404  0.097411
    H   H119  0.570652  0.672588  0.104521  0.135696
    H   H120  0.597974  0.719439  0.118267  0.166641
    H   H121  0.624329  0.681181  0.091138  0.181638
    H   H122  0.672783  0.570690  0.895210  0.136466
    H   H123  0.719657  0.598019  0.881528  0.166249
    H   H124  0.681349  0.624362  0.908617  0.182259
    H   H125  0.429178  0.672953  0.895218  0.136255
    H   H126  0.401968  0.719893  0.881531  0.166895
    H   H127  0.375519  0.681645  0.908605  0.182299
    H   H128  0.327006  0.429296  0.895491  0.135847
    N   N1    0.025410  0.526007  0.767268  -0.346366
    N   N2    0.025243  0.474542  0.267314  -0.346498
    N   N3    0.474619  0.973855  0.267267  -0.347519
    N   N4    0.973907  0.526096  0.267234  -0.347559
    N   N5    0.526089  0.973932  0.732767  -0.347990
    N   N6    0.025221  0.526182  0.732721  -0.347514
    N   N7    0.474535  0.025267  0.732685  -0.346768
    N   N8    0.973890  0.474625  0.732735  -0.347282
    N   N9    0.525949  0.973872  0.767314  -0.346590
    N   N10   0.973853  0.474674  0.767282  -0.346516
    N   N11   0.474620  0.025432  0.767233  -0.346955
    N   N12   0.025408  0.474629  0.232767  -0.347151
    N   N13   0.526000  0.025375  0.232732  -0.345949
    N   N14   0.973847  0.525958  0.232688  -0.346676
    N   N15   0.474667  0.973818  0.232720  -0.346066
    N   N16   0.526177  0.025187  0.267278  -0.347558
    O   O1    0.940363  0.534543  0.989897  -0.650450
    O   O2    0.033745  0.560038  0.489893  -0.650790
    O   O3    0.898550  0.755476  0.551141  -0.541779
    O   O4    0.793629  0.042790  0.549923  -0.413510
    O   O5    0.754624  0.100873  0.551423  -0.540791
    O   O6    0.042583  0.207449  0.550016  -0.405141
    O   O7    0.100665  0.246450  0.551636  -0.538149
    O   O8    0.207447  0.042585  0.449985  -0.405003
    O   O9    0.246449  0.100666  0.448368  -0.538014
    O   O10   0.957036  0.207078  0.450326  -0.399876
    O   O11   0.898647  0.245612  0.448649  -0.538965
    O   O12   0.794007  0.956949  0.450410  -0.408834
    O   O13   0.560066  0.964959  0.489975  -0.650140
    O   O14   0.755475  0.898552  0.448857  -0.541933
    O   O15   0.042792  0.793632  0.450079  -0.413595
    O   O16   0.100877  0.754628  0.448581  -0.540800
    O   O17   0.964954  0.441020  0.489951  -0.649941
    O   O18   0.441017  0.964953  0.510054  -0.650089
    O   O19   0.033717  0.441029  0.510131  -0.650651
    O   O20   0.560036  0.033743  0.510104  -0.650614
    O   O21   0.964964  0.560069  0.510030  -0.650283
    O   O22   0.011955  0.534510  0.950152  -0.647415
    O   O23   0.534530  0.987796  0.950169  -0.647376
    O   O24   0.987838  0.465803  0.950167  -0.647678
    O   O25   0.534568  0.059379  0.989928  -0.650015
    O   O26   0.465835  0.011946  0.950147  -0.647704
    O   O27   0.011939  0.465848  0.049856  -0.647657
    O   O28   0.534498  0.011932  0.049851  -0.647346
    O   O29   0.987790  0.534543  0.049829  -0.647474
    O   O30   0.465791  0.987815  0.049832  -0.647671
    O   O31   0.512642  0.033666  0.450151  -0.647096
    O   O32   0.033716  0.488420  0.450178  -0.647478
    O   O33   0.488523  0.964960  0.450164  -0.646855
    O   O34   0.965018  0.512561  0.450140  -0.647607
    O   O35   0.512558  0.965024  0.549865  -0.647351
    O   O36   0.059407  0.465800  0.989944  -0.650195
    O   O37   0.033677  0.512645  0.549846  -0.647038
    O   O38   0.488418  0.033721  0.549818  -0.647416
    O   O39   0.964971  0.488526  0.549840  -0.647228
    O   O40   0.501615  0.439063  0.970060  -0.618882
    O   O41   0.439064  0.501631  0.970072  -0.618617
    O   O42   0.501629  0.560779  0.969609  -0.599062
    O   O43   0.560780  0.501612  0.969598  -0.598992
    O   O44   0.498141  0.560692  0.029932  -0.618978
    O   O45   0.438992  0.498127  0.030394  -0.598923
    O   O46   0.498162  0.438975  0.030384  -0.599152
    O   O47   0.465767  0.940369  0.989910  -0.650457
    O   O48   0.560709  0.498142  0.029922  -0.619056
    O   O49   0.998926  0.939704  0.469752  -0.597268
    O   O50   0.939630  0.999017  0.469850  -0.599475
    O   O51   0.998942  0.061425  0.469922  -0.612892
    O   O52   0.061350  0.999000  0.469818  -0.610643
    O   O53   0.998998  0.061353  0.530182  -0.610702
    O   O54   0.939702  0.998929  0.530249  -0.597187
    O   O55   0.999014  0.939632  0.530150  -0.599459
    O   O56   0.061423  0.998944  0.530079  -0.612869
    O   O57   0.934080  0.467097  0.895945  -0.403262
    O   O58   0.940373  0.465780  0.010079  -0.650453
    O   O59   0.883149  0.496538  0.864282  -0.558637
    O   O60   0.467150  0.065595  0.895837  -0.402800
    O   O61   0.496605  0.116435  0.864081  -0.558641
    O   O62   0.065624  0.533224  0.895864  -0.404099
    O   O63   0.116467  0.503843  0.864064  -0.558675
    O   O64   0.533231  0.934027  0.895969  -0.403916
    O   O65   0.503826  0.883114  0.864262  -0.558810
    O   O66   0.934014  0.533247  0.104027  -0.403842
    O   O67   0.883099  0.503835  0.135727  -0.558755
    O   O68   0.467083  0.934052  0.104052  -0.403447
    O   O69   0.534530  0.940352  0.010091  -0.650658
    O   O70   0.496531  0.883119  0.135709  -0.558685
    O   O71   0.065582  0.467166  0.104168  -0.402647
    O   O72   0.116419  0.496613  0.135932  -0.558631
    O   O73   0.533210  0.065597  0.104140  -0.404148
    O   O74   0.503835  0.116438  0.135946  -0.558590
    O   O75   0.434794  0.966253  0.395920  -0.403009
    O   O76   0.383883  0.995717  0.364249  -0.558119
    O   O77   0.966350  0.566206  0.395834  -0.403924
    O   O78   0.995830  0.617052  0.364100  -0.558312
    O   O79   0.566340  0.032378  0.395886  -0.403003
    O   O80   0.059385  0.534580  0.010085  -0.649999
    O   O81   0.617202  0.003018  0.364094  -0.558531
    O   O82   0.032448  0.434647  0.395974  -0.403240
    O   O83   0.003079  0.383732  0.364245  -0.559147
    O   O84   0.434643  0.032462  0.604023  -0.403565
    O   O85   0.383730  0.003095  0.635754  -0.558956
    O   O86   0.966272  0.434797  0.604084  -0.402725
    O   O87   0.995739  0.383886  0.635753  -0.558300
    O   O88   0.566203  0.966364  0.604170  -0.403985
    O   O89   0.617049  0.995845  0.635903  -0.558590
    O   O90   0.032397  0.566343  0.604111  -0.402929
    O   O91   0.465788  0.059396  0.010070  -0.649990
    O   O92   0.003039  0.617205  0.635905  -0.558342
    O   O93   0.706625  0.457085  0.049649  -0.404004
    O   O94   0.745466  0.398895  0.051254  -0.539251
    O   O95   0.457197  0.293049  0.049905  -0.406735
    O   O96   0.398999  0.254218  0.051468  -0.539973
    O   O97   0.293148  0.542885  0.049940  -0.408459
    O   O98   0.254442  0.601166  0.051515  -0.540315
    O   O99   0.542797  0.706516  0.049694  -0.404742
    O   O100  0.601080  0.745216  0.051307  -0.539256
    O   O101  0.706616  0.542818  0.950071  -0.406915
    O   O102  0.441027  0.033712  0.489866  -0.650752
    O   O103  0.745315  0.601104  0.948521  -0.540414
    O   O104  0.457101  0.706710  0.950094  -0.408510
    O   O105  0.398908  0.745549  0.948525  -0.540312
    O   O106  0.293145  0.457213  0.950325  -0.404827
    O   O107  0.254313  0.399018  0.948702  -0.539137
    O   O108  0.542904  0.293229  0.950312  -0.403770
    O   O109  0.601182  0.254522  0.948702  -0.539376
    O   O110  0.207074  0.957034  0.549672  -0.399767
    O   O111  0.245608  0.898643  0.551347  -0.538949
    O   O112  0.956946  0.794008  0.549589  -0.408724
