# Generated by REPEAT Assigner based on pymatgen
data_DB0-m3_o35_o35_f0_pts.sym.132
_audit_creation_date              2022-05-24
_audit_creation_method            REPEAT_Assigner
_cell_length_a                    16.036064
_cell_length_b                    16.222036
_cell_length_c                    29.528364
_cell_angle_alpha                 90.526854
_cell_angle_beta                  90.318516
_cell_angle_gamma                 90.573217
_cell_volume                      7680.606490
_symmetry_space_group_name_H-M    P1
_symmetry_Int_Tables_number       1
loop_
    _symmetry_equiv_pos_site_id
    _symmetry_equiv_pos_as_xyz
    1  x,y,z
loop_
    _atom_site_type_symbol
    _atom_site_label
    _atom_site_fract_x
    _atom_site_fract_y
    _atom_site_fract_z
    _atom_type_partial_charge
    O   O1   0.594506  0.072153  0.547292  -0.662639
    O   O2   0.415209  0.928913  0.450182  -0.664570
    O   O3   0.589734  0.933330  0.449297  -0.686932
    O   O4   0.420123  0.067826  0.548707  -0.685553
    O   O5   0.593194  0.075380  0.452393  -0.674655
    O   O6   0.415638  0.925761  0.545024  -0.663265
    O   O7   0.590178  0.930038  0.546605  -0.677132
    O   O8   0.418511  0.071050  0.451413  -0.665614
    C   C1   0.619692  0.000577  0.562173  0.623593
    C   C2   0.389349  0.000475  0.435667  0.616832
    C   C3   0.618631  0.004827  0.435666  0.681156
    C   C4   0.390780  0.996288  0.562034  0.667865
    Zn  Zn1  0.505145  0.093900  0.500262  1.282537
    Zn  Zn2  0.504162  0.907212  0.497440  1.285870
    C   C5   0.224720  0.075650  0.356590  -0.127458
    C   C6   0.771858  0.923959  0.648020  -0.152615
    C   C7   0.287220  0.075037  0.388801  -0.203447
    C   C8   0.710829  0.925038  0.614965  -0.185454
    H   H1   0.305379  0.132415  0.405088  0.129496
    H   H2   0.685810  0.867095  0.602371  0.145367
    C   C9   0.779582  0.933181  0.353889  -0.101306
    C   C10  0.245833  0.065710  0.653015  -0.019549
    C   C11  0.718968  0.932707  0.386694  -0.236565
    C   C12  0.306880  0.066823  0.620358  -0.251586
    H   H3   0.701479  0.874712  0.401824  0.148940
    H   H4   0.338022  0.124468  0.612948  0.154442
    C   C13  0.079660  0.226119  0.141978  0.445469
    C   C14  0.928950  0.764081  0.849797  0.472022
    C   C15  0.079264  0.286854  0.109603  -0.281224
    C   C16  0.928701  0.701996  0.881568  -0.360817
    H   H5   0.137720  0.304719  0.094358  0.157248
    H   H6   0.870268  0.673104  0.890718  0.158810
    C   C17  0.926646  0.773631  0.143980  -0.111902
    C   C18  0.081556  0.225262  0.853967  -0.156655
    C   C19  0.926363  0.711672  0.111712  -0.192048
    C   C20  0.081341  0.287350  0.886160  -0.191579
    H   H7   0.867277  0.689282  0.098549  0.138254
    H   H8   0.140272  0.309990  0.899403  0.143059
    C   C21  0.075296  0.771970  0.146124  -0.120639
    C   C22  0.932934  0.226397  0.851481  -0.166433
    C   C23  0.075355  0.710029  0.113867  -0.188015
    C   C24  0.932371  0.288437  0.883705  -0.185955
    H   H9   0.134420  0.686351  0.102432  0.139911
    H   H10  0.873150  0.311990  0.894982  0.136017
    C   C25  0.931845  0.237060  0.148691  -0.057434
    C   C26  0.077132  0.776131  0.857551  -0.071201
    C   C27  0.931485  0.297806  0.116335  -0.246282
    C   C28  0.076661  0.714819  0.889471  -0.225952
    H   H11  0.872797  0.324957  0.106758  0.155815
    H   H12  0.135044  0.697184  0.904833  0.146529
    C   C29  0.237275  0.930320  0.346638  -0.194792
    C   C30  0.777729  0.070896  0.648006  -0.166029
    C   C31  0.299092  0.929197  0.379263  -0.180211
    C   C32  0.716679  0.072316  0.614989  -0.167547
    H   H13  0.327176  0.871040  0.387748  0.145009
    H   H14  0.696372  0.131168  0.602395  0.140834
    C   C33  0.767915  0.079565  0.347495  0.460622
    C   C34  0.225077  0.921233  0.640531  0.551548
    C   C35  0.706474  0.078786  0.380207  -0.375146
    C   C36  0.286318  0.922369  0.607913  -0.334177
    H   H15  0.677563  0.135996  0.390126  0.164977
    H   H16  0.300324  0.865728  0.590125  0.166859
    C   C37  0.001805  0.003474  0.247114  1.695869
    C   C38  0.006833  0.995449  0.750321  1.758588
    C   C39  0.200045  0.003492  0.335317  0.252636
    C   C40  0.805568  0.996811  0.664368  0.240718
    C   C41  0.324421  0.001638  0.400539  0.129415
    C   C42  0.683334  0.999295  0.598002  0.110342
    C   C43  0.804059  0.005990  0.334141  -0.025443
    C   C44  0.204427  0.993361  0.662958  -0.249860
    C   C45  0.682424  0.005575  0.400259  0.115464
    C   C46  0.327220  0.995111  0.597496  0.121754
    C   C47  0.005540  0.200591  0.161296  -0.076590
    C   C48  0.003873  0.800478  0.837419  -0.035588
    C   C49  0.005269  0.322685  0.096397  0.079517
    C   C50  0.002375  0.677641  0.901816  0.077459
    C   C51  0.001042  0.803942  0.161061  0.098187
    C   C52  0.007427  0.194621  0.836728  0.224533
    C   C53  0.000826  0.679860  0.096260  0.152478
    C   C54  0.006652  0.318996  0.901424  0.147214
    H   H17  0.194846  0.132878  0.348115  0.167199
    H   H18  0.794255  0.865817  0.660601  0.121476
    H   H19  0.808541  0.876084  0.343751  0.123938
    H   H20  0.229429  0.122131  0.670404  0.112827
    H   H21  0.868408  0.799217  0.155471  0.118740
    H   H22  0.139993  0.199908  0.842619  0.131403
    H   H23  0.133671  0.796241  0.159292  0.120343
    H   H24  0.874773  0.202030  0.838119  0.146716
    H   H25  0.873875  0.217007  0.163727  0.114046
    H   H26  0.135342  0.805378  0.848255  0.110548
    H   H27  0.217342  0.873540  0.330273  0.138491
    H   H28  0.804785  0.128020  0.660561  0.121064
    C   C55  0.075099  0.003975  0.276801  -0.455810
    C   C56  0.932322  0.995105  0.721608  -0.526004
    C   C57  0.002823  0.076205  0.218273  -0.541585
    C   C58  0.007025  0.922754  0.779142  -0.542918
    C   C59  0.927636  0.003545  0.275583  -0.498157
    C   C60  0.079925  0.995321  0.721002  -0.781335
    C   C61  0.001621  0.930058  0.218062  -0.732812
    C   C62  0.007619  0.068752  0.779505  -0.496225
    C   C63  0.133087  0.003987  0.302908  -0.084372
    C   C64  0.873297  0.995563  0.696236  -0.030081
    C   C65  0.001346  0.871567  0.192659  0.150541
    C   C66  0.007673  0.127097  0.805031  -0.055157
    C   C67  0.003882  0.133938  0.192929  0.097333
    C   C68  0.006292  0.865553  0.804832  0.100891
    C   C69  0.869562  0.004216  0.301237  0.048785
    C   C70  0.137738  0.994648  0.695162  0.292109
    O   O9   0.072880  0.587184  0.047274  -0.671672
    O   O10  0.934271  0.411706  0.950444  -0.669618
    O   O11  0.933475  0.413495  0.046524  -0.685853
    O   O12  0.073620  0.585963  0.951259  -0.691043
    O   O13  0.077235  0.412411  0.045901  -0.670137
    O   O14  0.929859  0.586560  0.951569  -0.670572
    O   O15  0.929130  0.588247  0.045162  -0.653189
    O   O16  0.077996  0.411124  0.952313  -0.656292
    C   C71  0.000899  0.615225  0.061236  0.590976
    C   C72  0.006281  0.383844  0.936367  0.596417
    C   C73  0.005283  0.385949  0.061245  0.694927
    C   C74  0.001857  0.613395  0.936441  0.699882
    Zn  Zn3  0.098017  0.501016  0.999299  1.286362
    Zn  Zn4  0.909114  0.498132  0.998295  1.278810
    N   N1   0.155582  0.187652  0.153042  -0.711825
    C   C75  0.191217  0.213020  0.194961  0.471860
    C   C76  0.239778  0.158214  0.218760  -0.320883
    C   C77  0.276829  0.181699  0.259114  -0.022572
    C   C78  0.264968  0.259852  0.276287  -0.226692
    C   C79  0.216980  0.314993  0.252710  -0.017876
    C   C80  0.180619  0.292208  0.211996  -0.262343
    H   H29  0.152968  0.124491  0.149678  0.323888
    H   H30  0.249668  0.096580  0.205785  0.138541
    H   H31  0.315251  0.138645  0.277304  0.093949
    H   H32  0.293678  0.278036  0.308092  0.106808
    H   H33  0.208280  0.376587  0.266006  0.083418
    H   H34  0.145053  0.337877  0.194091  0.116546
    N   N2   0.853354  0.786595  0.828490  -0.713292
    C   C81  0.827375  0.868934  0.835434  0.433089
    C   C82  0.776044  0.904206  0.803511  -0.226473
    C   C83  0.750810  0.984706  0.808488  -0.068713
    C   C84  0.775970  0.030208  0.845804  -0.189980
    C   C85  0.825988  0.995022  0.878255  -0.014248
    C   C86  0.851514  0.914498  0.873377  -0.313392
    H   H35  0.805370  0.744956  0.832971  0.328654
    H   H36  0.756717  0.868924  0.773976  0.124658
    H   H37  0.711448  0.012174  0.783033  0.098117
    H   H38  0.756065  0.093303  0.849768  0.110447
    H   H39  0.845128  0.030615  0.907711  0.093318
    H   H40  0.889560  0.888544  0.899870  0.130802
    N   N3   0.788852  0.154488  0.325875  -0.682310
    C   C87  0.872654  0.181968  0.330227  0.411054
    C   C88  0.905543  0.231478  0.296874  -0.234322
    C   C89  0.987298  0.258170  0.299357  -0.052960
    C   C90  0.036427  0.236373  0.335618  -0.193938
    C   C91  0.003653  0.188188  0.369487  -0.038803
    C   C92  0.921894  0.161153  0.367074  -0.274585
    H   H41  0.747223  0.201179  0.331726  0.318615
    H   H42  0.867360  0.248205  0.268177  0.125163
    H   H43  0.012889  0.296031  0.272787  0.093872
    H   H44  0.100477  0.257495  0.337632  0.113503
    H   H45  0.042135  0.171648  0.398100  0.078902
    H   H46  0.897800  0.124527  0.394534  0.127728
    N   N4   0.180512  0.847261  0.648393  -0.763935
    C   C93  0.203111  0.806571  0.688796  0.515445
    C   C94  0.142692  0.764261  0.712696  -0.294194
    C   C95  0.163400  0.722934  0.751663  -0.024060
    C   C96  0.244527  0.723826  0.767173  -0.177417
    C   C97  0.305214  0.765309  0.743370  -0.095244
    C   C98  0.284967  0.806265  0.704156  -0.309216
    H   H47  0.116994  0.853990  0.645426  0.335290
    H   H48  0.078677  0.762954  0.701026  0.117838
    H   H49  0.115859  0.689734  0.770053  0.086728
    H   H50  0.260635  0.691560  0.797820  0.104193
    H   H51  0.369060  0.765271  0.755296  0.109188
    H   H52  0.334478  0.836576  0.685851  0.143262
