# Generated by REPEAT Assigner based on pymatgen
data_DB0-m5_o23_o25_f0_bcu.sym.151_sqe
_audit_creation_date              2022-05-24
_audit_creation_method            REPEAT_Assigner
_cell_length_a                    17.261631
_cell_length_b                    17.285578
_cell_length_c                    17.253809
_cell_angle_alpha                 91.082295
_cell_angle_beta                  119.512638
_cell_angle_gamma                 119.302507
_cell_volume                      3670.495988
_symmetry_space_group_name_H-M    P1
_symmetry_Int_Tables_number       1
loop_
    _symmetry_equiv_pos_site_id
    _symmetry_equiv_pos_as_xyz
    1  x,y,z
loop_
    _atom_site_type_symbol
    _atom_site_label
    _atom_site_fract_x
    _atom_site_fract_y
    _atom_site_fract_z
    _atom_type_partial_charge
    O   O1   0.044606  0.550556  0.871709  -0.541903
    O   O2   0.215077  0.649957  0.924262  -0.599584
    C   C1   0.112660  0.599387  0.850705  0.572998
    O   O3   0.951521  0.329731  0.999568  -0.507459
    O   O4   0.781236  0.211052  0.927724  -0.573727
    C   C2   0.883844  0.240569  0.980245  0.507736
    O   O5   0.172757  0.504491  0.047100  -0.462184
    O   O6   0.220576  0.433859  0.146775  -0.551286
    C   C3   0.243243  0.485802  0.096414  0.442827
    O   O7   0.823437  0.375902  0.824171  -0.470431
    O   O8   0.775839  0.427273  0.705213  -0.512202
    C   C4   0.753337  0.354418  0.734672  0.432151
    O   O9   0.950275  0.448708  0.118471  -0.504862
    O   O10  0.779832  0.349265  0.065895  -0.584160
    C   C5   0.882232  0.399850  0.139478  0.537645
    O   O11  0.043433  0.669535  0.990644  -0.495921
    O   O12  0.213695  0.788179  0.062463  -0.577840
    C   C6   0.111104  0.758683  0.009956  0.518500
    O   O13  0.822259  0.494885  0.943087  -0.485602
    O   O14  0.774462  0.565496  0.843391  -0.572590
    C   C7   0.751772  0.513562  0.893747  0.473803
    O   O15  0.171535  0.623408  0.166024  -0.511637
    O   O16  0.219158  0.572050  0.284946  -0.582529
    C   C8   0.241651  0.644904  0.255506  0.534547
    Cd  Cd1  0.194784  0.646018  0.046948  1.113271
    Cd  Cd2  0.800151  0.353215  0.943224  1.110320
    Cd  Cd3  0.092963  0.449116  0.142019  1.109582
    Cd  Cd4  0.902049  0.550189  0.848152  1.111678
    C   C9   0.435721  0.457952  0.902095  -0.250916
    C   C10  0.418964  0.411250  0.971399  -0.129334
    H   H1   0.352120  0.337854  0.952670  0.065397
    H   H2   0.386205  0.423368  0.824276  0.080459
    H   H3   0.576645  0.416401  0.071600  0.096350
    C   C11  0.314832  0.492682  0.072939  0.068434
    C   C12  0.680151  0.506667  0.917184  0.069401
    C   C13  0.455070  0.545110  0.952700  -0.162833
    C   C14  0.439532  0.498459  0.021490  0.798074
    C   C15  0.575971  0.588055  0.018688  -0.197530
    C   C16  0.555405  0.500847  0.968596  0.868117
    C   C17  0.559215  0.541352  0.087991  -0.162784
    C   C18  0.539866  0.454194  0.037386  -0.250293
    C   C19  0.372254  0.496193  0.050691  -0.521421
    C   C20  0.622703  0.503135  0.939410  -0.537564
    H   H4   0.608731  0.575935  0.165811  0.054140
    H   H5   0.642814  0.661452  0.037421  0.080706
    H   H6   0.418290  0.582904  0.918485  0.072036
    C   C21  0.934274  0.420543  0.529001  0.031901
    C   C22  0.120602  0.540372  0.581858  -0.043162
    C   C23  0.088283  0.513159  0.481303  -0.279603
    H   H7   0.910349  0.334058  0.417059  0.053721
    H   H8   0.964930  0.380297  0.566981  0.011063
    H   H9   0.190941  0.615352  0.621494  0.009822
    H   H10  0.144721  0.495896  0.618042  0.035169
    H   H11  0.101440  0.458469  0.470047  0.049115
    H   H12  0.139273  0.576127  0.470315  0.081693
    C   C24  0.912455  0.423511  0.234693  -0.025943
    C   C25  0.024742  0.525397  0.578646  0.578703
    C   C26  0.899787  0.390679  0.428139  -0.284408
    C   C27  0.969323  0.474780  0.411111  0.722769
    C   C28  0.951920  0.550781  0.423541  0.053759
    C   C29  0.993200  0.586252  0.526147  -0.374465
    C   C30  0.938046  0.445745  0.314465  -0.425892
    C   C31  0.056445  0.554057  0.675529  -0.394548
    C   C32  0.082308  0.575997  0.755438  -0.020830
    H   H13  0.069468  0.657571  0.558365  0.106885
    H   H14  0.865065  0.522430  0.373305  -0.007390
    H   H15  0.864324  0.403173  0.530341  0.014854
    H   H16  0.813065  0.363298  0.377872  0.052449
    H   H17  0.999125  0.610500  0.406938  0.005454
    C   C33  0.489803  0.985109  0.398125  -0.305991
    C   C34  0.528290  0.927521  0.533891  -0.319086
    C   C35  0.602737  0.029300  0.598593  -0.003278
    H   H18  0.636861  0.125502  0.480916  0.018753
    H   H19  0.545413  0.973912  0.393094  0.046692
    H   H20  0.491658  0.880938  0.566362  0.058829
    H   H21  0.575755  0.907783  0.523816  0.070188
    H   H22  0.684139  0.061950  0.612954  0.014392
    H   H23  0.610641  0.031852  0.666547  0.025315
    C   C36  0.681590  0.259279  0.670063  0.023105
    C   C37  0.439295  0.916384  0.439088  0.759490
    C   C38  0.552900  0.085122  0.462027  -0.027257
    C   C39  0.555730  0.082927  0.551140  0.670732
    C   C40  0.441435  0.034144  0.525376  -0.342937
    C   C41  0.369913  0.936735  0.452686  0.035665
    C   C42  0.623769  0.179535  0.616185  -0.465942
    C   C43  0.371241  0.819781  0.374023  -0.453276
    C   C44  0.313405  0.740041  0.320127  -0.016860
    H   H24  0.308379  0.933639  0.384332  -0.005729
    H   H25  0.327840  0.883399  0.477612  0.005048
    H   H26  0.408727  0.075817  0.495398  0.086494
    H   H27  0.425256  0.973626  0.326329  0.084166
    H   H28  0.512988  0.119659  0.424340  0.007403
    H   H29  0.442509  0.027799  0.589682  0.058048
    C   C45  0.914458  0.903512  0.904736  -0.396898
    C   C46  0.108520  0.037381  0.003674  -0.329259
    C   C47  0.072464  0.102873  0.994624  -0.007001
    H   H30  0.858438  0.987677  0.841407  0.004360
    H   H31  0.920831  0.898715  0.844173  0.082682
    H   H32  0.187445  0.068807  0.073131  0.066755
    H   H33  0.118324  0.027511  0.946165  0.067295
    H   H34  0.054785  0.117894  0.927868  0.020636
    H   H35  0.138290  0.170121  0.055440  0.037231
    C   C48  0.914721  0.176116  0.987420  0.004112
    C   C49  0.023917  0.942968  0.996666  0.773006
    C   C50  0.879296  0.968132  0.906181  0.048519
    C   C51  0.971032  0.056295  0.993440  0.628840
    C   C52  0.993211  0.029609  0.081518  -0.316399
    C   C53  0.016903  0.956289  0.079584  -0.019929
    C   C54  0.940295  0.121992  0.991064  -0.457472
    C   C55  0.054649  0.877266  0.999061  -0.450150
    C   C56  0.080228  0.823141  0.002741  -0.009383
    H   H36  0.950953  0.888333  0.071895  0.019078
    H   H37  0.094920  0.980136  0.146881  0.023470
    H   H38  0.921361  0.000217  0.083786  0.074278
    H   H39  0.853382  0.832047  0.896578  0.104013
    H   H40  0.806743  0.930990  0.907810  -0.006786
    H   H41  0.064195  0.093118  0.145481  0.065620
    C   C57  0.917686  0.597544  0.537428  0.143652
    C   C58  0.807668  0.526787  0.489261  -0.073113
    C   C59  0.742017  0.540824  0.501898  0.025070
    Cl  Cl1  0.603405  0.450796  0.440635  -0.101461
    C   C60  0.784953  0.625479  0.562184  -0.016169
    C   C61  0.893697  0.696477  0.609556  -0.251619
    C   C62  0.959620  0.682807  0.597057  -0.137967
    H   H42  0.770866  0.460137  0.440295  0.084601
    H   H43  0.733322  0.636306  0.571982  0.091149
    H   H44  0.927535  0.763118  0.656745  0.151490
    H   H45  0.044864  0.739534  0.635501  0.111094
