# Generated by REPEAT Assigner based on pymatgen
data_DB0-m3_o105_o4_f0_fsc.sym.47
_audit_creation_date              2022-05-24
_audit_creation_method            REPEAT_Assigner
_cell_length_a                    9.336658
_cell_length_b                    10.854612
_cell_length_c                    15.762447
_cell_angle_alpha                 90.000000
_cell_angle_beta                  96.088681
_cell_angle_gamma                 90.000000
_cell_volume                      1588.446310
_symmetry_space_group_name_H-M    P1
_symmetry_Int_Tables_number       1
loop_
    _symmetry_equiv_pos_site_id
    _symmetry_equiv_pos_as_xyz
    1  x,y,z
loop_
    _atom_site_type_symbol
    _atom_site_label
    _atom_site_fract_x
    _atom_site_fract_y
    _atom_site_fract_z
    _atom_type_partial_charge
    C   C1   0.004467  0.055142  0.922745  0.014513
    C   C2   0.995533  0.055142  0.077255  0.014519
    C   C3   0.000000  0.116337  0.000000  -0.168406
    H   H1   0.000000  0.213830  0.000000  0.105243
    C   C4   0.981215  0.928831  0.075826  0.030685
    C   C5   0.018785  0.928831  0.924174  0.030698
    C   C6   0.000000  0.867181  0.000000  -0.190197
    H   H2   0.000000  0.769425  0.000000  0.124216
    C   C7   0.028718  0.057721  0.771156  0.128145
    C   C8   0.971282  0.057721  0.228844  0.128153
    C   C9   0.048262  0.126497  0.697959  -0.300125
    C   C10  0.951738  0.126497  0.302041  -0.300119
    H   H3   0.080211  0.085783  0.640591  0.139247
    H   H4   0.919789  0.085783  0.359409  0.139246
    C   C11  0.027017  0.252114  0.696729  0.069222
    C   C12  0.972983  0.252114  0.303271  0.069204
    C   C13  0.978594  0.308102  0.765769  -0.059125
    C   C14  0.021406  0.308102  0.234231  -0.059105
    H   H5   0.946803  0.403723  0.762123  0.086663
    H   H6   0.053197  0.403723  0.237877  0.086656
    C   C15  0.968669  0.244227  0.839497  -0.177626
    C   C16  0.031331  0.244227  0.160503  -0.177635
    H   H7   0.924621  0.295684  0.888881  0.108947
    H   H8   0.075379  0.295684  0.111119  0.108948
    C   C17  0.003139  0.119460  0.845461  0.034747
    C   C18  0.996861  0.119460  0.154539  0.034743
    C   C19  0.072131  0.740167  0.848753  -0.216931
    C   C20  0.927869  0.740167  0.151247  -0.216948
    H   H9   0.099695  0.687170  0.905773  0.124908
    H   H10  0.900305  0.687170  0.094226  0.124911
    C   C21  0.073343  0.676643  0.773751  -0.060297
    C   C22  0.926657  0.676643  0.226249  -0.060285
    H   H11  0.094902  0.578950  0.775153  0.080806
    H   H12  0.905098  0.578950  0.224847  0.080806
    C   C23  0.041369  0.735287  0.697392  -0.050035
    C   C24  0.958631  0.735287  0.302608  -0.050054
    C   C25  0.028572  0.861579  0.695683  -0.128029
    C   C26  0.971428  0.861579  0.304317  -0.128003
    C   C27  0.035575  0.929121  0.771619  0.017975
    C   C28  0.964425  0.929121  0.228381  0.017949
    C   C29  0.040978  0.865761  0.848828  0.063403
    C   C30  0.959022  0.865761  0.151172  0.063429
    H   H13  0.005452  0.903225  0.633757  0.105873
    H   H14  0.994548  0.903225  0.366243  0.105867
    O   O1   0.898472  0.620912  0.590164  -0.670946
    O   O2   0.101527  0.620912  0.409836  -0.670939
    O   O3   0.145014  0.620283  0.591808  -0.640225
    O   O4   0.854986  0.620283  0.408191  -0.640220
    C   C31  0.026923  0.660959  0.619629  0.721480
    C   C32  0.973077  0.660959  0.380371  0.721478
    O   O5   0.142057  0.364847  0.590909  -0.578334
    O   O6   0.857943  0.364847  0.409091  -0.578335
    O   O7   0.893679  0.365288  0.589783  -0.487903
    O   O8   0.106321  0.365288  0.410217  -0.487911
    C   C33  0.021704  0.325002  0.618750  0.531094
    C   C34  0.978296  0.325002  0.381250  0.531103
    Zn  Zn1  0.160385  0.493319  0.500062  0.971776
    Zn  Zn2  0.839615  0.493319  0.499938  0.971764
    C   C35  0.571346  0.391608  0.503888  0.178282
    C   C36  0.428654  0.391608  0.496112  0.178298
    N   N1   0.651442  0.494101  0.502599  -0.125543
    N   N2   0.348558  0.494101  0.497401  -0.125565
    C   C37  0.575098  0.600941  0.501616  0.137276
    C   C38  0.424902  0.600941  0.498384  0.137298
    C   C39  0.415514  0.255220  0.494786  -0.098854
    C   C40  0.584486  0.255220  0.505214  -0.098878
    H   H15  0.367258  0.217239  0.550489  0.132443
    H   H16  0.632742  0.217239  0.449511  0.132452
    S   S1   0.342274  0.190527  0.392090  -0.090993
    C   C41  0.398549  0.313092  0.323638  -0.128015
    H   H17  0.374664  0.282798  0.256433  0.108476
    H   H18  0.516043  0.329690  0.334577  -0.001316
    H   H19  0.337223  0.399091  0.331102  0.056692
    S   S2   0.657726  0.190527  0.607910  -0.090992
    C   C42  0.601451  0.313092  0.676362  -0.128000
    H   H20  0.625336  0.282798  0.743567  0.108473
    H   H21  0.483957  0.329690  0.665422  -0.001321
    H   H22  0.662777  0.399091  0.668898  0.056687
    S   S3   0.661290  0.748513  0.505555  -0.021950
    C   C43  0.633723  0.771783  0.616886  0.150252
    H   H23  0.735723  0.802311  0.652968  0.025201
    H   H24  0.600013  0.683951  0.644701  -0.014675
    H   H25  0.550033  0.842978  0.622276  -0.102613
    S   S4   0.338710  0.748513  0.494444  -0.021962
    C   C44  0.366277  0.771783  0.383114  0.150265
    H   H26  0.264277  0.802311  0.347032  0.025197
    H   H27  0.399987  0.683951  0.355299  -0.014679
    H   H28  0.449967  0.842978  0.377724  -0.102617
