# Generated by REPEAT Assigner based on pymatgen
data_DB0-m3_o152_o13_f0_fsc.sym.63_sqe
_audit_creation_date              2022-05-24
_audit_creation_method            REPEAT_Assigner
_cell_length_a                    8.515643
_cell_length_b                    11.366214
_cell_length_c                    13.039567
_cell_angle_alpha                 96.679971
_cell_angle_beta                  86.476476
_cell_angle_gamma                 93.628456
_cell_volume                      1249.162466
_symmetry_space_group_name_H-M    P1
_symmetry_Int_Tables_number       1
loop_
    _symmetry_equiv_pos_site_id
    _symmetry_equiv_pos_as_xyz
    1  x,y,z
loop_
    _atom_site_type_symbol
    _atom_site_label
    _atom_site_fract_x
    _atom_site_fract_y
    _atom_site_fract_z
    _atom_type_partial_charge
    C   C1   0.854854  0.989554  0.292781  -0.089677
    C   C2   0.109161  0.007002  0.711706  -0.121668
    C   C3   0.982357  0.974050  0.347312  -0.148259
    C   C4   0.981633  0.022526  0.657210  -0.160917
    C   C5   0.131699  0.985305  0.303761  -0.037095
    C   C6   0.832315  0.011235  0.700782  -0.003702
    C   C7   0.155447  0.997565  0.200605  -0.334925
    C   C8   0.808607  0.998927  0.803924  -0.316279
    C   C9   0.027358  0.995960  0.138957  0.209695
    C   C10  0.936717  0.000572  0.865553  0.186475
    C   C11  0.876666  0.998437  0.187281  0.072759
    C   C12  0.087396  0.998115  0.817212  0.088393
    C   C13  0.047270  0.994700  0.031110  -0.018657
    C   C14  0.916821  0.001844  0.973397  0.033613
    C   C15  0.769361  0.013253  0.025116  -0.197776
    C   C16  0.194734  0.983323  0.979382  -0.154019
    C   C17  0.749645  0.009189  0.130003  -0.205170
    C   C18  0.214434  0.987388  0.874487  -0.246760
    H   H1   0.964120  0.958728  0.426737  0.143354
    H   H2   0.999828  0.037869  0.577789  0.146374
    H   H3   0.276064  0.009423  0.172893  0.135297
    H   H4   0.688001  0.987004  0.831641  0.131128
    H   H5   0.299615  0.969600  0.016926  0.121680
    H   H6   0.664495  0.027024  0.987578  0.133699
    H   H7   0.331411  0.981482  0.837877  0.115661
    H   H8   0.632665  0.015124  0.166605  0.117154
    O   O1   0.643819  0.902244  0.595532  -0.608621
    O   O2   0.320139  0.094363  0.409052  -0.736047
    O   O3   0.652240  0.106822  0.611417  -0.696867
    O   O4   0.311843  0.889658  0.393065  -0.734941
    C   C19  0.699908  0.006639  0.635043  0.762478
    C   C20  0.264087  0.989906  0.369532  0.912354
    O   O5   0.660088  0.098294  0.397423  -0.649402
    O   O6   0.303802  0.898166  0.607000  -0.758565
    O   O7   0.640555  0.893888  0.381734  -0.693786
    O   O8   0.323458  0.102734  0.622773  -0.764048
    C   C21  0.703122  0.994274  0.353033  0.762230
    C   C22  0.260847  0.002265  0.651404  0.931702
    Zn  Zn1  0.490486  0.130538  0.510425  1.024801
    Zn  Zn2  0.473582  0.866017  0.494094  1.042855
    N   N1   0.465582  0.710584  0.482200  0.136068
    N   N2   0.498835  0.285984  0.522266  0.180217
    C   C23  0.513239  0.466557  0.633021  0.333910
    C   C24  0.467843  0.531161  0.369838  0.316284
    C   C25  0.511815  0.344463  0.617568  -0.288526
    C   C26  0.458130  0.652531  0.386375  -0.247682
    C   C27  0.484001  0.345430  0.440285  -0.149793
    C   C28  0.484086  0.651456  0.563848  -0.123347
    C   C29  0.483538  0.468251  0.452885  0.051822
    C   C30  0.494923  0.529328  0.550257  0.035601
    H   H9   0.488674  0.700902  0.639576  0.151418
    H   H10  0.468091  0.295492  0.365658  0.171013
    H   H11  0.449594  0.701870  0.321130  0.165191
    H   H12  0.521670  0.295365  0.682797  0.181800
    N   N3   0.532117  0.525277  0.733288  -0.644564
    C   C31  0.670971  0.588470  0.743265  0.800550
    O   O9   0.749727  0.612773  0.666501  -0.533596
    C   C32  0.730658  0.627146  0.847778  -0.591734
    H   H13  0.497864  0.477845  0.794237  0.338607
    H   H14  0.644430  0.600112  0.909100  0.117977
    H   H15  0.750029  0.725119  0.857782  0.188550
    H   H16  0.843907  0.586341  0.854613  0.166355
    N   N4   0.464269  0.473529  0.268100  -0.627404
    C   C33  0.602687  0.429022  0.231748  0.811998
    O   O10  0.703748  0.416875  0.291369  -0.538380
    C   C34  0.634495  0.396505  0.118523  -0.631284
    H   H17  0.408040  0.514835  0.215760  0.335228
    H   H18  0.530414  0.410685  0.075323  0.133405
    H   H19  0.661694  0.301675  0.104094  0.189159
    H   H20  0.736996  0.451868  0.091133  0.176638
