# Generated by REPEAT Assigner based on pymatgen
data_DB0-m2_o7_o23_f0_pcu.sym.68_sqe
_audit_creation_date              2022-05-24
_audit_creation_method            REPEAT_Assigner
_cell_length_a                    17.678047
_cell_length_b                    16.227605
_cell_length_c                    15.860370
_cell_angle_alpha                 90.000000
_cell_angle_beta                  89.999785
_cell_angle_gamma                 90.000000
_cell_volume                      4549.901913
_symmetry_space_group_name_H-M    P1
_symmetry_Int_Tables_number       1
loop_
    _symmetry_equiv_pos_site_id
    _symmetry_equiv_pos_as_xyz
    1  x,y,z
loop_
    _atom_site_type_symbol
    _atom_site_label
    _atom_site_fract_x
    _atom_site_fract_y
    _atom_site_fract_z
    _atom_type_partial_charge
    O   O1   0.387188  0.571121  0.497453  -0.573987
    O   O2   0.387410  0.429666  0.503428  -0.568228
    C   C1   0.351730  0.500366  0.500361  0.583624
    O   O3   0.499868  0.571408  0.378243  -0.635720
    O   O4   0.500147  0.429617  0.378315  -0.647222
    C   C2   0.497953  0.500522  0.339060  0.883211
    Cu  Cu1  0.496998  0.582817  0.500706  0.870330
    Cu  Cu2  0.497528  0.417902  0.500768  0.866070
    O   O5   0.607034  0.571224  0.498325  -0.562897
    O   O6   0.607250  0.429504  0.504061  -0.571704
    O   O7   0.499051  0.571047  0.623280  -0.657124
    O   O8   0.499519  0.429405  0.623370  -0.643996
    C   C3   0.642586  0.500344  0.501274  0.663006
    C   C4   0.497058  0.500212  0.662639  0.920699
    C   C5   0.469472  0.579666  0.049411  0.054141
    C   C6   0.455063  0.431668  0.048195  0.056411
    C   C7   0.456979  0.427116  0.953241  -0.188243
    C   C8   0.466216  0.578073  0.953796  -0.211186
    H   H1   0.406105  0.579611  0.933923  0.034815
    H   H2   0.398375  0.430478  0.928644  0.038958
    H   H3   0.410918  0.583251  0.074157  0.019216
    H   H4   0.396244  0.446402  0.067097  0.000642
    H   H5   0.465800  0.370701  0.076069  0.000510
    H   H6   0.498329  0.636044  0.071886  -0.042375
    H   H7   0.482703  0.368245  0.932496  0.013522
    H   H8   0.494814  0.632534  0.926619  0.036979
    C   C9   0.498554  0.500177  0.753036  -0.293567
    C   C10  0.506923  0.500657  0.080496  0.159113
    C   C11  0.502077  0.499353  0.921062  0.630297
    C   C12  0.583637  0.490222  0.949989  -0.312054
    C   C13  0.590411  0.499714  0.046531  0.585564
    C   C14  0.500028  0.499711  0.828917  -0.251483
    C   C15  0.503646  0.500796  0.172734  -0.267460
    C   C16  0.500600  0.500594  0.248682  -0.228335
    H   H9   0.619908  0.530692  0.911517  0.050046
    H   H10  0.601265  0.427158  0.932170  0.054429
    C   C17  0.842799  0.573798  0.498459  -0.227757
    C   C18  0.842926  0.427005  0.504328  -0.224064
    H   H11  0.873376  0.631486  0.496102  0.139020
    H   H12  0.873697  0.369507  0.506572  0.138126
    C   C19  0.764862  0.574025  0.498648  -0.048986
    C   C20  0.764912  0.426803  0.504550  -0.057059
    H   H13  0.735433  0.632295  0.496599  0.098974
    H   H14  0.735624  0.368369  0.507155  0.102832
    C   C21  0.725483  0.500362  0.501518  -0.080799
    C   C22  0.881872  0.500411  0.501280  0.307798
    C   C23  0.962985  0.500358  0.501136  -0.172611
    C   C24  0.031127  0.500440  0.500912  -0.174499
    C   C25  0.151238  0.573742  0.497376  -0.222578
    C   C26  0.151258  0.426858  0.503455  -0.222734
    H   H15  0.120554  0.631272  0.494660  0.139837
    H   H16  0.120756  0.369159  0.505519  0.139683
    C   C27  0.229265  0.573817  0.497259  -0.089648
    C   C28  0.229245  0.426680  0.503423  -0.088365
    H   H17  0.258641  0.632217  0.494916  0.115600
    H   H18  0.258636  0.368400  0.505933  0.114598
    C   C29  0.268766  0.500282  0.500315  -0.001925
    C   C30  0.112294  0.500326  0.500607  0.310161
    C   C31  0.543554  0.832432  0.554253  -0.266649
    C   C32  0.544094  0.168258  0.554082  -0.263436
    H   H19  0.581457  0.865483  0.595796  0.147529
    H   H20  0.581781  0.134961  0.595650  0.146796
    C   C33  0.543589  0.747475  0.553250  0.031302
    C   C34  0.544616  0.253304  0.552412  0.021062
    H   H21  0.582058  0.714211  0.593996  0.122697
    H   H22  0.583905  0.286472  0.591879  0.131051
    N   N1   0.497050  0.706058  0.500991  -0.058558
    N   N2   0.497276  0.294745  0.501055  -0.057089
    C   C35  0.448214  0.746777  0.450798  0.037975
    C   C36  0.447687  0.253994  0.451804  0.045757
    H   H23  0.410666  0.712973  0.409777  0.118929
    H   H24  0.409736  0.287945  0.411029  0.111599
    C   C37  0.446786  0.831716  0.450393  -0.268609
    C   C38  0.445792  0.169136  0.452010  -0.271463
    H   H25  0.408014  0.864204  0.409661  0.148535
    H   H26  0.405691  0.136797  0.412674  0.149375
    C   C39  0.494952  0.874902  0.502234  0.358504
    C   C40  0.494582  0.125907  0.503230  0.354504
    C   C41  0.494135  0.963303  0.502599  -0.171913
    C   C42  0.494047  0.037531  0.503109  -0.165144
    N   N3   0.625605  0.578182  0.072335  -0.010374
    C   C43  0.655194  0.638529  0.013785  -0.244777
    C   C44  0.662363  0.582863  0.153792  -0.166793
    H   H27  0.610627  0.661748  0.971306  0.058575
    H   H28  0.703403  0.613412  0.977438  0.045538
    H   H29  0.676653  0.692257  0.049766  0.094879
    H   H30  0.649672  0.529587  0.194830  0.057203
    H   H31  0.643142  0.639305  0.186913  0.041441
    H   H32  0.724510  0.586234  0.144864  0.024204
    N   N4   0.637840  0.432539  0.079391  -0.123670
    C   C45  0.714027  0.427919  0.046478  -0.171963
    C   C46  0.608411  0.351344  0.096420  -0.316480
    H   H33  0.728763  0.482315  0.008291  0.051579
    H   H34  0.719976  0.372706  0.005751  0.044398
    H   H35  0.754487  0.423357  0.099709  0.059815
    H   H36  0.570018  0.352396  0.151476  0.102680
    H   H37  0.655797  0.310219  0.114522  0.121867
    H   H38  0.581791  0.324804  0.039344  0.067516
