# Generated by REPEAT Assigner based on pymatgen
data_DB0-m2_o2_o13_f0_pcu.sym.34_sqe
_audit_creation_date              2022-05-24
_audit_creation_method            REPEAT_Assigner
_cell_length_a                    13.167420
_cell_length_b                    15.088775
_cell_length_c                    13.719347
_cell_angle_alpha                 89.996769
_cell_angle_beta                  95.509053
_cell_angle_gamma                 90.003677
_cell_volume                      2713.172759
_symmetry_space_group_name_H-M    P1
_symmetry_Int_Tables_number       1
loop_
    _symmetry_equiv_pos_site_id
    _symmetry_equiv_pos_as_xyz
    1  x,y,z
loop_
    _atom_site_type_symbol
    _atom_site_label
    _atom_site_fract_x
    _atom_site_fract_y
    _atom_site_fract_z
    _atom_type_partial_charge
    O   O1   0.476712  0.378870  0.596255  -0.603516
    O   O2   0.467536  0.627167  0.411222  -0.619927
    O   O3   0.468079  0.369830  0.428540  -0.558651
    O   O4   0.476582  0.635833  0.578395  -0.564796
    C   C1   0.475186  0.332821  0.515448  0.751316
    C   C2   0.473821  0.673771  0.492601  0.673550
    O   O5   0.331741  0.505132  0.581075  -0.548638
    O   O6   0.618926  0.500978  0.425324  -0.433341
    O   O7   0.322858  0.501817  0.413185  -0.563500
    O   O8   0.628065  0.503652  0.592969  -0.430102
    C   C3   0.278422  0.504404  0.494940  0.678407
    C   C4   0.672150  0.501310  0.510886  0.530436
    Cu  Cu1  0.480772  0.508296  0.601102  0.781237
    Cu  Cu2  0.470093  0.497853  0.405643  0.772096
    C   C5   0.785221  0.495403  0.517761  -0.077684
    C   C6   0.164804  0.504611  0.486136  -0.148556
    C   C7   0.010426  0.509093  0.377419  -0.279674
    C   C8   0.939246  0.479036  0.624894  -0.417739
    C   C9   0.114971  0.510968  0.392981  -0.059017
    C   C10  0.834798  0.478462  0.608870  0.129794
    C   C11  0.105361  0.496035  0.564846  -0.147780
    C   C12  0.844198  0.504971  0.438938  -0.209052
    C   C13  0.998849  0.493022  0.548379  0.227159
    C   C14  0.950813  0.502386  0.454826  0.182523
    H   H1   0.792367  0.463310  0.670029  0.068024
    H   H2   0.156240  0.519000  0.329309  0.113574
    H   H3   0.978190  0.512617  0.302479  0.153366
    H   H4   0.971000  0.466602  0.698982  0.204593
    C   C15  0.541841  0.095783  0.577237  -0.146983
    C   C16  0.499278  0.917810  0.428661  -0.166023
    C   C17  0.545339  0.188047  0.577905  -0.058059
    C   C18  0.499132  0.826163  0.417818  -0.084478
    C   C19  0.471769  0.235911  0.521147  -0.205465
    C   C20  0.467158  0.772089  0.491645  -0.105685
    C   C21  0.392932  0.192071  0.468424  0.128217
    C   C22  0.428258  0.812150  0.570992  -0.022192
    H   H5   0.334545  0.229327  0.425895  0.036086
    H   H6   0.398210  0.773077  0.627684  0.109312
    C   C23  0.388066  0.101164  0.469022  -0.201661
    C   C24  0.425323  0.902822  0.579587  -0.151813
    H   H7   0.327954  0.067809  0.423975  0.120584
    H   H8   0.395526  0.932110  0.642764  0.109832
    C   C25  0.463091  0.052579  0.521824  0.064145
    C   C26  0.462983  0.956055  0.510100  0.117747
    C   C27  0.507442  0.563914  0.115800  -0.239633
    C   C28  0.411634  0.465736  0.886329  -0.217022
    H   H9   0.529752  0.626414  0.085234  0.119821
    H   H10  0.344781  0.436641  0.912255  0.123446
    C   C29  0.502707  0.559460  0.215262  0.078774
    C   C30  0.416760  0.468910  0.787204  0.124754
    H   H11  0.528889  0.614859  0.258068  0.153376
    H   H12  0.360182  0.433116  0.741334  0.132710
    N   N1   0.461656  0.489763  0.258878  -0.062148
    N   N2   0.489076  0.516014  0.747572  -0.138967
    C   C31  0.432248  0.418813  0.202539  -0.094342
    C   C32  0.565610  0.552254  0.807836  0.073657
    C   C33  0.448158  0.415903  0.103336  -0.171393
    C   C34  0.570673  0.538923  0.908814  -0.273493
    C   C35  0.484582  0.490775  0.057671  0.160431
    C   C36  0.490873  0.496829  0.949928  0.123139
    C   C37  0.795785  0.516523  0.338844  0.707998
    O   O9   0.757741  0.452788  0.294467  -0.529092
    C   C38  0.795292  0.604992  0.289894  -0.410702
    H   H13  0.826628  0.656133  0.342561  0.082691
    H   H14  0.716137  0.622359  0.262636  0.129747
    H   H15  0.841575  0.602715  0.226552  0.099851
    C   C39  0.152514  0.492981  0.665669  0.694021
    O   O10  0.170526  0.421764  0.705587  -0.538615
    C   C40  0.167025  0.576705  0.722870  -0.410249
    H   H16  0.140502  0.633453  0.675664  0.073504
    H   H17  0.248748  0.585601  0.748742  0.115051
    H   H18  0.121472  0.573257  0.786648  0.121828
    C   C41  0.379861  0.343737  0.242706  0.782571
    O   O11  0.423173  0.272662  0.255454  -0.475234
    C   C42  0.268617  0.350115  0.252712  -0.525781
    H   H19  0.239974  0.415310  0.224553  0.104177
    H   H20  0.254393  0.342982  0.330596  0.186123
    H   H21  0.229058  0.296203  0.209174  0.152249
    C   C43  0.643836  0.607605  0.769210  0.557953
    O   O12  0.732016  0.582284  0.773571  -0.484629
    C   C44  0.620305  0.701720  0.744728  -0.417469
    H   H22  0.538602  0.714906  0.752439  0.107474
    H   H23  0.638159  0.715729  0.668953  0.130018
    H   H24  0.668054  0.744656  0.796152  0.152606
    C   C45  0.429564  0.331561  0.050472  0.640774
    O   O13  0.343622  0.300813  0.037359  -0.491922
    C   C46  0.515591  0.283767  0.010976  -0.466983
    H   H25  0.587716  0.319514  0.032260  0.106078
    H   H26  0.501255  0.280616  0.930154  0.138933
    H   H27  0.521320  0.215497  0.041119  0.155232
    C   C47  0.663366  0.566242  0.969739  0.771385
    O   O14  0.685834  0.644473  0.978501  -0.527308
    C   C48  0.732418  0.497945  0.018323  -0.557330
    H   H28  0.704878  0.430947  0.995998  0.115822
    H   H29  0.734447  0.504811  0.098831  0.173526
    H   H30  0.810159  0.507356  0.995484  0.175203
    C   C49  0.624385  0.043934  0.629758  0.676408
    O   O15  0.605386  0.993233  0.694782  -0.507868
    C   C50  0.731385  0.050749  0.602654  -0.523263
    H   H31  0.735141  0.097515  0.540785  0.127963
    H   H32  0.757321  0.984589  0.580196  0.143700
    H   H33  0.782348  0.074230  0.666477  0.157909
    C   C51  0.544365  0.974498  0.356908  0.722820
    O   O16  0.489968  0.021951  0.302098  -0.485333
    C   C52  0.656601  0.974000  0.349871  -0.544504
    H   H34  0.694305  0.927861  0.404932  0.137518
    H   H35  0.687061  0.041833  0.363622  0.151159
    H   H36  0.672084  0.952696  0.275356  0.161194
    C   C53  0.628023  0.234981  0.636270  0.615640
    O   O17  0.684486  0.283993  0.595822  -0.478991
    C   C54  0.639660  0.227660  0.745400  -0.447498
    H   H37  0.579125  0.184551  0.770455  0.101099
    H   H38  0.632977  0.294518  0.777663  0.140208
    H   H39  0.715443  0.199569  0.770645  0.131710
    C   C55  0.537570  0.789206  0.329939  0.565641
    O   O18  0.617852  0.748618  0.337378  -0.478055
    C   C56  0.483788  0.807405  0.230623  -0.362571
    H   H40  0.414260  0.847570  0.237103  0.085655
    H   H41  0.460509  0.744621  0.193440  0.100485
    H   H42  0.535343  0.843826  0.185364  0.128702
