# Generated by REPEAT Assigner based on pymatgen
data_DB0-m2_o11_o22_f0_nbo.sym.10
_audit_creation_date              2022-05-24
_audit_creation_method            REPEAT_Assigner
_cell_length_a                    18.862398
_cell_length_b                    18.767093
_cell_length_c                    18.907074
_cell_angle_alpha                 109.045656
_cell_angle_beta                  110.205256
_cell_angle_gamma                 108.946792
_cell_volume                      5165.348872
_symmetry_space_group_name_H-M    P1
_symmetry_Int_Tables_number       1
loop_
    _symmetry_equiv_pos_site_id
    _symmetry_equiv_pos_as_xyz
    1  x,y,z
loop_
    _atom_site_type_symbol
    _atom_site_label
    _atom_site_fract_x
    _atom_site_fract_y
    _atom_site_fract_z
    _atom_type_partial_charge
    O   O1   0.413212  0.365033  0.468453  -0.614789
    O   O2   0.413164  0.475004  0.569077  -0.630912
    C   C1   0.386346  0.392739  0.521427  0.730889
    O   O3   0.590555  0.452752  0.544340  -0.582532
    O   O4   0.596052  0.561326  0.651616  -0.608186
    C   C2   0.619680  0.503700  0.626338  0.504269
    Cu  Cu1  0.494142  0.441209  0.449289  0.974890
    Cu  Cu2  0.502360  0.568678  0.573443  0.985309
    O   O5   0.581572  0.534747  0.451861  -0.614342
    O   O6   0.585067  0.645115  0.555902  -0.581308
    O   O7   0.402947  0.451136  0.370825  -0.604846
    O   O8   0.411810  0.563037  0.478085  -0.573174
    C   C3   0.609294  0.617103  0.500064  0.802788
    C   C4   0.374674  0.504259  0.396920  0.752276
    C   C5   0.707010  0.431194  0.653195  -0.103920
    H   H1   0.735139  0.445679  0.613568  0.029179
    H   H2   0.646137  0.367814  0.611537  0.026399
    C   C6   0.770990  0.425756  0.723649  -0.086253
    H   H3   0.737486  0.364229  0.722329  0.020828
    H   H4   0.824862  0.426921  0.711777  0.012453
    H   H5   0.790021  0.604015  0.699722  0.014517
    H   H6   0.892205  0.588428  0.787829  0.020339
    C   C7   0.771337  0.588993  0.744797  -0.094850
    C   C8   0.660028  0.486723  0.756126  -0.068528
    C   C9   0.688891  0.502438  0.694302  0.333752
    H   H7   0.641530  0.534962  0.783159  0.026238
    H   H8   0.603166  0.420849  0.720768  -0.000751
    C   C10  0.806690  0.501876  0.811262  0.386285
    C   C11  0.843511  0.585496  0.808588  -0.079387
    C   C12  0.733571  0.494503  0.830205  -0.070495
    H   H9   0.708860  0.436429  0.837190  0.023100
    H   H10  0.757768  0.553038  0.891231  0.004751
    H   H11  0.760905  0.640714  0.780803  0.023324
    H   H12  0.874328  0.642409  0.873400  0.025197
    C   C13  0.252633  0.184144  0.508615  -0.018950
    C   C14  0.171319  0.169581  0.478055  -0.289394
    H   H13  0.270770  0.142743  0.530386  0.118199
    H   H14  0.151035  0.205222  0.448244  0.163425
    C   C15  0.316632  0.250547  0.505172  -0.014367
    C   C16  0.322723  0.328311  0.526702  -0.283608
    H   H15  0.362966  0.237251  0.490111  0.126674
    H   H16  0.283021  0.345444  0.551088  0.167761
    C   C17  0.177038  0.441564  0.192953  -0.059576
    C   C18  0.192312  0.497736  0.163949  -0.089658
    H   H17  0.110903  0.393364  0.167502  0.125984
    C   C19  0.248842  0.438459  0.253180  0.031852
    C   C20  0.305369  0.506113  0.332648  -0.366169
    H   H18  0.250010  0.377981  0.235876  0.113792
    H   H19  0.297421  0.562787  0.352093  0.189710
    C   C21  0.735802  0.810487  0.483651  -0.008805
    C   C22  0.817131  0.824569  0.513716  -0.271460
    H   H20  0.716441  0.847213  0.454928  0.093177
    H   H21  0.839696  0.794707  0.550127  0.159617
    C   C23  0.672855  0.751767  0.495491  0.107163
    C   C24  0.673279  0.679715  0.492887  -0.327065
    H   H22  0.717123  0.661768  0.477049  0.176944
    O   O9   0.960090  0.361396  0.921038  -0.619995
    O   O10  0.021544  0.458179  0.880254  -0.610247
    C   C25  0.988269  0.379766  0.871084  0.819131
    O   O11  0.857643  0.436856  0.895585  -0.611579
    O   O12  0.956509  0.567528  0.920164  -0.595409
    C   C26  0.877023  0.502217  0.879749  0.476784
    Cu  Cu3  0.942240  0.444132  0.997138  0.981767
    Cu  Cu4  0.055631  0.558422  0.985961  0.985643
    O   O13  0.941968  0.544475  0.071747  -0.603689
    O   O14  0.072136  0.640970  0.093374  -0.626316
    O   O15  0.044455  0.468859  0.096750  -0.622428
    O   O16  0.137247  0.531586  0.053319  -0.615474
    C   C27  0.009867  0.622500  0.112667  0.805237
    C   C28  0.120788  0.498814  0.101465  0.741710
    O   O17  0.065612  0.087983  0.636428  -0.597548
    O   O18  0.951332  0.089986  0.540728  -0.624152
    C   C29  0.014031  0.120478  0.619125  0.732447
    O   O19  0.134436  0.074996  0.534057  -0.579273
    O   O20  0.025052  0.078285  0.433412  -0.610544
    C   C30  0.107168  0.103577  0.481342  0.728611
    Cu  Cu5  0.056420  0.989601  0.547928  0.983834
    Cu  Cu6  0.930881  0.998400  0.436658  0.980694
    O   O21  0.035371  0.897279  0.443981  -0.604870
    O   O22  0.922948  0.901140  0.348033  -0.605417
    O   O23  0.962424  0.910972  0.552359  -0.606204
    O   O24  0.852888  0.912151  0.449834  -0.555902
    C   C31  0.975032  0.869156  0.365164  0.739115
    C   C32  0.880294  0.885676  0.504697  0.714517
    C   C33  0.992190  0.242939  0.675395  -0.043225
    C   C34  0.027903  0.194719  0.691107  -0.112562
    H   H23  0.956799  0.229814  0.609591  0.130442
    C   C35  0.003695  0.317820  0.745227  0.011192
    C   C36  0.982230  0.308425  0.803007  -0.365203
    H   H24  0.020569  0.377905  0.743395  0.119705
    H   H25  0.957469  0.245537  0.798919  0.182138
    C   C37  0.991786  0.744178  0.303596  0.011235
    C   C38  0.966896  0.800403  0.292506  -0.312617
    H   H26  0.012378  0.745017  0.365079  0.112671
    H   H27  0.937192  0.793437  0.228531  0.179130
    C   C39  0.982653  0.674584  0.230619  -0.018741
    C   C40  0.016152  0.692218  0.182842  -0.325974
    H   H28  0.955437  0.609423  0.220992  0.111999
    H   H29  0.052775  0.758816  0.199142  0.172619
    Cl  Cl1  0.298464  0.564006  0.190570  -0.022244
    Cl  Cl2  0.589008  0.771903  0.498803  -0.039935
    Cl  Cl3  0.101315  0.224723  0.797132  -0.018829
