# Generated by REPEAT Assigner based on pymatgen
data_DB0-m3_o4_o25_f0_pcu.sym.67_sqe
_audit_creation_date              2022-05-24
_audit_creation_method            REPEAT_Assigner
_cell_length_a                    16.004718
_cell_length_b                    10.974385
_cell_length_c                    9.833355
_cell_angle_alpha                 90.004531
_cell_angle_beta                  90.009292
_cell_angle_gamma                 90.000672
_cell_volume                      1727.149492
_symmetry_space_group_name_H-M    P1
_symmetry_Int_Tables_number       1
loop_
    _symmetry_equiv_pos_site_id
    _symmetry_equiv_pos_as_xyz
    1  x,y,z
loop_
    _atom_site_type_symbol
    _atom_site_label
    _atom_site_fract_x
    _atom_site_fract_y
    _atom_site_fract_z
    _atom_type_partial_charge
    O   O1   0.508290  0.306345  0.621280  -0.690442
    O   O2   0.508186  0.306484  0.386262  -0.667854
    C   C1   0.508256  0.249560  0.503598  0.823302
    O   O3   0.384094  0.488420  0.621039  -0.646715
    O   O4   0.384060  0.488363  0.385891  -0.641112
    C   C2   0.345307  0.488625  0.503466  0.772555
    Zn  Zn1  0.508580  0.488037  0.658461  1.050541
    Zn  Zn2  0.508566  0.487923  0.348730  1.026575
    O   O5   0.508911  0.669636  0.620832  -0.690948
    O   O6   0.508816  0.669384  0.386090  -0.659586
    O   O7   0.633065  0.487479  0.621125  -0.654604
    O   O8   0.633031  0.487410  0.386325  -0.656585
    C   C3   0.509010  0.726378  0.503254  0.815562
    C   C4   0.671857  0.487412  0.503725  0.804164
    C   C5   0.981465  0.410466  0.595052  -0.198935
    C   C6   0.036071  0.378784  0.473279  -0.056605
    H   H1   0.060859  0.287049  0.448577  0.053867
    H   H2   0.956854  0.345039  0.671086  0.061743
    H   H3   0.956865  0.431572  0.279821  0.088981
    C   C7   0.255645  0.488830  0.503479  -0.167256
    C   C8   0.761515  0.487520  0.503720  -0.137250
    C   C9   0.035659  0.521188  0.625548  -0.021460
    C   C10  0.088915  0.489402  0.503755  0.355529
    C   C11  0.980593  0.599754  0.534098  -0.462195
    C   C12  0.928209  0.488718  0.503496  0.838238
    C   C13  0.034999  0.566799  0.413642  0.374695
    C   C14  0.981180  0.457005  0.381553  -0.361746
    C   C15  0.180353  0.489054  0.503546  -0.284018
    C   C16  0.836803  0.487890  0.503668  -0.432091
    H   H4   0.955243  0.691118  0.558936  0.132568
    H   H5   0.060172  0.547249  0.726954  0.037139
    C   C17  0.510791  0.048368  0.619362  0.217465
    C   C18  0.508337  0.116139  0.502133  -0.292999
    C   C19  0.506201  0.051520  0.380596  -0.081894
    H   H6   0.504220  0.098733  0.284220  0.103121
    C   C20  0.506461  0.924506  0.380432  -0.047745
    H   H7   0.504634  0.877419  0.283964  0.086344
    C   C21  0.508887  0.859740  0.501811  -0.272511
    C   C22  0.511057  0.927284  0.619139  0.167573
    C   C23  0.514590  0.916419  0.769344  -0.134279
    C   C24  0.514283  0.058628  0.769656  -0.264279
    H   H8   0.456700  0.876478  0.812403  0.062514
    H   H9   0.574507  0.877053  0.805131  0.071991
    H   H10  0.456209  0.097580  0.812965  0.115799
    H   H11  0.573999  0.098447  0.805710  0.096150
    C   C25  0.447506  0.437262  0.070367  0.243592
    N   N1   0.508247  0.487192  0.145299  -0.122313
    C   C26  0.571454  0.539281  0.074821  -0.013472
    H   H12  0.622523  0.581935  0.128701  0.146556
    C   C27  0.571411  0.539373  0.932405  -0.102801
    H   H13  0.622479  0.582022  0.878551  0.169372
    N   N2   0.508104  0.487530  0.861893  -0.061047
    C   C28  0.447350  0.437619  0.936816  0.123441
    C   C29  0.365907  0.374528  0.923691  -0.092842
    C   C30  0.366180  0.373912  0.083615  -0.242529
    H   H14  0.316717  0.434176  0.880388  0.097522
    H   H15  0.372031  0.282346  0.878789  0.070617
    H   H16  0.317056  0.433062  0.127933  0.125690
    H   H17  0.372742  0.281351  0.127585  0.122093
    C   C31  0.066463  0.654722  0.305916  -0.312556
    C   C32  0.107013  0.765534  0.370934  0.120821
    C   C33  0.142595  0.847716  0.261145  0.246006
    C   C34  0.182355  0.959154  0.325252  -0.346041
    H   H18  0.012918  0.684830  0.242690  0.052176
    H   H19  0.112381  0.607119  0.240268  0.053260
    H   H20  0.158036  0.736441  0.439766  -0.006636
    H   H21  0.059622  0.816819  0.429928  -0.025462
    H   H22  0.091819  0.877156  0.191781  -0.046812
    H   H23  0.190618  0.797514  0.202238  -0.037297
    H   H24  0.134760  0.010791  0.383530  0.069796
    H   H25  0.208210  0.018363  0.244134  0.069074
    H   H26  0.233596  0.930805  0.394280  0.066488
