# Generated by REPEAT Assigner based on pymatgen
data_DB0-m5_o11_o24_f0_bcu.sym.25_sqe
_audit_creation_date              2022-05-24
_audit_creation_method            REPEAT_Assigner
_cell_length_a                    12.380899
_cell_length_b                    12.731379
_cell_length_c                    12.751836
_cell_angle_alpha                 82.225117
_cell_angle_beta                  64.312423
_cell_angle_gamma                 115.109975
_cell_volume                      1509.471465
_symmetry_space_group_name_H-M    P1
_symmetry_Int_Tables_number       1
loop_
    _symmetry_equiv_pos_site_id
    _symmetry_equiv_pos_as_xyz
    1  x,y,z
loop_
    _atom_site_type_symbol
    _atom_site_label
    _atom_site_fract_x
    _atom_site_fract_y
    _atom_site_fract_z
    _atom_type_partial_charge
    O   O1   0.972837  0.458731  0.812189  -0.500133
    O   O2   0.760463  0.325038  0.855604  -0.518086
    C   C1   0.897531  0.402311  0.768550  0.493162
    O   O3   0.026116  0.713416  0.019008  -0.561878
    O   O4   0.238437  0.875304  0.948259  -0.593128
    C   C2   0.101275  0.829437  0.004297  0.429999
    O   O5   0.764322  0.485670  0.043459  -0.580242
    O   O6   0.668640  0.556073  0.180653  -0.649186
    C   C3   0.661133  0.502791  0.100137  0.515776
    O   O7   0.234954  0.686890  0.787047  -0.571533
    O   O8   0.329916  0.643562  0.622630  -0.600135
    C   C4   0.337111  0.730892  0.669048  0.563424
    O   O9   0.028081  0.540249  0.189172  -0.581504
    O   O10  0.240706  0.674528  0.145368  -0.563436
    C   C5   0.104073  0.596688  0.232469  0.577605
    O   O11  0.974496  0.285864  0.982469  -0.499296
    O   O12  0.762381  0.123814  0.053597  -0.635729
    C   C6   0.899802  0.169977  0.997333  0.537963
    O   O13  0.236421  0.513436  0.957796  -0.553187
    O   O14  0.331690  0.442555  0.821056  -0.611954
    C   C7   0.339320  0.495930  0.901455  0.451137
    O   O15  0.765928  0.312391  0.213936  -0.533073
    O   O16  0.670759  0.354736  0.378621  -0.621723
    C   C8   0.663518  0.267773  0.331295  0.559619
    Cd  Cd1  0.762809  0.306671  0.036891  1.139757
    Cd  Cd2  0.237942  0.692564  0.964358  1.175143
    Cd  Cd3  0.838239  0.536444  0.197028  1.171011
    Cd  Cd4  0.162362  0.462475  0.804412  1.130163
    C   C9   0.637038  0.575766  0.912750  0.006982
    C   C10  0.529699  0.614654  0.957092  -0.161316
    H   H1   0.553127  0.710658  0.919087  -0.001086
    H   H2   0.752935  0.639625  0.840499  0.056740
    C   C11  0.427841  0.498914  0.952671  0.149299
    C   C12  0.533731  0.459939  0.907562  0.014173
    C   C13  0.470699  0.384052  0.044559  -0.043963
    C   C14  0.363357  0.422941  0.088902  -0.026232
    C   C15  0.466667  0.538769  0.094091  0.085299
    C   C16  0.572556  0.499793  0.048981  0.019177
    H   H3   0.560733  0.427629  0.828681  0.057493
    H   H4   0.447272  0.288049  0.082562  -0.019992
    H   H5   0.247459  0.359083  0.161151  0.062006
    H   H6   0.439656  0.571081  0.172971  0.027349
    C   C17  0.930350  0.448125  0.451380  -0.326659
    C   C18  0.051732  0.558034  0.366734  -0.231825
    H   H7   0.867878  0.389775  0.420156  0.289560
    H   H8   0.117178  0.620401  0.393388  0.183262
    C   C19  0.873920  0.401953  0.587528  0.486956
    C   C20  0.956384  0.444394  0.632748  -0.441120
    H   H9   0.069833  0.512422  0.570548  0.217134
    C   C21  0.404678  0.951397  0.619122  -0.216427
    C   C22  0.429880  0.865346  0.584487  -0.199490
    H   H10  0.317655  0.921922  0.713933  0.253816
    H   H11  0.516754  0.891320  0.490891  0.160740
    C   C23  0.490975  0.086883  0.535609  0.084634
    C   C24  0.574706  0.131762  0.409347  -0.326956
    H   H12  0.482142  0.151939  0.580356  0.107688
    H   H13  0.582200  0.069400  0.360724  0.206127
    C   C25  0.929483  0.883239  0.022344  -0.509921
    C   C26  0.047172  0.911913  0.021353  0.251187
    H   H14  0.869756  0.794416  0.018071  0.311828
    C   C27  0.874024  0.965899  0.031797  0.261385
    C   C28  0.959140  0.091449  0.980681  -0.368468
    H   H15  0.759984  0.921956  0.077555  0.095939
    H   H16  0.073897  0.138571  0.927231  0.198473
    F   F1   0.120996  0.018234  0.034570  -0.105123
    F   F2   0.733699  0.310022  0.667597  -0.179202
