# Generated by REPEAT Assigner based on pymatgen
data_DB0-m3_o96_o22_f0_fsc.sym.69
_audit_creation_date              2022-05-24
_audit_creation_method            REPEAT_Assigner
_cell_length_a                    9.083021
_cell_length_b                    13.377540
_cell_length_c                    16.248568
_cell_angle_alpha                 90.047111
_cell_angle_beta                  94.742913
_cell_angle_gamma                 90.590464
_cell_volume                      1967.470975
_symmetry_space_group_name_H-M    P1
_symmetry_Int_Tables_number       1
loop_
    _symmetry_equiv_pos_site_id
    _symmetry_equiv_pos_as_xyz
    1  x,y,z
loop_
    _atom_site_type_symbol
    _atom_site_label
    _atom_site_fract_x
    _atom_site_fract_y
    _atom_site_fract_z
    _atom_type_partial_charge
    C   C1   0.986452  0.185603  0.786824  0.005061
    C   C2   0.930782  0.248203  0.842102  0.050147
    C   C3   0.919171  0.195877  0.913859  0.333285
    N   N1   0.962190  0.100501  0.903579  -0.503261
    C   C4   0.001232  0.093748  0.824862  0.337796
    C   C5   0.880279  0.237551  0.983760  -0.397573
    C   C6   0.902316  0.193209  0.066409  0.133958
    C   C7   0.915913  0.247333  0.138938  0.044704
    C   C8   0.949306  0.182499  0.202085  0.128788
    C   C9   0.951183  0.087901  0.166186  0.070788
    N   N2   0.921096  0.095715  0.083429  -0.121033
    C   C10  0.967623  0.992142  0.209995  -0.366245
    C   C11  0.006336  0.907795  0.173300  0.326931
    C   C12  0.020231  0.815882  0.211288  0.040109
    C   C13  0.074864  0.752953  0.155896  0.037467
    C   C14  0.086941  0.805250  0.084161  0.330133
    N   N3   0.045075  0.900849  0.094540  -0.495165
    C   C15  0.125186  0.763426  0.014189  -0.400701
    C   C16  0.103779  0.807994  0.931586  0.121464
    C   C17  0.089637  0.753970  0.859013  0.073935
    C   C18  0.057420  0.819030  0.795881  0.040301
    C   C19  0.056584  0.913643  0.831859  0.105360
    N   N4   0.086283  0.905622  0.914631  -0.115849
    C   C20  0.040533  0.009528  0.788175  -0.395135
    H   H1   0.849190  0.315045  0.982039  0.177874
    H   H2   0.949972  0.991111  0.275058  0.173615
    H   H3   0.155387  0.685766  0.015835  0.179521
    H   H4   0.058246  0.010670  0.723119  0.176137
    H   H5   0.902305  0.038155  0.040802  0.245354
    H   H6   0.105416  0.963118  0.957295  0.248056
    C   C21  0.107811  0.653907  0.845647  -0.220097
    C   C22  0.090555  0.619748  0.765408  -0.073719
    C   C23  0.045770  0.682427  0.700176  -0.003303
    C   C24  0.031530  0.785061  0.714755  -0.192987
    C   C25  0.022259  0.218823  0.710474  -0.247130
    C   C26  0.994296  0.318272  0.692077  -0.052782
    C   C27  0.926552  0.378764  0.746885  0.077871
    C   C28  0.898328  0.345560  0.823676  -0.306626
    C   C29  0.896106  0.347232  0.152281  -0.230479
    C   C30  0.912904  0.381449  0.232517  -0.021674
    C   C31  0.959012  0.319077  0.297724  -0.039917
    C   C32  0.975134  0.216621  0.283163  -0.262183
    C   C33  0.984247  0.782896  0.287663  -0.345793
    C   C34  0.010753  0.683256  0.305940  0.084453
    C   C35  0.077241  0.622280  0.250971  -0.013034
    C   C36  0.105824  0.655341  0.174186  -0.271766
    H   H7   0.139197  0.602797  0.895229  0.129325
    H   H8   0.002981  0.836140  0.664592  0.125086
    H   H9   0.067867  0.170062  0.666277  0.126422
    H   H10  0.895148  0.453918  0.729391  0.068740
    H   H11  0.849346  0.395389  0.865685  0.126423
    H   H12  0.863735  0.398111  0.102693  0.130350
    H   H13  0.005114  0.165806  0.333308  0.136392
    H   H14  0.939561  0.831951  0.331972  0.162776
    H   H15  0.107537  0.546917  0.268404  0.109755
    H   H16  0.153863  0.605184  0.132058  0.118698
    H   H17  0.112171  0.542256  0.753254  0.098161
    H   H18  0.890164  0.458788  0.244668  0.074725
    O   O1   0.892803  0.607219  0.587646  -0.575225
    O   O2   0.144961  0.596162  0.590536  -0.635991
    C   C37  0.026299  0.634436  0.617981  0.651092
    O   O3   0.138019  0.389173  0.588855  -0.682441
    O   O4   0.884419  0.400021  0.579814  -0.701354
    C   C38  0.007479  0.361999  0.611541  0.751823
    O   O5   0.112610  0.394026  0.410211  -0.663236
    O   O6   0.859196  0.404596  0.407720  -0.653275
    C   C39  0.978549  0.367181  0.379852  0.735101
    O   O7   0.866963  0.612123  0.408883  -0.617796
    O   O8   0.120616  0.601706  0.418279  -0.613786
    C   C40  0.997541  0.639728  0.386532  0.602829
    Zn  Zn1  0.166834  0.493393  0.501705  1.015324
    Zn  Zn2  0.838044  0.508030  0.496110  0.945695
    C   C41  0.432301  0.399035  0.525089  -0.067303
    H   H19  0.403387  0.340897  0.477611  0.033748
    H   H20  0.397485  0.373212  0.585171  0.051498
    C   C42  0.598789  0.413460  0.535874  0.074190
    H   H21  0.629950  0.415995  0.603289  -0.011024
    H   H22  0.649722  0.347920  0.508000  0.037136
    H   H23  0.345086  0.469395  0.370665  -0.004579
    H   H24  0.586189  0.432245  0.383741  0.019441
    C   C43  0.403906  0.517601  0.418316  0.247127
    C   C44  0.423856  0.571487  0.554822  0.391315
    N   N5   0.360901  0.492419  0.500544  -0.061729
    H   H25  0.369747  0.643580  0.538888  -0.063900
    H   H26  0.410536  0.551822  0.620130  -0.036731
    N   N6   0.643986  0.506080  0.496883  0.240890
    C   C45  0.568433  0.504839  0.414085  -0.105692
    C   C46  0.587102  0.587036  0.545015  -0.180747
    H   H27  0.642084  0.587081  0.608329  0.090918
    H   H28  0.379434  0.596770  0.403577  -0.092448
    H   H29  0.609804  0.564633  0.374839  0.076917
    S   S1   0.618550  0.707337  0.496834  -0.143426
    C   C47  0.623158  0.776271  0.593554  -0.088135
    H   H30  0.615005  0.857279  0.579695  0.087931
    H   H31  0.728435  0.762587  0.631136  0.048591
    H   H32  0.528268  0.754355  0.628569  0.023747
