# Generated by REPEAT Assigner based on pymatgen
data_DB0-m2_o11_o20_f0_pcu.sym.76
_audit_creation_date              2022-05-24
_audit_creation_method            REPEAT_Assigner
_cell_length_a                    14.395150
_cell_length_b                    11.016647
_cell_length_c                    9.639547
_cell_angle_alpha                 90.020293
_cell_angle_beta                  90.003823
_cell_angle_gamma                 90.000000
_cell_volume                      1528.699801
_symmetry_space_group_name_H-M    P1
_symmetry_Int_Tables_number       1
loop_
    _symmetry_equiv_pos_site_id
    _symmetry_equiv_pos_as_xyz
    1  x,y,z
loop_
    _atom_site_type_symbol
    _atom_site_label
    _atom_site_fract_x
    _atom_site_fract_y
    _atom_site_fract_z
    _atom_type_partial_charge
    O   O1   0.469861  0.334517  0.622474  -0.352498
    O   O2   0.471113  0.335781  0.383876  -0.585992
    C   C1   0.474401  0.278545  0.502808  0.458496
    O   O3   0.323299  0.503676  0.610897  -0.591580
    O   O4   0.333661  0.500489  0.372269  -0.646317
    C   C2   0.285357  0.500068  0.487828  0.928184
    Cu  Cu1  0.456797  0.509777  0.645215  0.765867
    Cu  Cu2  0.469113  0.512514  0.368001  0.877609
    O   O5   0.452283  0.686300  0.628800  -0.581803
    O   O6   0.458961  0.688273  0.390320  -0.591250
    O   O7   0.592021  0.525236  0.640818  -0.573125
    O   O8   0.602560  0.515529  0.403280  -0.501108
    C   C3   0.452901  0.743911  0.510145  0.716446
    C   C4   0.640508  0.522884  0.525803  0.798100
    C   C5   0.185761  0.500630  0.482300  -0.331139
    C   C6   0.102158  0.503763  0.487453  0.139511
    C   C7   0.004535  0.509299  0.500490  -0.049822
    C   C8   0.921353  0.514454  0.513373  -0.031628
    C   C9   0.823718  0.519860  0.526361  0.097343
    C   C10  0.740106  0.522770  0.531460  -0.261478
    C   C11  0.455934  0.944369  0.399813  0.091592
    C   C12  0.446752  0.876630  0.513964  -0.352869
    H   H1   0.461000  0.901268  0.299039  0.112016
    H   H2   0.434251  0.919367  0.613378  0.157502
    C   C13  0.449607  0.078019  0.405431  -0.291362
    C   C14  0.490313  0.146993  0.502917  0.132905
    H   H3   0.408308  0.122131  0.326086  0.157445
    C   C15  0.427457  0.421096  0.941132  0.183532
    N   N1   0.445873  0.505968  0.852450  -0.217144
    H   H4   0.444503  0.591213  0.895999  0.207863
    C   C16  0.421412  0.448642  0.091238  -0.120964
    N   N2   0.479300  0.514817  0.160767  -0.119406
    H   H5   0.365974  0.403816  0.147023  0.179155
    C   C17  0.561600  0.098314  0.602271  -0.056547
    C   C18  0.640203  0.186338  0.612969  -0.088001
    C   C19  0.667402  0.229853  0.735235  -0.395350
    H   H6   0.591999  0.012160  0.564568  0.081717
    H   H7   0.529609  0.083931  0.705494  0.064444
    H   H8   0.676719  0.213755  0.519741  0.103910
    H   H9   0.633347  0.202317  0.830382  0.132824
    H   H10  0.725118  0.292910  0.740153  0.166100
    C   C20  0.405871  0.293199  0.900733  -0.164584
    C   C21  0.317975  0.287388  0.819349  0.022974
    C   C22  0.290576  0.182959  0.763616  -0.509717
    H   H11  0.395876  0.238775  0.996301  0.085754
    H   H12  0.464954  0.251802  0.845462  0.136972
    H   H13  0.274477  0.367107  0.809899  0.099664
    H   H14  0.332865  0.102166  0.775047  0.188209
    H   H15  0.225719  0.178512  0.706700  0.179674
    C   C23  0.570430  0.542324  0.103782  0.264531
    C   C24  0.587425  0.675776  0.112503  -0.165996
    C   C25  0.660964  0.719822  0.179436  -0.374658
    H   H16  0.581210  0.512660  0.996130  -0.017771
    H   H17  0.624306  0.492225  0.161838  0.011818
    H   H18  0.539598  0.737815  0.062352  0.120196
    H   H19  0.710616  0.659930  0.228995  0.161370
    H   H20  0.671972  0.817092  0.183617  0.148385
