# Generated by REPEAT Assigner based on pymatgen
data_DB0-m3_o520_o159_f0_fsc.sym.32
_audit_creation_date              2022-05-24
_audit_creation_method            REPEAT_Assigner
_cell_length_a                    13.414326
_cell_length_b                    8.596040
_cell_length_c                    14.966987
_cell_angle_alpha                 90.000000
_cell_angle_beta                  90.996900
_cell_angle_gamma                 90.000000
_cell_volume                      1725.583202
_symmetry_space_group_name_H-M    P1
_symmetry_Int_Tables_number       1
loop_
    _symmetry_equiv_pos_site_id
    _symmetry_equiv_pos_as_xyz
    1  x,y,z
loop_
    _atom_site_type_symbol
    _atom_site_label
    _atom_site_fract_x
    _atom_site_fract_y
    _atom_site_fract_z
    _atom_type_partial_charge
    H   H1   0.037825  0.983254  0.558729  0.086456
    C   C1   0.012217  0.121488  0.673585  -0.134456
    C   C2   0.012961  0.843111  0.672988  -0.110857
    C   C3   0.995740  0.121364  0.764302  0.022338
    C   C4   0.000280  0.842189  0.764164  0.046508
    H   H2   0.987631  0.230533  0.799265  0.053297
    H   H3   0.994075  0.732530  0.798971  0.043275
    C   C5   0.995111  0.981619  0.810373  -0.379150
    C   C6   0.024806  0.982633  0.629442  -0.046736
    N   N1   0.030525  0.858336  0.952922  -0.446162
    N   N2   0.956243  0.102707  0.953178  -0.366176
    N   N3   0.033358  0.859159  0.041141  -0.184523
    N   N4   0.957650  0.102094  0.041620  -0.346497
    C   C7   0.997249  0.980969  0.086830  0.892243
    C   C8   0.992255  0.980266  0.907947  0.886938
    C   C9   0.000452  0.119603  0.232973  0.294226
    C   C10  0.992251  0.841134  0.231635  0.267437
    C   C11  0.978131  0.119547  0.323149  -0.216445
    C   C12  0.977204  0.841025  0.322631  -0.301477
    C   C13  0.962553  0.980116  0.366001  0.039705
    H   H4   0.946497  0.979793  0.436187  0.070177
    C   C14  0.998465  0.980695  0.185416  -0.633740
    O   O1   0.089128  0.650612  0.582456  -0.791490
    O   O2   0.089410  0.313972  0.583410  -0.788460
    O   O3   0.918666  0.644928  0.599012  -0.644751
    O   O4   0.918869  0.318724  0.599373  -0.694775
    C   C15  0.007338  0.700688  0.619483  0.884231
    C   C16  0.007434  0.264065  0.620448  0.954131
    O   O5   0.900678  0.648326  0.413682  -0.815267
    O   O6   0.901008  0.312281  0.414892  -0.741475
    O   O7   0.071376  0.642961  0.397304  -0.659640
    O   O8   0.071832  0.317543  0.398793  -0.754970
    C   C17  0.982544  0.698192  0.376336  0.999562
    C   C18  0.983265  0.261192  0.378350  0.938634
    Zn  Zn1  0.884230  0.481367  0.506883  1.023210
    Zn  Zn2  0.105747  0.481608  0.490583  1.041283
    C   C19  0.292406  0.500403  0.409232  -0.270874
    N   N5   0.236290  0.482096  0.482857  0.182632
    C   C20  0.281621  0.468938  0.563486  -0.074429
    C   C21  0.383607  0.472267  0.572978  -0.191297
    C   C22  0.442911  0.483121  0.498613  0.023757
    C   C23  0.395978  0.490246  0.415874  0.290145
    C   C24  0.597693  0.506604  0.585266  -0.158894
    C   C25  0.547053  0.484572  0.504752  0.059236
    C   C26  0.602629  0.470072  0.428384  0.191520
    C   C27  0.554489  0.462766  0.345534  -0.231277
    C   C28  0.452436  0.479526  0.339735  -0.213704
    C   C29  0.700471  0.506716  0.589726  -0.060117
    N   N6   0.753757  0.481433  0.515128  0.129674
    C   C30  0.705983  0.468228  0.435443  -0.236902
    H   H5   0.237878  0.460143  0.623098  0.156382
    H   H6   0.750582  0.464789  0.376489  0.248187
    H   H7   0.417193  0.468433  0.274752  0.138766
    H   H8   0.413165  0.457328  0.639649  0.143760
    H   H9   0.559679  0.530262  0.646369  0.141594
    C   C31  0.245558  0.544213  0.323626  0.437834
    O   O9   0.177049  0.468138  0.292401  -0.212082
    C   C32  0.279865  0.685756  0.275310  -0.268102
    H   H10  0.342206  0.741431  0.312965  0.044682
    H   H11  0.217226  0.769500  0.269276  0.095025
    H   H12  0.304524  0.653418  0.207445  0.101770
    C   C33  0.748057  0.545283  0.676120  0.544252
    O   O10  0.813710  0.463503  0.707799  -0.407437
    C   C34  0.710764  0.679155  0.729450  -0.475820
    H   H13  0.655493  0.747207  0.689764  0.091016
    H   H14  0.774272  0.756133  0.747684  0.169932
    H   H15  0.675941  0.635320  0.791231  0.139060
    C   C35  0.024402  0.267242  0.189626  0.228610
    O   O11  0.983789  0.384778  0.215604  -0.352728
    C   C36  0.104283  0.279497  0.121008  -0.192217
    H   H16  0.141590  0.166143  0.110756  0.008911
    H   H17  0.162363  0.362321  0.143647  0.065810
    H   H18  0.072921  0.325275  0.057227  0.139849
    C   C37  0.992685  0.694772  0.182919  0.524103
    O   O12  0.072052  0.634709  0.164461  -0.484950
    C   C38  0.898612  0.641137  0.138045  -0.455272
    H   H19  0.863050  0.740119  0.102273  0.094383
    H   H20  0.846495  0.596874  0.188845  0.090450
    H   H21  0.915292  0.548391  0.089000  0.188593
    C   C39  0.608384  0.433077  0.262586  0.748182
    O   O13  0.669404  0.328162  0.259368  -0.518548
    C   C40  0.582421  0.520882  0.179414  -0.545955
    H   H22  0.530573  0.617472  0.194416  0.114492
    H   H23  0.547329  0.440941  0.129940  0.166660
    H   H24  0.651369  0.570402  0.151111  0.164734
