# Generated by REPEAT Assigner based on pymatgen
data_DB0-m2_o13_o29_f0_pcu.sym.51
_audit_creation_date              2022-05-24
_audit_creation_method            REPEAT_Assigner
_cell_length_a                    27.402263
_cell_length_b                    12.969851
_cell_length_c                    11.675280
_cell_angle_alpha                 99.584833
_cell_angle_beta                  94.159206
_cell_angle_gamma                 89.986568
_cell_volume                      4080.435567
_symmetry_space_group_name_H-M    P1
_symmetry_Int_Tables_number       1
loop_
    _symmetry_equiv_pos_site_id
    _symmetry_equiv_pos_as_xyz
    1  x,y,z
loop_
    _atom_site_type_symbol
    _atom_site_label
    _atom_site_fract_x
    _atom_site_fract_y
    _atom_site_fract_z
    _atom_type_partial_charge
    O   O1   0.501637  0.354302  0.587156  -0.572652
    O   O2   0.500366  0.645146  0.423422  -0.538970
    O   O3   0.500317  0.341845  0.388258  -0.587521
    O   O4   0.500071  0.657482  0.621884  -0.593460
    C   C1   0.500797  0.299010  0.482222  0.666905
    C   C2   0.499846  0.700269  0.527967  0.677653
    O   O5   0.428182  0.505958  0.585881  -0.571865
    O   O6   0.573139  0.491253  0.424196  -0.498096
    O   O7   0.431063  0.488106  0.386912  -0.566722
    O   O8   0.570372  0.513008  0.623177  -0.579186
    C   C3   0.406711  0.495927  0.480034  0.667735
    C   C4   0.594658  0.501713  0.529317  0.599859
    Cu  Cu1  0.498953  0.506959  0.620519  0.895762
    Cu  Cu2  0.502484  0.492211  0.389615  0.816778
    C   C5   0.174172  0.402038  0.420166  0.518908
    C   C6   0.824115  0.597867  0.550530  0.475823
    O   O9   0.199380  0.314124  0.390825  -0.489193
    O   O10  0.796160  0.682817  0.551644  -0.460625
    N   N1   0.199504  0.493027  0.441604  -0.214545
    N   N2   0.801449  0.506585  0.554686  -0.189683
    C   C7   0.176875  0.584433  0.469261  0.514874
    C   C8   0.826431  0.417136  0.548975  0.499348
    C   C9   0.277519  0.538211  0.370703  -0.143915
    C   C10  0.723129  0.454868  0.452638  -0.090396
    C   C11  0.328130  0.538133  0.379552  -0.076298
    C   C12  0.672781  0.453878  0.446468  -0.071909
    C   C13  0.327120  0.444548  0.538146  -0.132235
    C   C14  0.674280  0.545878  0.641846  -0.146177
    C   C15  0.276938  0.444378  0.529694  -0.127174
    C   C16  0.724899  0.547981  0.647301  -0.147070
    C   C17  0.251697  0.491517  0.446422  0.200661
    C   C18  0.749342  0.502841  0.552288  0.185851
    C   C19  0.099903  0.494913  0.461527  0.177449
    C   C20  0.900534  0.508408  0.530227  0.125847
    C   C21  0.123304  0.400292  0.429408  -0.296819
    C   C22  0.874832  0.601811  0.539881  -0.272505
    C   C23  0.094865  0.308171  0.408852  0.238477
    C   C24  0.900735  0.694168  0.534804  0.257879
    C   C25  0.127019  0.586610  0.479113  -0.187633
    C   C26  0.875941  0.416723  0.536232  -0.130813
    C   C27  0.353118  0.493135  0.465492  -0.070789
    C   C28  0.648146  0.500031  0.540447  0.003570
    H   H1   0.345754  0.403155  0.600159  0.170126
    H   H2   0.655288  0.582100  0.715839  0.134890
    H   H3   0.257635  0.407256  0.589647  0.126801
    H   H4   0.745438  0.584955  0.725985  0.129063
    C   C29  0.974532  0.410475  0.496573  0.084260
    C   C30  0.026833  0.594208  0.504608  0.091181
    C   C31  0.976048  0.596878  0.513247  0.043067
    C   C32  0.023368  0.407258  0.468497  0.054685
    C   C33  0.950435  0.505377  0.513867  0.000628
    C   C34  0.049954  0.498819  0.477800  -0.029050
    C   C35  0.949396  0.320617  0.509764  -0.189902
    C   C36  0.055339  0.684960  0.523842  -0.190475
    C   C37  0.900806  0.324113  0.529741  -0.063141
    C   C38  0.104601  0.680814  0.510943  -0.021508
    O   O11  0.802640  0.327612  0.554112  -0.551077
    O   O12  0.203458  0.673525  0.491982  -0.523855
    C   C39  0.045802  0.313774  0.428423  -0.286308
    C   C40  0.950230  0.689489  0.520212  -0.295067
    H   H5   0.652837  0.415194  0.367727  0.089336
    H   H6   0.347810  0.575393  0.320323  0.113220
    H   H7   0.742375  0.419189  0.378820  0.119804
    H   H8   0.258418  0.575075  0.304184  0.130583
    H   H9   0.882785  0.252233  0.539050  0.142134
    H   H10  0.125211  0.753365  0.527205  0.113883
    H   H11  0.966535  0.245844  0.509473  0.128098
    H   H12  0.041487  0.761377  0.554487  0.127558
    H   H13  0.024801  0.242554  0.405066  0.163894
    H   H14  0.967381  0.760938  0.508034  0.167569
    C   C41  0.500131  0.814578  0.539471  -0.046883
    C   C42  0.500941  0.184516  0.470680  -0.034836
    C   C43  0.499801  0.014783  0.352663  -0.275574
    C   C44  0.501472  0.984177  0.657633  -0.287188
    C   C45  0.500309  0.122210  0.362310  -0.077293
    C   C46  0.501020  0.876810  0.647935  -0.054495
    C   C47  0.501693  0.137970  0.569208  -0.255612
    C   C48  0.499962  0.861131  0.441004  -0.265136
    C   C49  0.501190  0.030308  0.559287  0.231513
    C   C50  0.500292  0.968668  0.450983  0.242439
    H   H15  0.499633  0.813626  0.355644  0.141813
    H   H16  0.502557  0.185603  0.654519  0.144928
    H   H17  0.501495  0.842605  0.726350  0.099554
    H   H18  0.500133  0.156138  0.283756  0.111356
    H   H19  0.499005  0.967190  0.267214  0.144889
    H   H20  0.502080  0.031908  0.742997  0.148630
    N   N3   0.496967  0.517191  0.793624  -0.155571
    N   N4   0.505084  0.482660  0.216960  -0.158617
    C   C51  0.466844  0.392174  0.039536  -0.337558
    C   C52  0.536980  0.606765  0.970008  -0.242618
    C   C53  0.475083  0.406578  0.158159  0.049253
    C   C54  0.528059  0.592373  0.851106  0.003808
    C   C55  0.528457  0.545918  0.155722  0.219360
    C   C56  0.474222  0.453442  0.855162  0.130400
    C   C57  0.517664  0.537919  0.034463  0.034944
    C   C58  0.486217  0.460791  0.975507  0.156836
    H   H21  0.546421  0.644691  0.804690  0.139352
    H   H22  0.457250  0.353916  0.203960  0.120262
    H   H23  0.443573  0.326803  0.001526  0.174040
    H   H24  0.560724  0.671679  0.008732  0.145625
    C   C59  0.434659  0.378252  0.796613  -0.084325
    C   C60  0.384590  0.411397  0.837734  -0.072674
    C   C61  0.350797  0.316658  0.819025  0.287754
    C   C62  0.300380  0.350406  0.854315  -0.233086
    H   H25  0.443023  0.297942  0.811780  0.021572
    H   H26  0.432028  0.373462  0.701973  0.070184
    H   H27  0.369450  0.470944  0.787682  0.017097
    H   H28  0.386603  0.447135  0.930893  0.027769
    H   H29  0.365154  0.258091  0.871820  -0.054371
    H   H30  0.348129  0.280076  0.725939  -0.079617
    H   H31  0.302171  0.383496  0.948459  0.035966
    H   H32  0.275418  0.281754  0.836618  0.051223
    H   H33  0.286508  0.410088  0.802811  0.035381
    C   C63  0.567504  0.621264  0.216375  -0.286820
    C   C64  0.618378  0.584220  0.184176  0.011167
    C   C65  0.656803  0.661648  0.248409  0.341886
    C   C66  0.707288  0.630596  0.209883  -0.437367
    H   H34  0.567487  0.626901  0.310588  0.090366
    H   H35  0.560096  0.701070  0.198597  0.087542
    H   H36  0.622275  0.576064  0.089580  -0.000688
    H   H37  0.624386  0.506142  0.209082  0.025017
    H   H38  0.656517  0.662675  0.343481  -0.066130
    H   H39  0.648725  0.741641  0.230235  -0.064471
    H   H40  0.715505  0.549528  0.223587  0.069243
    H   H41  0.735053  0.684906  0.261430  0.122778
    H   H42  0.709032  0.635690  0.116424  0.086777
    C   C67  0.113336  0.200230  0.365759  -0.196443
    C   C68  0.118939  0.184886  0.235251  0.135479
    C   C69  0.141672  0.079343  0.195719  0.248783
    C   C70  0.146180  0.062512  0.065303  -0.296438
    H   H43  0.086467  0.140849  0.380264  0.027839
    H   H44  0.146993  0.181486  0.416123  0.072797
    H   H45  0.142038  0.247676  0.213023  -0.023054
    H   H46  0.082263  0.187746  0.189126  -0.041812
    H   H47  0.118341  0.016278  0.216935  -0.061702
    H   H48  0.178573  0.076471  0.240797  -0.027306
    H   H49  0.109516  0.065733  0.019167  0.049790
    H   H50  0.162231  0.984672  0.037340  0.061601
    H   H51  0.170296  0.123872  0.043268  0.062071
    C   C71  0.879084  0.801771  0.544477  -0.192958
    C   C72  0.857019  0.820426  0.426439  0.080506
    C   C73  0.831147  0.924741  0.439431  0.280984
    C   C74  0.810707  0.945352  0.321304  -0.328312
    H   H52  0.908312  0.861608  0.572758  0.027918
    H   H53  0.853067  0.816841  0.613359  0.061899
    H   H54  0.830681  0.757123  0.388340  -0.013958
    H   H55  0.886872  0.821311  0.367341  -0.030252
    H   H56  0.857367  0.988276  0.478173  -0.055592
    H   H57  0.800741  0.923226  0.496812  -0.033398
    H   H58  0.840984  0.948696  0.263901  0.054403
    H   H59  0.791479  0.021232  0.332241  0.074958
    H   H60  0.784508  0.882189  0.281237  0.064878
