# Generated by REPEAT Assigner based on pymatgen
data_DB0-m9_o13_o23_f0_sra.sym.37
_audit_creation_date              2022-05-24
_audit_creation_method            REPEAT_Assigner
_cell_length_a                    20.480156
_cell_length_b                    6.758577
_cell_length_c                    19.927939
_cell_angle_alpha                 90.000000
_cell_angle_beta                  102.010654
_cell_angle_gamma                 90.000000
_cell_volume                      2697.976327
_symmetry_space_group_name_H-M    P1
_symmetry_Int_Tables_number       1
loop_
    _symmetry_equiv_pos_site_id
    _symmetry_equiv_pos_as_xyz
    1  x,y,z
loop_
    _atom_site_type_symbol
    _atom_site_label
    _atom_site_fract_x
    _atom_site_fract_y
    _atom_site_fract_z
    _atom_type_partial_charge
    O  O1   0.422815  0.374740  0.438883  -0.471901
    O  O2   0.577185  0.874740  0.561117  -0.471886
    O  O3   0.558214  0.724655  0.430311  -0.535521
    O  O4   0.441786  0.224655  0.569688  -0.535516
    C  C1   0.583704  0.544719  0.426427  0.694560
    C  C2   0.416295  0.044719  0.573573  0.694542
    O  O5   0.423380  0.724668  0.417006  -0.472884
    O  O6   0.576619  0.224668  0.582994  -0.472882
    O  O7   0.433211  0.874875  0.547221  -0.555233
    O  O8   0.566789  0.374876  0.452779  -0.555244
    C  C3   0.398489  0.542131  0.408322  0.512953
    C  C4   0.601511  0.042131  0.591678  0.512931
    O  O9   0.505729  0.560605  0.540915  -0.450102
    O  O10  0.494270  0.060605  0.459085  -0.450118
    V  V1   0.497814  0.827123  0.487953  1.341272
    V  V2   0.502185  0.327123  0.512047  1.341008
    C  C5   0.835112  0.088234  0.858847  0.039833
    C  C6   0.164887  0.588234  0.141153  0.039831
    C  C7   0.658903  0.018167  0.647748  0.014971
    C  C8   0.341096  0.518167  0.352252  0.014935
    C  C9   0.748946  0.823185  0.707796  -0.247562
    C  C10  0.251053  0.323185  0.292204  -0.247603
    C  C11  0.695393  0.845862  0.653902  -0.086775
    C  C12  0.304607  0.345862  0.346098  -0.086741
    C  C13  0.674539  0.165737  0.695956  -0.164898
    C  C14  0.325461  0.665737  0.304044  -0.164860
    C  C15  0.727255  0.142402  0.751401  0.112454
    C  C16  0.272745  0.642402  0.248599  0.112407
    C  C17  0.764852  0.970333  0.756337  0.207124
    C  C18  0.235147  0.470333  0.243663  0.207167
    C  C19  0.818361  0.942928  0.810156  -0.258671
    C  C20  0.181639  0.442928  0.189844  -0.258685
    C  C21  0.797216  0.257316  0.855274  -0.079207
    C  C22  0.202783  0.757316  0.144726  -0.079211
    C  C23  0.742671  0.285108  0.802659  -0.268283
    C  C24  0.257328  0.785108  0.197341  -0.268263
    H  H1   0.848073  0.809790  0.813085  0.148736
    H  H2   0.151926  0.309791  0.186914  0.148737
    H  H3   0.810159  0.369266  0.894533  0.081261
    H  H4   0.189840  0.869266  0.105467  0.081262
    H  H5   0.778237  0.688934  0.712476  0.136386
    H  H6   0.221763  0.188934  0.287524  0.136397
    H  H7   0.682400  0.729634  0.616219  0.096379
    H  H8   0.317599  0.229634  0.383780  0.096372
    H  H9   0.643792  0.295817  0.689107  0.112970
    H  H10  0.356208  0.795817  0.310893  0.112961
    C  C25  0.244445  0.257746  0.787015  -0.193038
    C  C26  0.755554  0.757745  0.212984  -0.193058
    C  C27  0.258404  0.900184  0.809489  -0.171548
    C  C28  0.741596  0.400184  0.190511  -0.171581
    C  C29  0.296205  0.865606  0.752732  -0.421569
    C  C30  0.703795  0.365606  0.247268  -0.421542
    H  H11  0.347915  0.221343  0.781820  0.106691
    H  H12  0.652085  0.721346  0.218180  0.106693
    H  H13  0.267337  0.303164  0.840182  0.051588
    H  H14  0.732662  0.803162  0.159817  0.051594
    H  H15  0.232559  0.761989  0.818974  0.034970
    H  H16  0.767441  0.261989  0.181026  0.034975
    H  H17  0.293769  0.945192  0.857054  0.053096
    H  H18  0.706231  0.445192  0.142946  0.053103
    H  H19  0.276861  0.730666  0.723606  0.113778
    H  H20  0.723139  0.230665  0.276394  0.113773
    C  C31  0.369530  0.031261  0.618215  -0.066888
    C  C32  0.630469  0.531261  0.381785  -0.066890
    C  C33  0.207790  0.063807  0.787919  0.747767
    C  C34  0.792210  0.563807  0.212081  0.747823
    C  C35  0.298593  0.230752  0.746275  -0.173372
    C  C36  0.701407  0.730752  0.253724  -0.173342
    C  C37  0.285678  0.041619  0.704676  0.729299
    C  C38  0.714321  0.541619  0.295324  0.729242
    C  C39  0.213886  0.041675  0.665603  -0.111207
    C  C40  0.786113  0.541675  0.334396  -0.111202
    C  C41  0.168348  0.020499  0.716262  -0.128819
    C  C42  0.831652  0.520500  0.283738  -0.128827
    C  C43  0.331220  0.031380  0.656814  -0.461318
    C  C44  0.668779  0.531380  0.343186  -0.461301
    C  C45  0.162645  0.074840  0.836165  -0.439527
    C  C46  0.837354  0.574840  0.163835  -0.439555
    C  C47  0.125309  0.077932  0.875752  -0.089970
    C  C48  0.874690  0.577932  0.124248  -0.089956
    H  H21  0.126179  0.125994  0.702756  0.026526
    H  H22  0.873821  0.625995  0.297243  0.026528
    H  H23  0.148770  0.867179  0.714493  0.021383
    H  H24  0.851230  0.367180  0.285506  0.021382
    H  H25  0.203205  0.183255  0.637319  0.021619
    H  H26  0.796795  0.683256  0.362681  0.021617
    H  H27  0.208754  0.372819  0.762450  0.040909
    H  H28  0.791246  0.872819  0.237549  0.040904
    H  H29  0.298225  0.358825  0.711410  0.011880
    H  H30  0.701774  0.858826  0.288589  0.011874
    H  H31  0.205441  0.916402  0.628872  0.023158
    H  H32  0.794559  0.416403  0.371128  0.023159
    O  O11  0.937067  0.738496  0.053540  -0.552558
    O  O12  0.062932  0.238496  0.946460  -0.552546
    O  O13  0.078633  0.395230  0.075131  -0.511301
    O  O14  0.921367  0.895230  0.924868  -0.511298
    C  C49  0.105370  0.570552  0.087239  0.548886
    C  C50  0.894629  0.070552  0.912761  0.548879
    O  O15  0.943521  0.396689  0.067681  -0.558388
    O  O16  0.056478  0.896689  0.932319  -0.558377
    O  O17  0.919801  0.236701  0.939221  -0.489521
    O  O18  0.080199  0.736701  0.060779  -0.489521
    C  C51  0.919601  0.570818  0.077521  0.716712
    C  C52  0.080398  0.070818  0.922479  0.716708
    O  O19  0.993368  0.561791  0.957737  -0.510955
    O  O20  0.006632  0.061791  0.042263  -0.510957
    V  V3   0.001546  0.288246  0.008592  1.414888
    V  V4   0.998453  0.788246  0.991408  1.414854
    C  C53  0.368615  0.840066  0.782874  0.912164
    O  O21  0.399505  0.970786  0.817967  -0.613086
    O  O22  0.399871  0.671821  0.771695  -0.497316
    C  C54  0.466407  0.647820  0.799590  0.392388
    C  C55  0.489155  0.447330  0.779442  -0.323896
    H  H33  0.474605  0.657504  0.856281  -0.029677
    H  H34  0.495406  0.765560  0.780242  -0.004551
    H  H35  0.460140  0.329600  0.798772  0.115447
    H  H36  0.543009  0.427871  0.802042  0.036398
    H  H37  0.480977  0.437663  0.722751  0.123966
    C  C56  0.631385  0.340065  0.217126  0.912169
    O  O23  0.600495  0.470784  0.182033  -0.613090
    O  O24  0.600129  0.171820  0.228305  -0.497320
    C  C57  0.533593  0.147819  0.200410  0.392370
    C  C58  0.510845  0.947329  0.220559  -0.323864
    H  H38  0.525395  0.157502  0.143719  -0.029672
    H  H39  0.504594  0.265558  0.219758  -0.004550
    H  H40  0.539860  0.829598  0.201228  0.115431
    H  H41  0.456991  0.927869  0.197959  0.036390
    H  H42  0.519023  0.937661  0.277249  0.123966
    C  C59  0.701942  0.462423  0.806241  0.719721
    O  O25  0.657739  0.512083  0.758432  -0.386997
    O  O26  0.712050  0.567109  0.864992  -0.395062
    C  C60  0.669421  0.717824  0.872669  0.288411
    C  C61  0.708365  0.907905  0.889923  -0.289746
    H  H43  0.643848  0.680961  0.914948  0.015303
    H  H44  0.631713  0.737050  0.824385  -0.040115
    H  H45  0.747655  0.886051  0.936824  0.066917
    H  H46  0.674044  0.027254  0.898963  0.033075
    H  H47  0.731710  0.950025  0.846630  0.185797
    C  C62  0.298057  0.962423  0.193759  0.719696
    O  O27  0.342261  0.012083  0.241568  -0.386990
    O  O28  0.287949  0.067109  0.135008  -0.395052
    C  C63  0.330578  0.217824  0.127331  0.288416
    C  C64  0.291634  0.407905  0.110077  -0.289775
    H  H48  0.356151  0.180960  0.085052  0.015303
    H  H49  0.368286  0.237049  0.175615  -0.040115
    H  H50  0.252344  0.386051  0.063176  0.066927
    H  H51  0.325956  0.527254  0.101037  0.033080
    H  H52  0.268289  0.450025  0.153370  0.185812
