# Generated by REPEAT Assigner based on pymatgen
data_DB0-m29_o80_o90_f0_pts.sym.9
_audit_creation_date              2022-05-24
_audit_creation_method            REPEAT_Assigner
_cell_length_a                    14.250012
_cell_length_b                    16.534673
_cell_length_c                    13.337448
_cell_angle_alpha                 107.623991
_cell_angle_beta                  92.239604
_cell_angle_gamma                 108.611246
_cell_volume                      2806.216204
_symmetry_space_group_name_H-M    P1
_symmetry_Int_Tables_number       1
loop_
    _symmetry_equiv_pos_site_id
    _symmetry_equiv_pos_as_xyz
    1  x,y,z
loop_
    _atom_site_type_symbol
    _atom_site_label
    _atom_site_fract_x
    _atom_site_fract_y
    _atom_site_fract_z
    _atom_type_partial_charge
    H   H1   0.920961  0.128052  0.366444  0.192867
    C   C1   0.705473  0.925894  0.832723  -0.146881
    C   C2   0.746907  0.876542  0.757287  -0.295074
    C   C3   0.843203  0.895826  0.802557  0.537466
    N   N1   0.861799  0.952830  0.903656  -0.574501
    C   C4   0.777067  0.971331  0.922184  0.484495
    C   C5   0.909730  0.867116  0.748544  -0.409558
    C   C6   0.016980  0.897664  0.788648  0.415576
    C   C7   0.089555  0.901939  0.723450  -0.294245
    C   C8   0.180195  0.933501  0.788303  -0.179414
    C   C9   0.159076  0.947454  0.892048  0.323036
    N   N2   0.058941  0.924216  0.890755  -0.368534
    C   C10  0.232873  0.983111  0.989767  -0.279078
    C   C11  0.217710  0.031552  0.084077  0.411867
    C   C12  0.287697  0.072997  0.175646  -0.228830
    C   C13  0.245298  0.122021  0.250370  0.133097
    C   C14  0.151551  0.108353  0.203347  0.350342
    N   N3   0.134202  0.053004  0.101435  -0.511743
    C   C15  0.086683  0.142025  0.254814  -0.293928
    C   C16  0.979909  0.113106  0.214926  0.350473
    C   C17  0.908008  0.109982  0.280829  -0.282945
    C   C18  0.816972  0.076438  0.216466  -0.185327
    C   C19  0.837247  0.060558  0.112409  0.339914
    N   N4   0.937286  0.084145  0.112804  -0.340564
    C   C20  0.762327  0.021336  0.015551  -0.320699
    H   H2   0.712796  0.835619  0.676214  0.165558
    H   H3   0.885598  0.826779  0.665134  0.177696
    H   H4   0.077290  0.884801  0.637930  0.191234
    H   H5   0.305086  0.975119  0.983518  0.203003
    H   H6   0.110248  0.184311  0.337515  0.161765
    H   H7   0.689197  0.027161  0.022232  0.204373
    H   H8   0.020141  0.921881  0.954962  0.301436
    H   H9   0.975692  0.084435  0.048027  0.299628
    O   O1   0.635637  0.038218  0.201055  -0.659724
    C   C21  0.721660  0.057882  0.259104  0.770291
    O   O2   0.568196  0.858286  0.221999  -0.515289
    O   O3   0.723341  0.062198  0.359023  -0.535823
    O   O4   0.487412  0.922292  0.348438  -0.541092
    C   C22  0.521856  0.857003  0.304871  0.532018
    Fe  Fe1  0.525831  0.021691  0.287726  1.478162
    O   O5   0.398587  0.992676  0.192464  -0.635605
    O   O6   0.459805  0.145686  0.249482  -0.549274
    C   C23  0.387587  0.069639  0.196730  0.669193
    O   O7   0.577592  0.137991  0.410812  -0.608678
    O   O8   0.439116  0.062945  0.467646  -0.466181
    C   C24  0.516906  0.136359  0.482648  0.766325
    C   C25  0.520458  0.221215  0.562796  -0.128192
    C   C26  0.530567  0.293943  0.527871  0.095976
    H   H10  0.543711  0.287330  0.447093  0.081820
    C   C27  0.513843  0.370134  0.590559  -0.431356
    C   C28  0.493725  0.375848  0.692411  0.131973
    H   H11  0.481155  0.434688  0.743974  0.037894
    C   C29  0.486196  0.304871  0.729154  -0.205147
    H   H12  0.469267  0.311090  0.808823  0.148137
    C   C30  0.497184  0.226248  0.664836  0.131282
    N   N5   0.487705  0.512296  0.605822  -0.254866
    N   N6   0.480615  0.574204  0.565166  -0.244706
    C   C31  0.494947  0.566189  0.463943  0.782351
    N   N7   0.517329  0.494870  0.404732  -0.263515
    N   N8   0.524416  0.432949  0.445395  -0.229628
    C   C32  0.510069  0.440972  0.546630  0.755505
    C   C33  0.511035  0.631653  0.318341  0.120967
    H   H13  0.523658  0.572920  0.266576  0.039435
    C   C34  0.518162  0.702731  0.281850  -0.171401
    H   H14  0.534810  0.696626  0.202115  0.140129
    C   C35  0.507150  0.781251  0.346547  0.077692
    C   C36  0.484143  0.785917  0.448532  -0.127201
    C   C37  0.474242  0.713111  0.483117  0.112578
    H   H15  0.461006  0.719618  0.563829  0.075897
    C   C38  0.491050  0.637079  0.420173  -0.445157
    O   O9   0.597627  0.008989  0.819519  -0.628047
    O   O10  0.534403  0.855973  0.755594  -0.568579
    C   C39  0.606641  0.930709  0.811800  0.654877
    O   O11  0.422257  0.870002  0.595618  -0.595904
    O   O12  0.570499  0.941495  0.550778  -0.503995
    C   C40  0.488272  0.870616  0.529108  0.757057
    O   O13  0.430806  0.147859  0.786559  -0.501900
    O   O14  0.360787  0.967191  0.804835  -0.676498
    C   C41  0.276042  0.950647  0.746450  0.779168
    O   O15  0.517473  0.086065  0.665441  -0.532719
    C   C42  0.481178  0.150499  0.706672  0.475865
    O   O16  0.276094  0.947991  0.647153  -0.548569
    Fe  Fe2  0.473495  0.984257  0.721820  1.501938
    O   O17  0.285994  0.170179  0.354683  -0.247612
    C   C43  0.251030  0.110025  0.410729  -0.021527
    H   H16  0.171380  0.099397  0.419200  0.020298
    H   H17  0.295126  0.139056  0.491524  0.094542
    H   H18  0.259134  0.044127  0.369021  0.074308
