# Generated by REPEAT Assigner based on pymatgen
data_DB0-m3_o11_o15_f0_nbo.sym.99
_audit_creation_date              2022-05-24
_audit_creation_method            REPEAT_Assigner
_cell_length_a                    19.032855
_cell_length_b                    19.045643
_cell_length_c                    19.256627
_cell_angle_alpha                 109.171909
_cell_angle_beta                  109.650716
_cell_angle_gamma                 109.122812
_cell_volume                      5404.230453
_symmetry_space_group_name_H-M    P1
_symmetry_Int_Tables_number       1
loop_
    _symmetry_equiv_pos_site_id
    _symmetry_equiv_pos_as_xyz
    1  x,y,z
loop_
    _atom_site_type_symbol
    _atom_site_label
    _atom_site_fract_x
    _atom_site_fract_y
    _atom_site_fract_z
    _atom_type_partial_charge
    O   O1   0.411854  0.368741  0.468922  -0.675381
    O   O2   0.404488  0.474628  0.563302  -0.669203
    C   C1   0.381104  0.394217  0.517815  0.669699
    O   O3   0.592160  0.459296  0.552045  -0.644437
    O   O4   0.585123  0.561176  0.650854  -0.676473
    C   C2   0.617205  0.511184  0.630802  0.717242
    Zn  Zn1  0.497858  0.438081  0.445407  1.257580
    Zn  Zn2  0.495429  0.577820  0.575625  1.282264
    O   O5   0.587684  0.541180  0.456603  -0.669331
    O   O6   0.582872  0.647212  0.553395  -0.683020
    O   O7   0.406685  0.453339  0.370195  -0.640909
    O   O8   0.402374  0.557904  0.468977  -0.675117
    C   C3   0.612842  0.621666  0.503595  0.678630
    C   C4   0.374916  0.503607  0.390450  0.714917
    H   H1   0.528911  0.221791  0.578780  0.094235
    C   C5   0.769887  0.664959  0.769375  -0.218998
    C   C6   0.837139  0.740514  0.839574  -0.095670
    C   C7   0.889347  0.739912  0.908400  -0.061938
    C   C8   0.877663  0.663577  0.905217  -0.254366
    C   C9   0.812581  0.586284  0.832878  0.160935
    C   C10  0.754186  0.587200  0.766959  0.157612
    C   C11  0.805535  0.508818  0.826211  -0.215595
    C   C12  0.735138  0.432280  0.756559  0.164487
    C   C13  0.670587  0.433744  0.696856  0.154525
    C   C14  0.681796  0.510890  0.699401  -0.223519
    C   C15  0.728486  0.353672  0.744718  -0.231391
    C   C16  0.655285  0.278655  0.680517  -0.085381
    C   C17  0.587587  0.280632  0.627564  -0.073736
    C   C18  0.595031  0.357356  0.635182  -0.248657
    H   H2   0.731590  0.669577  0.717047  0.157494
    H   H3   0.847868  0.800474  0.841069  0.100132
    H   H4   0.940679  0.799407  0.964633  0.091278
    H   H5   0.920126  0.667129  0.961604  0.176863
    H   H6   0.779629  0.347743  0.783671  0.161603
    H   H7   0.650525  0.218171  0.672877  0.094004
    H   H8   0.539279  0.354845  0.592338  0.166976
    C   C19  0.251896  0.189530  0.510596  -0.085583
    C   C20  0.173341  0.178814  0.489125  -0.144746
    H   H9   0.269789  0.147014  0.528441  0.142677
    H   H10  0.152393  0.215501  0.463205  0.117051
    C   C21  0.313009  0.253774  0.503358  -0.124178
    C   C22  0.318110  0.329988  0.522800  -0.136572
    H   H11  0.358603  0.240549  0.487812  0.152988
    H   H12  0.279442  0.347432  0.547678  0.125808
    C   C23  0.170426  0.435834  0.194861  -0.156529
    C   C24  0.186537  0.499308  0.176677  -0.149048
    H   H13  0.105373  0.383706  0.161892  0.149904
    H   H14  0.251950  0.547547  0.202648  0.117898
    C   C25  0.239708  0.430515  0.253210  0.083319
    C   C26  0.306870  0.501977  0.323550  -0.244190
    H   H15  0.306904  0.561934  0.337681  0.129081
    C   C27  0.754967  0.826834  0.518899  -0.100657
    C   C28  0.830057  0.830237  0.533426  -0.147963
    H   H16  0.741538  0.873639  0.505970  0.140977
    H   H17  0.847837  0.789728  0.555222  0.115859
    C   C29  0.691844  0.764864  0.526604  -0.073616
    C   C30  0.678629  0.685253  0.500458  -0.158821
    H   H18  0.650857  0.782674  0.547214  0.136776
    H   H19  0.713184  0.664598  0.471357  0.127474
    O   O9   0.939684  0.362898  0.917432  -0.692013
    O   O10  0.037904  0.460533  0.904868  -0.668444
    C   C31  0.985965  0.381896  0.882229  0.695511
    O   O11  0.854233  0.461778  0.925571  -0.669873
    O   O12  0.953525  0.554694  0.910241  -0.652916
    C   C32  0.874323  0.508488  0.890724  0.699314
    Zn  Zn3  0.929900  0.441015  0.010299  1.275755
    Zn  Zn4  0.061548  0.569637  0.997179  1.283568
    O   O13  0.954926  0.550087  0.103739  -0.667506
    O   O14  0.050227  0.647703  0.088744  -0.690871
    O   O15  0.037812  0.454207  0.095696  -0.669930
    O   O16  0.137490  0.550384  0.083257  -0.696398
    C   C33  0.005082  0.628675  0.125048  0.692054
    C   C34  0.117030  0.501530  0.115853  0.720094
    O   O17  0.069044  0.091744  0.652540  -0.595357
    O   O18  0.963556  0.104412  0.563052  -0.656321
    C   C35  0.021701  0.127945  0.639066  0.579339
    O   O19  0.139045  0.081644  0.541413  -0.703007
    O   O20  0.031163  0.094777  0.455581  -0.670918
    C   C36  0.111593  0.114578  0.495222  0.699064
    Zn  Zn5  0.073454  0.997525  0.569114  1.261028
    Zn  Zn6  0.930593  0.008957  0.451315  1.290465
    O   O21  0.040563  0.902154  0.457462  -0.654235
    O   O22  0.935192  0.914889  0.367732  -0.696246
    O   O23  0.972788  0.911863  0.564994  -0.671751
    O   O24  0.865029  0.924924  0.479066  -0.695184
    C   C37  0.982931  0.878996  0.381535  0.708348
    C   C38  0.892309  0.892293  0.525564  0.710841
    C   C39  0.007438  0.252203  0.701013  -0.238539
    C   C40  0.035673  0.198730  0.712779  0.066059
    H   H20  0.979839  0.245461  0.638420  0.160610
    C   C41  0.016784  0.324447  0.769693  -0.007617
    C   C42  0.979538  0.311166  0.815146  -0.195740
    H   H21  0.047227  0.387530  0.777183  0.127198
    H   H22  0.942805  0.246662  0.801823  0.134884
    C   C43  0.997719  0.755326  0.318714  -0.100927
    C   C44  0.972946  0.810943  0.308712  -0.162156
    H   H23  0.019442  0.756869  0.379209  0.137933
    H   H24  0.942653  0.804425  0.246471  0.121560
    C   C45  0.988294  0.685586  0.247569  -0.056767
    C   C46  0.010419  0.698591  0.192221  -0.183743
    H   H25  0.970901  0.624563  0.245718  0.134561
    H   H26  0.036835  0.761881  0.199214  0.132763
    C   C47  0.225509  0.343274  0.237442  -0.078659
    C   C48  0.273535  0.318827  0.195786  0.093113
    C   C49  0.269463  0.243275  0.175494  -0.519929
    H   H27  0.156369  0.296261  0.194136  0.054940
    H   H28  0.244652  0.340444  0.297153  0.093422
    H   H29  0.311740  0.362638  0.181935  0.069650
    H   H30  0.231323  0.199345  0.189282  0.183735
    H   H31  0.304363  0.225560  0.145158  0.166334
    C   C50  0.087163  0.211494  0.799008  -0.016148
    C   C51  0.036637  0.140096  0.808435  -0.033034
    C   C52  0.065681  0.088641  0.822703  -0.433348
    H   H32  0.105496  0.272776  0.851209  0.044271
    H   H33  0.147858  0.212837  0.805835  0.046636
    H   H34  0.975437  0.130064  0.803762  0.090278
    H   H35  0.126696  0.097266  0.827683  0.174884
    H   H36  0.027820  0.037272  0.829348  0.154104
