# Generated by REPEAT Assigner based on pymatgen
data_DB0-m3_o115_o156_f0_fsc.sym.66_sqe
_audit_creation_date              2022-05-24
_audit_creation_method            REPEAT_Assigner
_cell_length_a                    16.528574
_cell_length_b                    16.652143
_cell_length_c                    17.403125
_cell_angle_alpha                 98.952744
_cell_angle_beta                  90.723527
_cell_angle_gamma                 90.065275
_cell_volume                      4731.212642
_symmetry_space_group_name_H-M    P1
_symmetry_Int_Tables_number       1
loop_
    _symmetry_equiv_pos_site_id
    _symmetry_equiv_pos_as_xyz
    1  x,y,z
loop_
    _atom_site_type_symbol
    _atom_site_label
    _atom_site_fract_x
    _atom_site_fract_y
    _atom_site_fract_z
    _atom_type_partial_charge
    H   H1   0.921711  0.730711  0.061099  0.139200
    H   H2   0.077886  0.286831  0.942657  0.140412
    C   C1   0.256326  0.967050  0.998311  -0.313437
    C   C2   0.743254  0.050544  0.005514  -0.317558
    C   C3   0.256297  0.049601  0.998619  -0.313203
    C   C4   0.743283  0.967998  0.005231  -0.309193
    C   C5   0.176108  0.073002  0.998996  0.463874
    C   C6   0.823471  0.944594  0.004845  0.457199
    N   N1   0.127298  0.008338  0.999721  -0.590587
    N   N2   0.872281  0.009254  0.004099  -0.589388
    C   C7   0.176180  0.943666  0.999538  0.465513
    C   C8   0.823399  0.073924  0.004271  0.470386
    C   C9   0.150869  0.148911  0.996736  -0.271069
    C   C10  0.848708  0.868686  0.007115  -0.270623
    C   C11  0.065058  0.171845  0.990331  0.175038
    C   C12  0.934522  0.845743  0.013499  0.172449
    C   C13  0.040356  0.241342  0.962759  -0.218158
    C   C14  0.959232  0.776220  0.041019  -0.220471
    C   C15  0.957215  0.241624  0.964069  -0.219166
    C   C16  0.042373  0.775932  0.039684  -0.217949
    C   C17  0.933929  0.172307  0.992434  0.180164
    C   C18  0.065653  0.845270  0.011352  0.180455
    N   N3   0.999979  0.130601  0.009726  -0.144393
    N   N4   0.999597  0.886995  0.994107  -0.144769
    C   C19  0.848463  0.149754  0.001139  -0.291118
    C   C20  0.151118  0.867828  0.002641  -0.287755
    H   H3   0.309808  0.929707  0.998090  0.157924
    H   H4   0.689772  0.087889  0.005733  0.162301
    H   H5   0.309738  0.086937  0.997815  0.163583
    H   H6   0.689841  0.930667  0.006061  0.158734
    H   H7   0.918698  0.287354  0.945119  0.140238
    H   H8   0.080895  0.730182  0.058594  0.136600
    H   H9   0.627370  0.534167  0.199528  0.130489
    H   H10  0.372206  0.483567  0.804204  0.133376
    H   H11  0.000813  0.079729  0.037535  0.218508
    H   H12  0.998760  0.937885  0.966324  0.213316
    C   C21  0.755946  0.790406  0.077680  -0.208440
    C   C22  0.243801  0.226974  0.926139  -0.185943
    H   H13  0.775959  0.826100  0.131832  0.100613
    H   H14  0.223946  0.191097  0.872023  0.098442
    C   C23  0.698528  0.730263  0.078016  -0.040066
    C   C24  0.301206  0.287120  0.925758  -0.080454
    C   C25  0.672379  0.684971  0.008712  -0.155948
    C   C26  0.327164  0.332630  0.995019  -0.080120
    C   C27  0.704758  0.699954  0.939374  -0.018990
    C   C28  0.294582  0.317891  0.064356  -0.124368
    H   H15  0.685748  0.665302  0.884389  0.087345
    H   H16  0.313420  0.352738  0.119307  0.142599
    C   C29  0.762563  0.759511  0.939374  -0.286255
    C   C30  0.236775  0.258342  0.064397  -0.215643
    H   H17  0.787725  0.770949  0.885070  0.119494
    H   H18  0.211449  0.247104  0.118701  0.110867
    C   C31  0.787950  0.805005  0.008317  0.349311
    C   C32  0.211614  0.212596  0.995500  0.308852
    C   C33  0.247609  0.791826  0.073253  -0.206880
    C   C34  0.751997  0.225746  0.930489  -0.186967
    H   H19  0.230443  0.829087  0.127046  0.101379
    H   H20  0.769176  0.188480  0.876704  0.099360
    C   C35  0.304975  0.731833  0.074010  -0.040033
    C   C36  0.694635  0.285740  0.929710  -0.082028
    H   H21  0.332268  0.723149  0.128851  0.087720
    H   H22  0.667357  0.294421  0.874862  0.107764
    C   C37  0.327500  0.684405  0.005203  -0.146878
    C   C38  0.672094  0.333173  0.998509  -0.091571
    C   C39  0.291526  0.697210  0.935919  -0.036199
    C   C40  0.708048  0.320375  0.067803  -0.088844
    H   H23  0.307690  0.660882  0.881339  0.097882
    H   H24  0.691871  0.356708  0.122378  0.123850
    C   C41  0.233755  0.756701  0.935518  -0.286557
    C   C42  0.765815  0.260886  0.068226  -0.262817
    H   H25  0.205771  0.766402  0.881265  0.118909
    H   H26  0.793783  0.251191  0.122488  0.122516
    C   C43  0.211999  0.804300  0.003988  0.362060
    C   C44  0.787586  0.213279  0.999767  0.342469
    H   H27  0.674007  0.719799  0.132878  0.089601
    H   H28  0.325888  0.297401  0.870903  0.101062
    O   O1   0.582206  0.586737  0.940275  -0.654517
    O   O2   0.417366  0.430833  0.063410  -0.622620
    O   O3   0.585683  0.602769  0.074146  -0.656729
    O   O4   0.413891  0.414796  0.929557  -0.640851
    C   C45  0.610442  0.621828  0.007907  0.749232
    C   C46  0.389123  0.395745  0.995792  0.688208
    O   O5   0.417642  0.605241  0.071873  -0.656110
    O   O6   0.581947  0.412332  0.931834  -0.641344
    O   O7   0.414031  0.583546  0.937738  -0.656737
    O   O8   0.585554  0.434022  0.065950  -0.632402
    C   C47  0.389335  0.621327  0.005096  0.743179
    C   C48  0.610257  0.396245  0.998603  0.692605
    Zn  Zn1  0.500064  0.520296  0.088499  1.010810
    Zn  Zn2  0.499515  0.497263  0.915196  1.025262
    C   C49  0.429323  0.527711  0.227016  -0.077135
    C   C50  0.570268  0.489246  0.776565  -0.069878
    N   N5   0.500205  0.531362  0.190300  -0.037689
    N   N6   0.499374  0.486160  0.813391  -0.051584
    C   C51  0.570894  0.532778  0.229892  -0.074764
    C   C52  0.428688  0.484441  0.773759  -0.069242
    C   C53  0.355677  0.516907  0.342440  -0.151442
    C   C54  0.643975  0.497686  0.660638  -0.136242
    C   C55  0.428174  0.523166  0.305489  0.081449
    C   C56  0.571451  0.492377  0.697817  0.084705
    C   C57  0.499809  0.522515  0.346209  0.041958
    C   C58  0.499828  0.492354  0.656961  0.024403
    C   C59  0.571611  0.528372  0.308412  0.101905
    C   C60  0.427993  0.487637  0.695007  0.110787
    C   C61  0.643895  0.527423  0.348572  -0.278242
    C   C62  0.355709  0.488452  0.654820  -0.284893
    C   C63  0.282538  0.501454  0.458485  0.374322
    C   C64  0.717229  0.508932  0.543628  0.385326
    C   C65  0.354906  0.508607  0.420420  -0.075771
    C   C66  0.644813  0.503350  0.582062  -0.087349
    C   C67  0.427337  0.507802  0.460995  0.094380
    C   C68  0.572356  0.504908  0.541668  0.073756
    C   C69  0.283330  0.495880  0.536669  -0.393968
    C   C70  0.716321  0.518186  0.466303  -0.390149
    C   C71  0.355610  0.494724  0.576715  0.242579
    C   C72  0.644027  0.519823  0.426376  0.228881
    C   C73  0.499676  0.514726  0.423847  0.004255
    C   C74  0.499991  0.498862  0.579027  0.034206
    C   C75  0.572021  0.513087  0.463998  -0.074776
    C   C76  0.427653  0.500248  0.538813  -0.103778
    H   H29  0.373160  0.525416  0.194283  0.119303
    H   H30  0.626433  0.491766  0.809316  0.126323
    H   H31  0.300131  0.517953  0.309300  0.136036
    H   H32  0.699492  0.498213  0.694082  0.131971
    H   H33  0.700423  0.531807  0.318932  0.150935
    H   H34  0.299160  0.484918  0.684646  0.152599
    H   H35  0.226817  0.491305  0.566295  0.161226
    H   H36  0.772821  0.523095  0.436750  0.158928
    N   N7   0.207449  0.501999  0.419115  -0.671587
    C   C77  0.183249  0.427850  0.383736  0.827625
    O   O9   0.232426  0.373508  0.367624  -0.544012
    C   C78  0.096004  0.411991  0.364805  -0.553930
    H   H37  0.161968  0.534686  0.449270  0.313840
    H   H38  0.074324  0.454212  0.325676  0.139652
    H   H39  0.060490  0.421267  0.419114  0.132313
    H   H40  0.088174  0.348406  0.335356  0.159713
    N   N8   0.792356  0.507345  0.582744  -0.661012
    C   C79  0.821004  0.431644  0.583487  0.818414
    O   O10  0.775161  0.373428  0.573630  -0.552527
    C   C80  0.909122  0.418917  0.595655  -0.520551
    H   H41  0.835678  0.547192  0.569338  0.309915
    H   H42  0.928640  0.453575  0.652507  0.133996
    H   H43  0.943634  0.440108  0.548318  0.116596
    H   H44  0.920789  0.353287  0.595228  0.152224
