# Generated by REPEAT Assigner based on pymatgen
data_DB0-m3_o11_o26_f0_pcu.sym.12
_audit_creation_date              2022-05-24
_audit_creation_method            REPEAT_Assigner
_cell_length_a                    9.916350
_cell_length_b                    11.154073
_cell_length_c                    17.479467
_cell_angle_alpha                 90.006809
_cell_angle_beta                  86.235059
_cell_angle_gamma                 89.997438
_cell_volume                      1929.190874
_symmetry_space_group_name_H-M    P1
_symmetry_Int_Tables_number       1
loop_
    _symmetry_equiv_pos_site_id
    _symmetry_equiv_pos_as_xyz
    1  x,y,z
loop_
    _atom_site_type_symbol
    _atom_site_label
    _atom_site_fract_x
    _atom_site_fract_y
    _atom_site_fract_z
    _atom_type_partial_charge
    O   O1   0.387847  0.677123  0.498523  -0.722024
    O   O2   0.620125  0.678654  0.498402  -0.676751
    C   C1   0.503268  0.733897  0.498123  0.914539
    O   O3   0.369412  0.501411  0.615199  -0.679563
    O   O4   0.601470  0.502528  0.614758  -0.667400
    C   C2   0.481656  0.503252  0.650961  0.713100
    Zn  Zn1  0.348334  0.499039  0.500656  1.097064
    Zn  Zn2  0.654945  0.499661  0.500961  1.041633
    O   O5   0.383017  0.320021  0.502529  -0.701533
    O   O6   0.615895  0.321402  0.502026  -0.612341
    O   O7   0.401275  0.495065  0.386791  -0.636628
    O   O8   0.634358  0.496691  0.386361  -0.662625
    C   C3   0.499976  0.264463  0.502893  0.865544
    C   C4   0.521597  0.495079  0.350696  0.622522
    C   C5   0.474212  0.505761  0.735075  -0.042510
    C   C6   0.591636  0.510707  0.773453  -0.100097
    C   C7   0.586378  0.513314  0.852413  -0.204702
    C   C8   0.463048  0.509992  0.894429  0.263378
    C   C9   0.345808  0.507064  0.855861  -0.245374
    C   C10  0.351006  0.504423  0.776789  -0.062898
    C   C11  0.416996  0.484220  0.149217  -0.215345
    C   C12  0.411688  0.486993  0.228174  -0.101408
    C   C13  0.652304  0.493726  0.224869  -0.069535
    C   C14  0.657542  0.490913  0.145800  -0.254883
    C   C15  0.540331  0.487702  0.107217  0.272925
    C   C16  0.451126  0.513810  0.978993  -0.225032
    C   C17  0.552278  0.483815  0.022656  -0.228810
    C   C18  0.529080  0.492258  0.266576  -0.011765
    H   H1   0.689481  0.513687  0.742448  0.111854
    H   H2   0.313814  0.483930  0.259142  0.105823
    H   H3   0.745744  0.497138  0.253310  0.100383
    H   H4   0.648836  0.455758  0.996410  0.133778
    H   H5   0.248588  0.505758  0.887678  0.127405
    H   H6   0.322894  0.476281  0.122030  0.130310
    H   H7   0.257560  0.501286  0.748340  0.104494
    H   H8   0.354587  0.541893  0.005253  0.135998
    H   H9   0.680518  0.521022  0.879583  0.128506
    H   H10  0.754770  0.492351  0.113993  0.132273
    C   C19  0.611263  0.064898  0.498792  0.561071
    C   C20  0.498371  0.132431  0.504109  -0.614104
    H   H11  0.399383  0.092081  0.510241  0.220082
    C   C21  0.609344  0.932120  0.500356  -0.164804
    C   C22  0.498105  0.865189  0.496455  -0.362361
    H   H12  0.706023  0.887820  0.503625  0.104936
    H   H13  0.399646  0.904526  0.491443  0.149373
    C   C23  0.079576  0.421168  0.463464  0.085095
    N   N1   0.146963  0.500468  0.498260  -0.270690
    H   H14  0.132459  0.345952  0.436099  0.129934
    H   H15  0.097623  0.578504  0.513785  0.245507
    C   C24  0.932054  0.432760  0.455966  0.105601
    N   N2   0.856422  0.496791  0.502485  -0.300782
    H   H16  0.886321  0.381849  0.411634  0.150420
    H   H17  0.899049  0.529601  0.550160  0.274610
    O   O9   0.735644  0.118659  0.492570  -0.504707
    H   H18  0.762562  0.116539  0.437022  0.310518
