# Generated by REPEAT Assigner based on pymatgen
data_DB0-m2_o14_o14_f0_pcu.sym.55
_audit_creation_date              2022-05-24
_audit_creation_method            REPEAT_Assigner
_cell_length_a                    14.964632
_cell_length_b                    15.618775
_cell_length_c                    9.424192
_cell_angle_alpha                 90.000000
_cell_angle_beta                  89.983510
_cell_angle_gamma                 90.000000
_cell_volume                      2202.708947
_symmetry_space_group_name_H-M    P1
_symmetry_Int_Tables_number       1
loop_
    _symmetry_equiv_pos_site_id
    _symmetry_equiv_pos_as_xyz
    1  x,y,z
loop_
    _atom_site_type_symbol
    _atom_site_label
    _atom_site_fract_x
    _atom_site_fract_y
    _atom_site_fract_z
    _atom_type_partial_charge
    O   O1   0.460513  0.904219  0.666965  -0.604466
    O   O2   0.432990  0.077444  0.655105  -0.584486
    O   O3   0.932990  0.422557  0.655105  -0.584489
    O   O4   0.960513  0.595782  0.666965  -0.604474
    O   O5   0.434195  0.923594  0.426125  -0.607219
    O   O6   0.459182  0.097245  0.413747  -0.631176
    O   O7   0.959182  0.402756  0.413747  -0.631196
    O   O8   0.934195  0.576407  0.426125  -0.607231
    C   C1   0.414799  0.888099  0.550165  0.756006
    C   C2   0.414588  0.113506  0.531452  0.740130
    C   C3   0.914588  0.386495  0.531452  0.740112
    C   C4   0.914799  0.611902  0.550165  0.755996
    Cu  Cu1  0.537892  0.004574  0.680751  0.858144
    Cu  Cu2  0.037893  0.495427  0.680751  0.858246
    Cu  Cu3  0.538055  0.997942  0.400107  0.940880
    Cu  Cu4  0.038055  0.502059  0.400107  0.940846
    O   O9   0.613569  0.104907  0.651662  -0.629914
    O   O10  0.641871  0.929610  0.663158  -0.513775
    O   O11  0.141871  0.570391  0.663158  -0.513780
    O   O12  0.113569  0.395095  0.651662  -0.629920
    O   O13  0.640904  0.074373  0.417264  -0.689270
    O   O14  0.615215  0.898559  0.429226  -0.594750
    O   O15  0.115215  0.601442  0.429226  -0.594768
    O   O16  0.140904  0.425628  0.417264  -0.689300
    C   C5   0.652532  0.121828  0.530481  0.839778
    C   C6   0.654346  0.881877  0.550355  0.654284
    C   C7   0.154346  0.618124  0.550355  0.654304
    C   C8   0.152532  0.378173  0.530481  0.839800
    H   H1   0.425957  0.267499  0.416807  0.092696
    H   H2   0.378528  0.775675  0.349758  0.103506
    H   H3   0.878528  0.724327  0.349757  0.103501
    H   H4   0.925957  0.232503  0.416807  0.092698
    C   C9   0.234676  0.079912  0.624330  -0.165237
    C   C10  0.283681  0.871198  0.781307  -0.161981
    C   C11  0.783680  0.628803  0.781306  -0.161944
    C   C12  0.734676  0.420090  0.624330  -0.165176
    H   H5   0.279873  0.026669  0.616009  0.091349
    H   H6   0.325848  0.926269  0.782542  0.194705
    H   H7   0.825847  0.573731  0.782544  0.194693
    H   H8   0.779872  0.473333  0.616009  0.091351
    C   C13  0.150449  0.063302  0.675377  -0.181984
    C   C14  0.224743  0.863387  0.892260  -0.177881
    C   C15  0.724743  0.636615  0.892260  -0.177872
    C   C16  0.650449  0.436699  0.675377  -0.182108
    H   H9   0.133638  0.999388  0.710266  0.091923
    H   H10  0.225933  0.909847  0.977251  0.091733
    H   H11  0.725932  0.590154  0.977251  0.091725
    H   H12  0.633638  0.500613  0.710266  0.091942
    C   C17  0.662256  0.700651  0.892081  0.044449
    C   C18  0.587169  0.373137  0.678010  0.054025
    C   C19  0.087169  0.126864  0.678010  0.053830
    C   C20  0.162256  0.799350  0.892081  0.044491
    C   C21  0.659405  0.757406  0.780235  -0.203107
    C   C22  0.608241  0.292584  0.628025  -0.235731
    C   C23  0.108241  0.207418  0.628025  -0.235643
    C   C24  0.159405  0.742595  0.780235  -0.203120
    H   H13  0.605403  0.802676  0.779275  0.164690
    H   H14  0.555344  0.246022  0.623288  0.184275
    H   H15  0.055345  0.253979  0.623288  0.184273
    H   H16  0.105404  0.697325  0.779273  0.164694
    C   C25  0.721460  0.752821  0.670077  0.136906
    C   C26  0.693962  0.274259  0.579128  0.167233
    C   C27  0.193962  0.225743  0.579128  0.167183
    C   C28  0.221460  0.747180  0.670077  0.136893
    C   C29  0.257932  0.161290  0.578528  0.167297
    C   C30  0.284456  0.813004  0.670023  0.190772
    C   C31  0.784456  0.686997  0.670023  0.190738
    C   C32  0.757932  0.338711  0.578528  0.167225
    C   C33  0.342921  0.177509  0.525065  -0.180245
    C   C34  0.343391  0.822549  0.555359  -0.253312
    C   C35  0.843391  0.677453  0.555358  -0.253293
    C   C36  0.842921  0.322492  0.525065  -0.180202
    C   C37  0.360735  0.255193  0.461723  -0.023892
    C   C38  0.334680  0.768846  0.440200  -0.035278
    C   C39  0.834680  0.731156  0.440200  -0.035278
    C   C40  0.860735  0.244808  0.461723  -0.023895
    H   H17  0.769546  0.838102  0.349777  0.085127
    H   H18  0.813692  0.119328  0.415975  0.107458
    H   H19  0.313691  0.380674  0.415976  0.107452
    H   H20  0.269545  0.661899  0.349778  0.085131
    C   C41  0.772819  0.796252  0.440568  -0.069017
    C   C42  0.797354  0.180986  0.461157  -0.073029
    C   C43  0.297354  0.319015  0.461157  -0.073012
    C   C44  0.272819  0.703749  0.440568  -0.069027
    C   C45  0.717945  0.809830  0.556134  -0.160529
    C   C46  0.715297  0.193858  0.524175  -0.204832
    C   C47  0.215297  0.306144  0.524175  -0.204836
    C   C48  0.217945  0.690171  0.556134  -0.160528
    H   H21  0.401341  0.005493  0.171476  0.104444
    H   H22  0.901342  0.494508  0.171478  0.104443
    C   C49  0.701703  0.983372  0.180736  -0.251419
    C   C50  0.201703  0.516629  0.180736  -0.251391
    H   H23  0.709054  0.969916  0.289928  0.209603
    H   H24  0.209055  0.530085  0.289927  0.209601
    C   C51  0.781219  0.989861  0.109968  -0.009539
    C   C52  0.281219  0.510140  0.109968  -0.009568
    H   H25  0.843611  0.982106  0.166305  0.082466
    H   H26  0.343611  0.517896  0.166305  0.082472
    C   C53  0.781251  0.008728  0.969509  -0.173880
    C   C54  0.281251  0.491273  0.969509  -0.173864
    H   H27  0.843628  0.016884  0.913417  0.149387
    H   H28  0.343629  0.483117  0.913418  0.149388
    C   C55  0.701749  0.017330  0.899433  -0.197360
    C   C56  0.201749  0.482671  0.899433  -0.197381
    H   H29  0.708997  0.034957  0.791526  0.150532
    H   H30  0.208996  0.465044  0.791526  0.150535
    C   C57  0.619406  0.006263  0.966880  0.216287
    C   C58  0.119406  0.493738  0.966880  0.216325
    C   C59  0.619348  0.993637  0.113251  0.265990
    C   C60  0.119348  0.506364  0.113251  0.265950
    N   N1   0.540945  0.992098  0.187313  -0.162973
    N   N2   0.040945  0.507903  0.187313  -0.162936
    C   C61  0.464078  0.002475  0.114875  0.043308
    C   C62  0.964079  0.497526  0.114875  0.043283
    H   H31  0.401130  0.016707  0.914172  0.128741
    H   H32  0.901129  0.483295  0.914173  0.128729
    C   C63  0.463989  0.009221  0.968078  -0.078684
    C   C64  0.963989  0.490781  0.968078  -0.078646
    N   N3   0.540958  0.010304  0.893527  -0.122844
    N   N4   0.040958  0.489697  0.893527  -0.122880
    C   C65  0.597534  0.705931  0.008714  0.372437
    H   H33  0.600040  0.659613  0.094283  0.006580
    O   O17  0.541019  0.762146  0.010938  -0.443046
    C   C66  0.497127  0.392848  0.729940  0.357684
    H   H34  0.481372  0.457287  0.764424  -0.007818
    O   O18  0.439867  0.337428  0.735612  -0.416057
    C   C67  0.997128  0.107153  0.729941  0.357789
    H   H35  0.981373  0.042714  0.764425  -0.007838
    O   O19  0.939867  0.162573  0.735612  -0.416083
    C   C68  0.097534  0.794070  0.008715  0.372386
    H   H36  0.100041  0.840389  0.094283  0.006593
    O   O20  0.041019  0.737854  0.010939  -0.443033
