# Generated by REPEAT Assigner based on pymatgen
data_DB0-m3_o25_o26_f0_pcu.sym.79_sqe
_audit_creation_date              2022-05-24
_audit_creation_method            REPEAT_Assigner
_cell_length_a                    14.841277
_cell_length_b                    15.990067
_cell_length_c                    17.438636
_cell_angle_alpha                 90.002930
_cell_angle_beta                  86.284785
_cell_angle_gamma                 90.004580
_cell_volume                      4129.718132
_symmetry_space_group_name_H-M    P1
_symmetry_Int_Tables_number       1
loop_
    _symmetry_equiv_pos_site_id
    _symmetry_equiv_pos_as_xyz
    1  x,y,z
loop_
    _atom_site_type_symbol
    _atom_site_label
    _atom_site_fract_x
    _atom_site_fract_y
    _atom_site_fract_z
    _atom_type_partial_charge
    O   O1   0.422146  0.624430  0.499004  -0.690195
    O   O2   0.577855  0.375570  0.500996  -0.690177
    O   O3   0.577933  0.624724  0.496200  -0.640294
    O   O4   0.422068  0.375276  0.503800  -0.640545
    C   C1   0.500000  0.663411  0.496935  0.834880
    C   C2   0.500001  0.336589  0.503065  0.835167
    O   O5   0.415546  0.502447  0.615844  -0.675720
    O   O6   0.584454  0.497553  0.384156  -0.675594
    O   O7   0.571113  0.502902  0.613041  -0.640444
    O   O8   0.428888  0.497098  0.386959  -0.640826
    C   C3   0.491529  0.504471  0.650442  0.757080
    C   C4   0.508472  0.495529  0.349558  0.757334
    Zn  Zn1  0.397372  0.499830  0.501709  1.072551
    Zn  Zn2  0.602629  0.500170  0.498291  1.072057
    C   C5   0.486350  0.505282  0.734792  0.006928
    C   C6   0.513651  0.494718  0.265207  0.006920
    C   C7   0.547932  0.548512  0.776586  -0.054692
    C   C8   0.452068  0.451487  0.223414  -0.054770
    C   C9   0.540308  0.545915  0.855784  -0.086675
    C   C10  0.459693  0.454085  0.144216  -0.086522
    C   C11  0.472166  0.500760  0.894585  0.206721
    C   C12  0.527835  0.499240  0.105415  0.206652
    C   C13  0.409636  0.459457  0.852809  -0.080507
    C   C14  0.590364  0.540543  0.147191  -0.080394
    C   C15  0.416941  0.462071  0.773645  -0.115960
    C   C16  0.583059  0.537928  0.226355  -0.115983
    C   C17  0.463683  0.499884  0.979215  -0.152373
    C   C18  0.536318  0.500116  0.020785  -0.152472
    H   H1   0.631414  0.572144  0.257900  0.112453
    H   H2   0.368586  0.427856  0.742101  0.112482
    H   H3   0.602999  0.498878  0.991835  0.102138
    H   H4   0.397001  0.501122  0.008164  0.101912
    H   H5   0.413014  0.417398  0.113113  0.041288
    H   H6   0.586987  0.582602  0.886887  0.041306
    C   C19  0.462762  0.028487  0.438394  -0.147617
    C   C20  0.537238  0.971513  0.561606  -0.147448
    C   C21  0.546734  0.973864  0.437506  -0.169943
    C   C22  0.453267  0.026135  0.562494  -0.170052
    H   H7   0.585477  0.949844  0.385616  0.057990
    H   H8   0.414524  0.050156  0.614384  0.058002
    H   H9   0.431856  0.054492  0.387322  0.057960
    H   H10  0.568144  0.945507  0.612677  0.057912
    H   H11  0.653792  0.051889  0.500881  0.060772
    H   H12  0.346209  0.948111  0.499119  0.060766
    C   C23  0.499869  0.753137  0.496869  -0.157060
    C   C24  0.500131  0.246863  0.503131  -0.157152
    C   C25  0.415942  0.972923  0.499557  -0.149326
    C   C26  0.584058  0.027077  0.500443  -0.149310
    C   C27  0.499914  0.919930  0.498688  0.686609
    C   C28  0.500086  0.080070  0.501312  0.686557
    C   C29  0.499853  0.828479  0.497443  -0.390970
    C   C30  0.500148  0.171521  0.502557  -0.390920
    C   C31  0.030663  0.576733  0.487886  -0.126664
    C   C32  0.969337  0.423267  0.512114  -0.126441
    C   C33  0.977380  0.526562  0.432122  -0.188284
    C   C34  0.022620  0.473438  0.567878  -0.188702
    H   H13  0.956129  0.548586  0.375767  0.087448
    H   H14  0.043872  0.451414  0.624233  0.087570
    H   H15  0.058613  0.640406  0.477917  0.088603
    H   H16  0.941387  0.359593  0.522083  0.088588
    H   H17  0.065913  0.407977  0.400701  0.140766
    H   H18  0.934087  0.592023  0.599299  0.140743
    N   N1   0.737501  0.500279  0.496587  -0.015549
    N   N2   0.262500  0.499721  0.503413  -0.015675
    C   C35  0.965369  0.550281  0.554300  -0.279551
    C   C36  0.034632  0.449719  0.445699  -0.279766
    C   C37  0.913838  0.500108  0.498557  0.804643
    C   C38  0.086163  0.499892  0.501443  0.804933
    C   C39  0.815399  0.500220  0.497237  -0.283928
    C   C40  0.184602  0.499780  0.502763  -0.283948
    I   I1   0.649142  0.627973  0.726117  -0.039566
    I   I2   0.350859  0.372027  0.273883  -0.039545
    I   I3   0.304985  0.386604  0.906386  -0.033050
    I   I4   0.695015  0.613395  0.093614  -0.033124
