# Generated by REPEAT Assigner based on pymatgen
data_DB0-m3_o150_o158_f0_fsc.sym.70
_audit_creation_date              2022-05-24
_audit_creation_method            REPEAT_Assigner
_cell_length_a                    13.407083
_cell_length_b                    8.552993
_cell_length_c                    15.055231
_cell_angle_alpha                 90.000000
_cell_angle_beta                  90.990521
_cell_angle_gamma                 90.000000
_cell_volume                      1726.135720
_symmetry_space_group_name_H-M    P1
_symmetry_Int_Tables_number       1
loop_
    _symmetry_equiv_pos_site_id
    _symmetry_equiv_pos_as_xyz
    1  x,y,z
loop_
    _atom_site_type_symbol
    _atom_site_label
    _atom_site_fract_x
    _atom_site_fract_y
    _atom_site_fract_z
    _atom_type_partial_charge
    H   H1   0.958741  0.007810  0.559971  0.155098
    H   H2   0.041259  0.007810  0.440029  0.155110
    C   C1   0.983173  0.147391  0.674387  0.004694
    C   C2   0.016352  0.868115  0.325734  0.008349
    C   C3   0.016827  0.147391  0.325613  0.004720
    C   C4   0.983648  0.868115  0.674267  0.008328
    C   C5   0.994716  0.148049  0.765589  -0.372820
    C   C6   0.004130  0.867362  0.234618  -0.416801
    C   C7   0.005284  0.148049  0.234412  -0.372790
    C   C8   0.995871  0.867362  0.765382  -0.416804
    H   H3   0.000964  0.257467  0.801189  0.089287
    H   H4   0.997216  0.757897  0.199151  0.134939
    H   H5   0.999036  0.257467  0.198811  0.089279
    H   H6   0.002784  0.757897  0.800849  0.134939
    C   C9   0.996374  0.007601  0.811339  0.708387
    C   C10  0.003626  0.007601  0.188661  0.708339
    C   C11  0.971818  0.007762  0.630484  -0.256990
    C   C12  0.028182  0.007762  0.369516  -0.257019
    C   C13  0.910293  0.008570  0.952657  0.178384
    C   C14  0.089707  0.008569  0.047343  0.178405
    C   C15  0.909766  0.007415  0.045078  -0.309624
    C   C16  0.090234  0.007414  0.954922  -0.309645
    C   C17  0.000080  0.007270  0.091583  -0.182676
    C   C18  0.999921  0.007270  0.908417  -0.182674
    O   O1   0.078035  0.676503  0.598187  -0.743640
    O   O2   0.922113  0.337840  0.402373  -0.685089
    O   O3   0.921965  0.676503  0.401813  -0.743630
    O   O4   0.077887  0.337840  0.597627  -0.685089
    O   O5   0.906355  0.671803  0.585085  -0.735210
    O   O6   0.093913  0.344841  0.414118  -0.711454
    O   O7   0.093645  0.671803  0.414915  -0.735195
    O   O8   0.906087  0.344841  0.585883  -0.711463
    C   C19  0.989295  0.726108  0.620726  0.904637
    C   C20  0.010924  0.289415  0.379142  0.832983
    C   C21  0.010705  0.726108  0.379274  0.904615
    C   C22  0.989076  0.289415  0.620858  0.833008
    Zn  Zn1  0.888899  0.507599  0.489944  1.036954
    Zn  Zn2  0.111101  0.507599  0.510056  1.036946
    C   C23  0.284716  0.518246  0.439588  -0.302224
    C   C24  0.715284  0.518246  0.560413  -0.302206
    N   N1   0.241933  0.507535  0.520067  0.164249
    N   N2   0.758067  0.507535  0.479934  0.164267
    C   C25  0.300483  0.492206  0.594474  -0.226388
    C   C26  0.699517  0.492206  0.405526  -0.226456
    C   C27  0.404122  0.485022  0.586887  0.184033
    C   C28  0.595878  0.485022  0.413113  0.184052
    C   C29  0.446136  0.501377  0.504693  -0.107699
    C   C30  0.553864  0.501377  0.495307  -0.107644
    C   C31  0.386563  0.519891  0.431172  0.217127
    C   C32  0.613437  0.519891  0.568828  0.217086
    C   C33  0.473159  0.450598  0.663885  0.007948
    C   C34  0.526841  0.450598  0.336115  0.007894
    C   C35  0.566990  0.547994  0.656411  -0.161912
    C   C36  0.433010  0.547994  0.343590  -0.161917
    H   H7   0.494316  0.325338  0.661509  0.047779
    H   H8   0.559560  0.475396  0.270821  0.079724
    H   H9   0.505685  0.325338  0.338492  0.047794
    H   H10  0.440440  0.475396  0.729179  0.079702
    H   H11  0.619832  0.516861  0.711057  0.060109
    H   H12  0.453064  0.673388  0.338194  0.053934
    H   H13  0.380168  0.516861  0.288944  0.060106
    H   H14  0.546936  0.673388  0.661807  0.053928
    H   H15  0.239212  0.527258  0.380092  0.200653
    H   H16  0.760788  0.527258  0.619908  0.200657
    C   C37  0.816320  0.009994  0.897059  0.155974
    O   O9   0.811957  0.874841  0.845394  -0.570694
    H   H17  0.817417  0.113488  0.852706  -0.042906
    H   H18  0.747383  0.017599  0.935733  0.052089
    H   H19  0.790282  0.911713  0.785790  0.362436
    C   C38  0.183680  0.009993  0.102942  0.156003
    O   O10  0.188043  0.874840  0.154606  -0.570694
    H   H20  0.182583  0.113487  0.147294  -0.042917
    H   H21  0.252617  0.017598  0.064267  0.052078
    H   H22  0.209718  0.911712  0.214210  0.362436
    C   C39  0.813124  0.006680  0.094038  0.433928
    O   O11  0.763649  0.148254  0.080110  -0.603101
    H   H23  0.823063  0.989007  0.166390  -0.099726
    H   H24  0.766002  0.908602  0.069669  0.041718
    H   H25  0.814941  0.229012  0.092442  0.325830
    C   C40  0.186877  0.006679  0.905962  0.433960
    O   O12  0.236351  0.148252  0.919891  -0.603108
    H   H26  0.176937  0.989005  0.833611  -0.099745
    H   H27  0.233998  0.908601  0.930332  0.041708
    H   H28  0.185059  0.229011  0.907558  0.325834
    C   C41  0.256194  0.482329  0.684874  0.303435
    O   O13  0.275253  0.335256  0.721385  -0.610306
    H   H29  0.175617  0.503375  0.684102  0.002431
    H   H30  0.288752  0.574436  0.728291  -0.006692
    H   H31  0.208505  0.292780  0.734801  0.398875
    C   C42  0.743806  0.482329  0.315126  0.303511
    O   O14  0.724747  0.335256  0.278615  -0.610301
    H   H32  0.824383  0.503375  0.315898  0.002427
    H   H33  0.711248  0.574436  0.271709  -0.006729
    H   H34  0.791495  0.292779  0.265199  0.398862
