# Generated by REPEAT Assigner based on pymatgen
data_DB0-m2_o2_o7_f0_pcu.sym.2
_audit_creation_date              2022-05-24
_audit_creation_method            REPEAT_Assigner
_cell_length_a                    15.107060
_cell_length_b                    13.677645
_cell_length_c                    17.699940
_cell_angle_alpha                 90.000000
_cell_angle_beta                  89.995144
_cell_angle_gamma                 90.000000
_cell_volume                      3657.320905
_symmetry_space_group_name_H-M    P1
_symmetry_Int_Tables_number       1
loop_
    _symmetry_equiv_pos_site_id
    _symmetry_equiv_pos_as_xyz
    1  x,y,z
loop_
    _atom_site_type_symbol
    _atom_site_label
    _atom_site_fract_x
    _atom_site_fract_y
    _atom_site_fract_z
    _atom_type_partial_charge
    O   O1   0.371065  0.583785  0.502728  -0.627791
    O   O2   0.628364  0.416388  0.498494  -0.570948
    O   O3   0.628316  0.584377  0.502495  -0.622582
    O   O4   0.371096  0.415863  0.497148  -0.646186
    C   C1   0.329506  0.499821  0.500306  0.726050
    C   C2   0.669847  0.500328  0.500854  0.650308
    O   O5   0.502673  0.583893  0.390009  -0.678618
    O   O6   0.496003  0.415841  0.609833  -0.682305
    O   O7   0.502689  0.584010  0.609602  -0.659695
    O   O8   0.497598  0.415844  0.390208  -0.678737
    C   C3   0.500837  0.499988  0.354895  1.189183
    C   C4   0.499475  0.499813  0.645271  1.120314
    Cu  Cu1  0.499476  0.597796  0.500235  0.814500
    Cu  Cu2  0.499806  0.402013  0.500025  0.758748
    C   C5   0.435051  0.551682  0.846352  0.164149
    C   C6   0.570590  0.458838  0.154083  0.143061
    C   C7   0.429477  0.540751  0.154426  0.112683
    C   C8   0.564412  0.448999  0.846236  0.139824
    C   C9   0.431671  0.547285  0.767710  0.130866
    C   C10  0.572635  0.461720  0.232731  0.157309
    C   C11  0.427914  0.538394  0.233149  0.181092
    C   C12  0.566970  0.452289  0.767598  0.151188
    C   C13  0.499234  0.499626  0.728345  -0.534233
    C   C14  0.500580  0.500358  0.272104  -0.596905
    C   C15  0.499796  0.500375  0.884726  -0.189445
    C   C16  0.500011  0.499969  0.115847  -0.159078
    C   C17  0.499652  0.499922  0.966130  -0.017031
    C   C18  0.499655  0.499895  0.034365  -0.030211
    C   C19  0.095249  0.581551  0.523087  -0.132855
    C   C20  0.904305  0.416729  0.517640  -0.111060
    C   C21  0.904340  0.585165  0.483808  -0.101502
    C   C22  0.095252  0.416886  0.478191  -0.117961
    H   H1   0.061086  0.645864  0.543653  0.109089
    H   H2   0.938345  0.350715  0.533283  0.104781
    H   H3   0.938384  0.651406  0.468188  0.100734
    H   H4   0.061546  0.351915  0.458309  0.104247
    C   C23  0.186410  0.581915  0.521774  -0.125932
    C   C24  0.813257  0.416094  0.516765  -0.156634
    C   C25  0.812882  0.585393  0.484303  -0.164743
    C   C26  0.186660  0.417147  0.478366  -0.162726
    H   H5   0.220925  0.647025  0.539476  0.109423
    H   H6   0.779708  0.348277  0.529974  0.107333
    H   H7   0.777741  0.651905  0.469875  0.128121
    H   H8   0.222183  0.352982  0.460155  0.131470
    C   C27  0.232573  0.499605  0.500133  0.013441
    C   C28  0.766881  0.500659  0.500811  0.061350
    C   C29  0.048625  0.499481  0.500709  0.080018
    C   C30  0.950958  0.500662  0.500800  0.045607
    C   C31  0.569597  0.106704  0.531887  -0.130157
    C   C32  0.463278  0.894010  0.439777  -0.156900
    C   C33  0.433622  0.105477  0.464982  -0.156003
    C   C34  0.539403  0.894046  0.557073  -0.196889
    H   H9   0.625218  0.070530  0.557710  0.107291
    H   H10  0.432587  0.930047  0.392149  0.117573
    H   H11  0.377632  0.068150  0.440289  0.114765
    H   H12  0.566172  0.930839  0.606039  0.123634
    C   C35  0.567704  0.207322  0.532294  -0.133458
    C   C36  0.463190  0.793143  0.441278  -0.090241
    C   C37  0.434630  0.206341  0.465167  -0.102465
    C   C38  0.539644  0.793232  0.555833  0.006341
    H   H13  0.620091  0.246846  0.560246  0.166972
    H   H14  0.431900  0.753802  0.395470  0.150022
    H   H15  0.380692  0.245455  0.438650  0.161885
    H   H16  0.570172  0.753812  0.601596  0.113308
    N   N1   0.499906  0.255865  0.500306  0.134405
    N   N2   0.498944  0.744084  0.499916  0.056430
    C   C39  0.501924  0.054114  0.498316  0.106956
    C   C40  0.501775  0.946122  0.498343  0.112740
    C   C41  0.368883  0.607818  0.892598  -0.277725
    H   H17  0.322418  0.652315  0.858868  0.066368
    H   H18  0.329233  0.555835  0.926816  0.087175
    H   H19  0.404657  0.659322  0.930295  0.088081
    C   C42  0.643531  0.414072  0.107802  -0.271462
    H   H20  0.696122  0.378279  0.141259  0.066263
    H   H21  0.615131  0.356960  0.070578  0.083480
    H   H22  0.674748  0.471543  0.072540  0.086344
    C   C43  0.356582  0.585721  0.108120  -0.245407
    H   H23  0.304113  0.621951  0.141240  0.056619
    H   H24  0.384747  0.643060  0.070996  0.079738
    H   H25  0.324845  0.528780  0.072678  0.083710
    C   C44  0.630141  0.391546  0.892059  -0.250742
    H   H26  0.675406  0.345992  0.858161  0.057096
    H   H27  0.671267  0.441896  0.926395  0.082176
    H   H28  0.594269  0.339924  0.929445  0.084984
    C   C45  0.353981  0.591116  0.726569  -0.242786
    H   H29  0.291814  0.563712  0.752260  0.066608
    H   H30  0.356643  0.671989  0.730673  0.079285
    H   H31  0.349706  0.571274  0.666198  0.072401
    C   C46  0.653515  0.426107  0.274190  -0.239049
    H   H32  0.713194  0.463879  0.252292  0.069048
    H   H33  0.652898  0.440607  0.335465  0.049154
    H   H34  0.660889  0.346139  0.266148  0.081244
    C   C47  0.346745  0.573143  0.274675  -0.263106
    H   H35  0.287557  0.535833  0.251405  0.072854
    H   H36  0.346609  0.556094  0.335626  0.055573
    H   H37  0.339563  0.653424  0.267795  0.087958
    C   C48  0.645275  0.409923  0.726500  -0.245026
    H   H38  0.706888  0.436886  0.753494  0.064986
    H   H39  0.642404  0.328912  0.728737  0.083153
    H   H40  0.650726  0.432341  0.666725  0.057085
