# Generated by REPEAT Assigner based on pymatgen
data_DB0-m29_o90_o108_f0_pts.sym.28
_audit_creation_date              2022-05-24
_audit_creation_method            REPEAT_Assigner
_cell_length_a                    14.306425
_cell_length_b                    16.884540
_cell_length_c                    11.422548
_cell_angle_alpha                 107.986983
_cell_angle_beta                  95.168710
_cell_angle_gamma                 98.317677
_cell_volume                      2569.985318
_symmetry_space_group_name_H-M    P1
_symmetry_Int_Tables_number       1
loop_
    _symmetry_equiv_pos_site_id
    _symmetry_equiv_pos_as_xyz
    1  x,y,z
loop_
    _atom_site_type_symbol
    _atom_site_label
    _atom_site_fract_x
    _atom_site_fract_y
    _atom_site_fract_z
    _atom_type_partial_charge
    C   C1   0.292045  0.039897  0.143388  0.060984
    C   C2   0.275751  0.037077  0.021108  -0.054309
    C   C3   0.181514  0.022905  0.964020  0.132319
    C   C4   0.161406  0.003076  0.836213  -0.158099
    C   C5   0.069449  0.989408  0.780136  -0.036892
    C   C6   0.217260  0.036679  0.210016  -0.233081
    C   C7   0.124556  0.035564  0.159884  0.069661
    C   C8   0.106090  0.024471  0.034071  0.011713
    C   C9   0.012477  0.013396  0.977571  0.061769
    C   C10  0.068087  0.065358  0.361312  -0.117683
    C   C11  0.050170  0.042443  0.232224  0.042077
    C   C12  0.956414  0.030229  0.175801  0.029604
    C   C13  0.995072  0.073572  0.431077  -0.041759
    C   C14  0.902695  0.057307  0.375189  -0.152486
    C   C15  0.995779  0.995051  0.848986  -0.134482
    C   C16  0.937498  0.017529  0.049425  0.049071
    C   C17  0.843731  0.012471  0.998752  -0.208554
    C   C18  0.881467  0.032666  0.246767  0.119208
    C   C19  0.786689  0.014952  0.189762  -0.052515
    C   C20  0.769405  0.008553  0.065944  0.049116
    H   H1   0.214967  0.993171  0.775401  0.152615
    H   H2   0.235923  0.035935  0.302807  0.193629
    H   H3   0.138357  0.083052  0.413875  0.119744
    H   H4   0.010726  0.094511  0.531364  0.112955
    H   H5   0.926256  0.980584  0.795434  0.129957
    H   H6   0.823148  0.009669  0.904743  0.175001
    H   H7   0.849693  0.069828  0.436351  0.149607
    H   H8   0.054580  0.972646  0.680182  0.107757
    O   O1   0.627012  0.033351  0.235659  -0.466520
    C   C21  0.705769  0.006098  0.259649  0.512848
    O   O2   0.531997  0.849809  0.251998  -0.456932
    O   O3   0.711180  0.969136  0.344942  -0.475617
    O   O4   0.536863  0.942353  0.445317  -0.463548
    C   C22  0.535656  0.864818  0.372274  0.481210
    Fe  Fe1  0.538428  0.026566  0.357052  1.430494
    O   O5   0.405591  0.993667  0.263497  -0.593918
    O   O6   0.454426  0.113125  0.216586  -0.500860
    C   C23  0.387996  0.048325  0.207661  0.605710
    O   O7   0.580096  0.141195  0.486224  -0.630618
    O   O8   0.436592  0.104722  0.544480  -0.551843
    C   C24  0.517132  0.158092  0.562713  0.678430
    O   O9   0.484235  0.900877  0.720989  -0.627473
    O   O10  0.624362  0.946752  0.663640  -0.554052
    C   C25  0.547806  0.888659  0.644667  0.636404
    O   O11  0.652809  0.052504  0.947292  -0.555623
    O   O12  0.609750  0.929576  0.987823  -0.486037
    C   C26  0.673168  0.997256  0.000615  0.583919
    O   O13  0.357631  0.089002  0.875971  -0.479827
    O   O14  0.522582  0.099531  0.759255  -0.443486
    C   C27  0.541130  0.178178  0.834608  0.486984
    O   O15  0.430400  0.008079  0.967560  -0.475585
    C   C28  0.357225  0.044630  0.952143  0.498087
    O   O16  0.555279  0.192546  0.955063  -0.444095
    Fe  Fe2  0.521365  0.016336  0.849289  1.422289
    C   C29  0.533724  0.240463  0.660114  -0.056593
    C   C30  0.540662  0.310631  0.621851  0.027398
    H   H9   0.527272  0.300648  0.523301  0.087499
    C   C31  0.560218  0.391766  0.705907  -0.564519
    C   C32  0.579735  0.402355  0.832271  0.510220
    C   C33  0.568586  0.331751  0.870710  -0.292209
    H   H10  0.580403  0.340785  0.969005  0.168319
    C   C34  0.545796  0.250387  0.786392  0.096304
    N   N1   0.523929  0.531887  0.721170  -0.297579
    N   N2   0.517517  0.593777  0.674523  -0.235351
    C   C35  0.540601  0.587029  0.560666  0.758487
    N   N3   0.569316  0.516354  0.493967  -0.244726
    N   N4   0.576500  0.454749  0.541171  -0.284129
    C   C36  0.555785  0.462390  0.656455  0.879663
    C   C37  0.538260  0.646267  0.386959  0.099575
    H   H11  0.538287  0.584321  0.321840  0.036736
    C   C38  0.537432  0.713936  0.343298  -0.188258
    H   H12  0.536604  0.702567  0.244785  0.141016
    C   C39  0.538557  0.794683  0.423880  0.087803
    C   C40  0.539846  0.805927  0.550255  0.001820
    C   C41  0.536139  0.737303  0.591991  0.009598
    H   H13  0.537965  0.748142  0.690513  0.083141
    C   C42  0.537070  0.657560  0.511710  -0.394161
    C   C43  0.619417  0.486485  0.929798  -0.755713
    C   C44  0.707843  0.480221  0.003754  0.564952
    C   C45  0.712429  0.494511  0.130119  -0.362394
    C   C46  0.794694  0.488925  0.197601  -0.038876
    C   C47  0.872580  0.469303  0.139261  -0.151497
    C   C48  0.868291  0.455347  0.013318  -0.038719
    C   C49  0.786095  0.460862  0.945658  -0.367437
    H   H14  0.565125  0.504806  0.991481  0.196067
    H   H15  0.640633  0.537078  0.890106  0.193995
    H   H16  0.651855  0.509895  0.176938  0.164526
    H   H17  0.798107  0.499973  0.296399  0.093463
    H   H18  0.937038  0.464986  0.192274  0.107522
    H   H19  0.929448  0.440171  0.967591  0.099682
    H   H20  0.783430  0.450253  0.847026  0.157104
