# Generated by REPEAT Assigner based on pymatgen
data_DB0-m3_o1490_o155_f0_fsc.sym.12
_audit_creation_date              2022-05-24
_audit_creation_method            REPEAT_Assigner
_cell_length_a                    8.528106
_cell_length_b                    10.720919
_cell_length_c                    17.549928
_cell_angle_alpha                 97.669994
_cell_angle_beta                  90.102794
_cell_angle_gamma                 90.008387
_cell_volume                      1590.216160
_symmetry_space_group_name_H-M    P1
_symmetry_Int_Tables_number       1
loop_
    _symmetry_equiv_pos_site_id
    _symmetry_equiv_pos_as_xyz
    1  x,y,z
loop_
    _atom_site_type_symbol
    _atom_site_label
    _atom_site_fract_x
    _atom_site_fract_y
    _atom_site_fract_z
    _atom_type_partial_charge
    C   C1   0.992375  0.682997  0.038039  -0.040295
    C   C2   0.132689  0.740329  0.027196  -0.114411
    C   C3   0.135930  0.861876  0.010956  -0.105820
    C   C4   0.853854  0.743724  0.027675  -0.334120
    C   C5   0.855645  0.868725  0.015084  0.692654
    C   C6   0.997598  0.930264  0.009281  -0.319651
    C   C7   0.997458  0.056609  0.998039  0.449158
    C   C8   0.135627  0.125325  0.996613  -0.382408
    C   C9   0.132180  0.246674  0.980077  -0.017277
    N   N1   0.719490  0.930050  0.008778  -0.677142
    C   C10  0.716792  0.051995  0.997781  0.292666
    C   C11  0.855146  0.117324  0.991808  -0.230842
    C   C12  0.852983  0.242670  0.979199  -0.104822
    C   C13  0.991575  0.303521  0.968951  -0.126085
    H   H1   0.990685  0.585280  0.046815  0.124838
    H   H2   0.989638  0.401193  0.960079  0.136937
    H   H3   0.249072  0.897475  0.997856  0.096032
    H   H4   0.248836  0.090014  0.009992  0.179604
    H   H5   0.604961  0.097526  0.992698  0.038984
    O   O1   0.324397  0.625337  0.950204  -0.681158
    O   O2   0.329588  0.622665  0.081727  -0.701528
    C   C14  0.274036  0.663883  0.019950  0.805976
    O   O3   0.324827  0.361908  0.056950  -0.711494
    O   O4   0.328750  0.364587  0.925452  -0.761390
    C   C15  0.273625  0.323379  0.987250  0.881727
    O   O5   0.662564  0.361405  0.056597  -0.714908
    O   O6   0.657300  0.364064  0.925512  -0.759718
    C   C16  0.711534  0.320649  0.986844  0.905018
    O   O7   0.662080  0.625830  0.950416  -0.692245
    O   O8   0.658070  0.623161  0.081516  -0.699253
    C   C17  0.711632  0.666701  0.020157  0.848121
    Zn  Zn1  0.494108  0.489624  0.088283  1.022651
    Zn  Zn2  0.493308  0.497593  0.918806  1.064385
    C   C18  0.501410  0.596912  0.234518  -0.381024
    N   N2   0.494870  0.486732  0.187994  0.165431
    C   C19  0.487300  0.377495  0.217619  -0.152225
    C   C20  0.493795  0.489309  0.345057  -0.091206
    C   C21  0.501106  0.599459  0.313221  0.387328
    C   C22  0.509581  0.712401  0.359814  -0.376844
    C   C23  0.486834  0.377399  0.296509  0.072370
    H   H6   0.518253  0.799248  0.335091  0.204527
    C   C24  0.489431  0.607894  0.551808  0.040190
    C   C25  0.495825  0.380665  0.535161  0.107851
    C   C26  0.492572  0.495229  0.582711  -0.000423
    C   C27  0.478155  0.720093  0.601909  -0.177500
    C   C28  0.476902  0.720076  0.680207  -0.223237
    C   C29  0.485636  0.608928  0.710445  0.259156
    C   C30  0.492577  0.497130  0.662027  -0.010754
    C   C31  0.499482  0.387145  0.693993  0.214020
    C   C32  0.499525  0.390040  0.772755  -0.258590
    N   N3   0.493176  0.500424  0.819149  0.200335
    C   C33  0.485866  0.609431  0.789225  -0.340567
    C   C34  0.496451  0.605922  0.472010  0.026554
    C   C35  0.493284  0.491319  0.424416  0.053573
    C   C36  0.489430  0.378742  0.455352  0.003165
    C   C37  0.507971  0.716157  0.438291  -0.102919
    H   H7   0.468444  0.808348  0.717743  0.141266
    H   H8   0.465927  0.810871  0.583211  0.135423
    H   H9   0.520145  0.808113  0.470338  0.121555
    C   C38  0.477746  0.266084  0.326967  0.317715
    C   C39  0.507040  0.270428  0.568959  -0.175319
    C   C40  0.508087  0.274175  0.647463  -0.242928
    C   C41  0.477866  0.266586  0.405313  -0.354592
    H   H10  0.519636  0.178492  0.536956  0.133912
    H   H11  0.516591  0.187357  0.672236  0.149720
    H   H12  0.464079  0.176079  0.424173  0.189529
    H   H13  0.481547  0.290244  0.179021  0.151776
    H   H14  0.480280  0.697485  0.827127  0.206143
    H   H15  0.506539  0.684030  0.209956  0.232221
    H   H16  0.504556  0.303028  0.797446  0.182002
    O   O9   0.466272  0.154089  0.279894  -0.400772
    C   C42  0.619777  0.109300  0.272454  0.319800
    H   H17  0.651892  0.064573  0.323747  -0.042552
    H   H18  0.700907  0.188413  0.266914  -0.046804
    C   C43  0.632139  0.013093  0.201267  -0.178784
    H   H19  0.600526  0.057695  0.149857  0.095456
    H   H20  0.754058  0.977177  0.195398  0.044401
    H   H21  0.550895  0.933889  0.206404  0.037441
