# Generated by REPEAT Assigner based on pymatgen
data_DB0-m2_o11_o23_f0_nbo.sym.140_sqe
_audit_creation_date              2022-05-24
_audit_creation_method            REPEAT_Assigner
_cell_length_a                    21.888564
_cell_length_b                    21.851860
_cell_length_c                    22.119188
_cell_angle_alpha                 119.587891
_cell_angle_beta                  119.641002
_cell_angle_gamma                 90.013134
_cell_volume                      7566.526889
_symmetry_space_group_name_H-M    P1
_symmetry_Int_Tables_number       1
loop_
    _symmetry_equiv_pos_site_id
    _symmetry_equiv_pos_as_xyz
    1  x,y,z
loop_
    _atom_site_type_symbol
    _atom_site_label
    _atom_site_fract_x
    _atom_site_fract_y
    _atom_site_fract_z
    _atom_type_partial_charge
    O   O1   0.076911  0.422144  0.505442  -0.581559
    O   O2   0.969488  0.599016  0.503380  -0.579793
    O   O3   0.974852  0.425509  0.511995  -0.610351
    O   O4   0.075137  0.599260  0.503874  -0.608652
    C   C1   0.026432  0.395809  0.509723  0.750390
    C   C2   0.021605  0.626936  0.502147  0.735210
    O   O5   0.136225  0.571909  0.630974  -0.555816
    O   O6   0.911896  0.448476  0.381494  -0.590665
    O   O7   0.029038  0.577192  0.626913  -0.549806
    O   O8   0.019185  0.447881  0.385261  -0.548138
    C   C3   0.101436  0.594312  0.668272  0.694762
    C   C4   0.946568  0.427674  0.344113  0.739404
    Cu  Cu1  0.086062  0.512657  0.508454  0.974671
    Cu  Cu2  0.962129  0.510258  0.503963  0.986885
    C   C5   0.299999  0.721739  0.966793  0.367418
    C   C6   0.755397  0.322667  0.052799  0.502832
    C   C7   0.183680  0.670244  0.946751  0.551833
    C   C8   0.856901  0.272090  0.047084  0.568964
    C   C9   0.229877  0.707546  0.042104  -0.088351
    C   C10  0.803548  0.221627  0.951031  0.126725
    H   H1   0.367626  0.728350  0.082328  0.067065
    H   H2   0.712608  0.300385  0.930455  0.073860
    H   H3   0.307427  0.666501  0.944387  0.009697
    H   H4   0.784172  0.375552  0.069376  -0.002820
    H   H5   0.127364  0.673963  0.926724  0.078059
    H   H6   0.893151  0.241408  0.067225  0.014755
    H   H7   0.262831  0.672881  0.057815  0.047321
    H   H8   0.804619  0.251903  0.923347  0.040424
    C   C11  0.361883  0.859430  0.253694  -0.167251
    C   C12  0.629038  0.112570  0.758761  -0.148097
    C   C13  0.217203  0.712578  0.926391  0.089903
    C   C14  0.812573  0.287517  0.085636  0.080633
    C   C15  0.340571  0.763794  0.062190  -0.298595
    C   C16  0.704671  0.271792  0.957012  -0.391262
    C   C17  0.285253  0.782011  0.085499  0.591294
    C   C18  0.723994  0.200624  0.926603  0.357783
    C   C19  0.250488  0.830982  0.055967  0.314752
    C   C20  0.714817  0.165352  0.967970  0.346612
    C   C21  0.206175  0.788235  0.959974  -0.312030
    C   C22  0.774304  0.214101  0.062471  -0.343556
    C   C23  0.326535  0.823761  0.177676  -0.294078
    C   C24  0.671833  0.151818  0.834566  -0.176019
    C   C25  0.177911  0.671812  0.834630  -0.150909
    C   C26  0.862692  0.337794  0.177676  -0.120691
    C   C27  0.144044  0.637218  0.758811  -0.124558
    C   C28  0.902179  0.379084  0.253628  -0.154024
    H   H9   0.228261  0.819587  0.944224  0.066482
    H   H10  0.748191  0.223466  0.096969  0.103903
    H   H11  0.146305  0.780803  0.926701  0.116634
    H   H12  0.816507  0.187820  0.082450  0.087534
    H   H13  0.298147  0.873653  0.078731  -0.003828
    H   H14  0.661129  0.165890  0.960793  0.014949
    H   H15  0.385234  0.815355  0.096085  0.040243
    H   H16  0.645518  0.258897  0.934575  0.093556
    C   C29  0.996638  0.246918  0.542746  -0.161105
    C   C30  0.955818  0.771454  0.461106  -0.210350
    C   C31  0.972472  0.178313  0.473966  0.077525
    C   C32  0.001069  0.840701  0.527366  0.145478
    H   H17  0.014196  0.254254  0.601762  0.134752
    H   H18  0.912682  0.761987  0.401432  0.154313
    C   C33  0.994229  0.312642  0.539875  0.177607
    C   C34  0.957772  0.708004  0.468370  0.145065
    C   C35  0.027318  0.329312  0.510583  -0.386526
    C   C36  0.020681  0.692398  0.499142  -0.365431
    H   H19  0.970747  0.351028  0.568874  0.114794
    H   H20  0.905781  0.669657  0.440595  0.111901
    H   H21  0.057820  0.295029  0.490170  0.170156
    H   H22  0.071060  0.725899  0.517726  0.173565
    O   O9   0.575586  0.926864  0.498921  -0.593212
    O   O10  0.409287  0.045006  0.516301  -0.579045
    O   O11  0.579691  0.034567  0.503195  -0.589644
    O   O12  0.402692  0.935208  0.507326  -0.610371
    C   C37  0.605057  0.979195  0.499050  0.741008
    C   C38  0.378469  0.991573  0.513820  0.768151
    O   O13  0.428642  0.870699  0.383557  -0.580857
    O   O14  0.556650  0.100096  0.629196  -0.605615
    O   O15  0.424271  0.976389  0.383864  -0.616964
    O   O16  0.557973  0.994470  0.629209  -0.577342
    C   C39  0.405940  0.903951  0.344371  0.764820
    C   C40  0.578674  0.066961  0.668428  0.746252
    Cu  Cu3  0.490592  0.924546  0.506591  0.975249
    Cu  Cu4  0.492980  0.046288  0.506265  0.992210
    O   O17  0.944542  0.069074  0.576283  -0.608458
    O   O18  0.030958  0.977556  0.417587  -0.617109
    O   O19  0.869204  0.959973  0.442247  -0.612049
    O   O20  0.111405  0.029606  0.561390  -0.651512
    C   C41  0.879317  0.017487  0.511546  0.800428
    C   C42  0.098224  0.003368  0.486485  0.836445
    O   O21  0.035712  0.128718  0.554085  -0.593417
    O   O22  0.971406  0.887104  0.441260  -0.613204
    O   O23  0.928667  0.050053  0.418594  -0.593827
    O   O24  0.020100  0.969773  0.583870  -0.595114
    C   C43  0.979404  0.115932  0.482472  0.718778
    C   C44  0.997262  0.902037  0.516776  0.619966
    Cu  Cu5  0.035011  0.056489  0.581500  0.942917
    Cu  Cu6  0.943073  0.961312  0.417348  0.926043
    C   C45  0.745744  0.998820  0.452425  0.383074
    C   C46  0.225777  0.057187  0.538292  0.214784
    C   C47  0.816374  0.024725  0.519506  -0.134751
    C   C48  0.160719  0.001085  0.477935  -0.087188
    C   C49  0.685374  0.008351  0.464456  0.025124
    C   C50  0.291251  0.053765  0.534662  0.034072
    C   C51  0.669082  0.974969  0.493731  -0.351857
    C   C52  0.313155  0.993717  0.517018  -0.373031
    H   H23  0.648908  0.035615  0.440098  0.124801
    H   H24  0.325032  0.103863  0.553022  0.102025
    H   H25  0.700665  0.940555  0.508852  0.156557
    H   H26  0.283656  0.945949  0.506583  0.160446
    N   N1   0.330868  0.761381  0.946363  -0.601151
    C   C53  0.354912  0.725089  0.896409  0.713985
    O   O25  0.336035  0.657340  0.853280  -0.560668
    C   C54  0.402274  0.767820  0.890305  -0.527238
    H   H27  0.353256  0.818423  0.986090  0.293290
    H   H28  0.413314  0.828396  0.930978  0.104576
    H   H29  0.373421  0.749954  0.823785  0.171761
    H   H30  0.455816  0.756304  0.910518  0.150280
    N   N2   0.712191  0.334601  0.088050  -0.702016
    C   C55  0.717769  0.405034  0.141186  0.779053
    O   O26  0.768465  0.458074  0.173219  -0.592462
    C   C56  0.663324  0.418474  0.164409  -0.540498
    H   H31  0.665702  0.292452  0.058496  0.315505
    H   H32  0.621638  0.365356  0.132305  0.108816
    H   H33  0.634465  0.453893  0.145587  0.147453
    H   H34  0.693391  0.447537  0.233785  0.179840
    N   N3   0.215159  0.873088  0.096527  -0.705048
    C   C57  0.140360  0.854656  0.057580  0.819517
    O   O27  0.099973  0.790230  0.004188  -0.601481
    C   C58  0.106770  0.913071  0.086005  -0.593928
    H   H35  0.243335  0.929282  0.138269  0.318793
    H   H36  0.149713  0.968432  0.138613  0.126211
    H   H37  0.076738  0.898075  0.107500  0.189382
    H   H38  0.066758  0.915823  0.032118  0.163248
    N   N4   0.717637  0.090090  0.930922  -0.625172
    C   C59  0.653458  0.033471  0.880761  0.731884
    O   O28  0.593364  0.042326  0.848081  -0.568817
    C   C60  0.655475  0.957868  0.860981  -0.521118
    H   H39  0.765162  0.080581  0.963909  0.292533
    H   H40  0.713434  0.957300  0.892340  0.110741
    H   H41  0.625863  0.917752  0.791639  0.170684
    H   H42  0.627295  0.940876  0.882966  0.148649
    N   N5   0.940703  0.165013  0.393407  -0.484839
    C   C61  0.870416  0.166809  0.355665  0.830410
    O   O29  0.843425  0.192395  0.396000  -0.561622
    C   C62  0.825109  0.137420  0.264100  -0.649310
    H   H43  0.950785  0.123322  0.353415  0.289952
    H   H44  0.857648  0.117112  0.236818  0.123471
    H   H45  0.808247  0.182513  0.256885  0.171855
    H   H46  0.774681  0.091153  0.229691  0.188100
    N   N6   0.050721  0.856499  0.608979  -0.493009
    C   C63  0.019302  0.864060  0.650632  0.788907
    O   O30  0.951994  0.840588  0.612217  -0.571957
    C   C64  0.066547  0.901881  0.744123  -0.595121
    H   H47  0.101815  0.895715  0.645709  0.291005
    H   H48  0.126263  0.918323  0.769355  0.120363
    H   H49  0.055872  0.863318  0.759183  0.176665
    H   H50  0.052276  0.952109  0.774221  0.169665
    N   N7   0.727462  0.966125  0.369746  -0.760161
    C   C65  0.736104  0.014118  0.350896  0.794508
    O   O31  0.745657  0.079690  0.397352  -0.501509
    C   C66  0.732930  0.987162  0.272609  -0.433037
    H   H51  0.733073  0.914984  0.339056  0.367766
    H   H52  0.720992  0.926081  0.235885  0.076113
    H   H53  0.786917  0.014571  0.289979  0.120685
    H   H54  0.688462  0.001195  0.233059  0.106437
    N   N8   0.232012  0.123418  0.605683  -0.487328
    C   C67  0.203256  0.170539  0.585632  0.751898
    O   O32  0.160346  0.148681  0.511881  -0.514439
    C   C68  0.223849  0.249916  0.653545  -0.577113
    H   H55  0.282664  0.149189  0.663018  0.272012
    H   H56  0.261253  0.260615  0.716873  0.126296
    H   H57  0.172727  0.262784  0.646828  0.168228
    H   H58  0.252203  0.286243  0.647238  0.160477
    N   N9   0.832284  0.064442  0.601849  -0.465049
    C   C69  0.839068  0.137253  0.635920  0.751970
    O   O33  0.814416  0.159942  0.590863  -0.512481
    C   C70  0.877354  0.190747  0.729031  -0.626513
    H   H59  0.872127  0.054119  0.643036  0.293209
    H   H60  0.895565  0.161617  0.760917  0.139915
    H   H61  0.838537  0.218109  0.741783  0.176932
    H   H62  0.926471  0.233546  0.754418  0.184231
    N   N10  0.149934  0.939194  0.403657  -0.421836
    C   C71  0.138478  0.951671  0.345360  0.774624
    O   O34  0.154065  0.015011  0.364687  -0.528328
    C   C72  0.106378  0.887903  0.256548  -0.643144
    H   H63  0.116112  0.888922  0.378843  0.267942
    H   H64  0.096186  0.834263  0.249324  0.143102
    H   H65  0.145865  0.891220  0.239870  0.176564
    H   H66  0.053224  0.890749  0.213355  0.176480
    N   N11  0.181599  0.593498  0.903931  -0.844998
    C   C73  0.115684  0.538209  0.839372  0.939276
    O   O35  0.057572  0.551949  0.813107  -0.640569
    C   C74  0.113646  0.459084  0.797838  -0.497703
    H   H67  0.229366  0.579635  0.924492  0.335109
    H   H68  0.170259  0.455120  0.828254  0.096957
    H   H69  0.089659  0.434166  0.730202  0.100423
    H   H70  0.078382  0.427943  0.802840  0.146784
    N   N12  0.899794  0.341242  0.073192  -0.868365
    C   C75  0.974924  0.364797  0.125312  0.915187
    O   O36  0.006854  0.334365  0.159822  -0.631949
    C   C76  0.019826  0.430338  0.143274  -0.512231
    H   H71  0.875298  0.366635  0.042833  0.335583
    H   H72  0.983460  0.452840  0.108731  0.106453
    H   H73  0.057935  0.413275  0.123378  0.151150
    H   H74  0.052951  0.474278  0.212103  0.136407
    N   N13  0.182600  0.716551  0.071943  -0.472642
    C   C77  0.152467  0.657422  0.064969  0.755473
    O   O37  0.153426  0.595724  0.021243  -0.586321
    C   C78  0.116539  0.666905  0.110036  -0.614223
    H   H75  0.190448  0.768029  0.119545  0.263126
    H   H76  0.118227  0.725342  0.145296  0.135012
    H   H77  0.146045  0.651013  0.154919  0.160059
    H   H78  0.057792  0.630336  0.063237  0.187837
    N   N14  0.825308  0.156797  0.917538  -0.758762
    C   C79  0.880739  0.165051  0.908346  0.808296
    O   O38  0.920793  0.226666  0.942894  -0.575841
    C   C80  0.893756  0.097918  0.856222  -0.411157
    H   H79  0.787400  0.104237  0.875594  0.311524
    H   H80  0.844063  0.064808  0.789956  0.089622
    H   H81  0.904647  0.063669  0.882023  0.109167
    H   H82  0.942494  0.115326  0.857947  0.117686
