# Generated by REPEAT Assigner based on pymatgen
data_DB0-m2_o8_o11_f0_pcu.sym.129_sqe
_audit_creation_date              2022-05-24
_audit_creation_method            REPEAT_Assigner
_cell_length_a                    11.051110
_cell_length_b                    15.552955
_cell_length_c                    17.013029
_cell_angle_alpha                 96.355899
_cell_angle_beta                  89.996554
_cell_angle_gamma                 92.852534
_cell_volume                      2902.537366
_symmetry_space_group_name_H-M    P1
_symmetry_Int_Tables_number       1
loop_
    _symmetry_equiv_pos_site_id
    _symmetry_equiv_pos_as_xyz
    1  x,y,z
loop_
    _atom_site_type_symbol
    _atom_site_label
    _atom_site_fract_x
    _atom_site_fract_y
    _atom_site_fract_z
    _atom_type_partial_charge
    O   O1   0.492523  0.419944  0.378021  -0.658197
    O   O2   0.514432  0.568225  0.383818  -0.603826
    C   C1   0.503217  0.491354  0.343678  0.805176
    O   O3   0.319891  0.429765  0.494632  -0.664741
    O   O4   0.333573  0.577803  0.495151  -0.638173
    C   C2   0.269840  0.504543  0.495860  0.753459
    Cu  Cu1  0.494507  0.415916  0.492321  0.977095
    Cu  Cu2  0.510571  0.588680  0.499276  0.910040
    O   O5   0.490238  0.436290  0.607645  -0.604036
    O   O6   0.512803  0.584662  0.613451  -0.670380
    O   O7   0.671355  0.426883  0.496701  -0.645280
    O   O8   0.685018  0.574808  0.496740  -0.599820
    C   C3   0.501050  0.513186  0.647613  0.767086
    C   C4   0.734826  0.500329  0.497411  0.749185
    C   C5   0.937731  0.570871  0.505988  -0.005465
    C   C6   0.866859  0.498218  0.501324  -0.299968
    H   H1   0.895731  0.632403  0.508027  0.110959
    H   H2   0.903959  0.435861  0.504693  0.152873
    C   C7   0.070835  0.573013  0.516968  -0.070806
    C   C8   0.136250  0.503750  0.493956  -0.305161
    H   H3   0.091775  0.443472  0.468660  0.178478
    C   C9   0.502664  0.485520  0.256945  -0.248084
    C   C10  0.513314  0.559971  0.219444  -0.040758
    C   C11  0.512346  0.555249  0.138017  -0.150754
    C   C12  0.500443  0.475299  0.092963  0.472241
    C   C13  0.490145  0.401137  0.130479  -0.363535
    C   C14  0.491253  0.405836  0.211925  0.086050
    C   C15  0.492521  0.449555  0.853248  -0.151725
    C   C16  0.490862  0.444742  0.771910  -0.069019
    C   C17  0.504834  0.529639  0.898185  0.485744
    N   N1   0.498263  0.467079  0.009292  -0.243711
    N   N2   0.507231  0.538026  0.981911  -0.235739
    C   C18  0.501353  0.519091  0.734316  -0.227977
    H   H4   0.481227  0.381774  0.738141  0.126659
    H   H5   0.483697  0.389279  0.879343  0.068031
    H   H6   0.481022  0.338690  0.095635  0.139451
    H   H7   0.482914  0.346402  0.239443  0.092383
    C   C19  0.513267  0.598804  0.779154  0.124674
    C   C20  0.514846  0.603764  0.860485  -0.401487
    H   H8   0.521499  0.658179  0.751566  0.079786
    H   H9   0.521111  0.615533  0.112100  0.065880
    H   H10  0.523984  0.666384  0.895120  0.148525
    H   H11  0.522444  0.622942  0.253282  0.114761
    N   N3   0.522058  0.717869  0.504095  -0.203694
    C   C21  0.448429  0.756853  0.457673  0.071293
    C   C22  0.451698  0.845956  0.460414  -0.206267
    C   C23  0.531261  0.895655  0.512008  0.510140
    C   C24  0.602841  0.854382  0.560854  -0.424641
    C   C25  0.596727  0.765259  0.556646  0.198275
    C   C26  0.553660  0.158102  0.530397  -0.168605
    C   C27  0.556390  0.247262  0.533574  -0.008667
    C   C28  0.476579  0.108487  0.477277  0.496282
    N   N4   0.539158  0.987227  0.517542  -0.225147
    N   N5   0.469272  0.016852  0.471144  -0.225607
    N   N6   0.482743  0.286639  0.487342  -0.152541
    H   H12  0.617300  0.285465  0.574921  0.146240
    H   H13  0.612651  0.130152  0.570186  0.070349
    H   H14  0.661827  0.892135  0.603747  0.157189
    H   H15  0.653805  0.733168  0.594644  0.109395
    C   C29  0.409402  0.239382  0.433945  0.143847
    C   C30  0.404045  0.150237  0.429171  -0.392472
    H   H16  0.352752  0.271176  0.395502  0.120830
    H   H17  0.389102  0.874008  0.422795  0.085193
    H   H18  0.342614  0.112896  0.387474  0.148495
    H   H19  0.387156  0.718403  0.416782  0.125467
    C   C31  0.127295  0.655655  0.553775  0.803329
    O   O9   0.105623  0.722615  0.526726  -0.540591
    N   N7   0.191528  0.659934  0.627273  -0.800381
    H   H20  0.278101  0.687725  0.619616  0.351315
    H   H21  0.199137  0.597322  0.642735  0.301079
