# Generated by REPEAT Assigner based on pymatgen
data_DB0-m3_o1510_o23_f0_fsc.sym.66
_audit_creation_date              2022-05-24
_audit_creation_method            REPEAT_Assigner
_cell_length_a                    14.217854
_cell_length_b                    8.544818
_cell_length_c                    19.340263
_cell_angle_alpha                 90.000000
_cell_angle_beta                  91.008710
_cell_angle_gamma                 90.000000
_cell_volume                      2349.264507
_symmetry_space_group_name_H-M    P1
_symmetry_Int_Tables_number       1
loop_
    _symmetry_equiv_pos_site_id
    _symmetry_equiv_pos_as_xyz
    1  x,y,z
loop_
    _atom_site_type_symbol
    _atom_site_label
    _atom_site_fract_x
    _atom_site_fract_y
    _atom_site_fract_z
    _atom_type_partial_charge
    H   H1   0.045572  0.000007  0.547148  0.138232
    H   H2   0.954429  0.000007  0.452852  0.138236
    C   C1   0.019788  0.139238  0.635566  -0.025433
    C   C2   0.980213  0.139238  0.364434  -0.025415
    C   C3   0.002357  0.139823  0.705457  -0.251148
    C   C4   0.997644  0.139823  0.294544  -0.251136
    H   H3   0.989115  0.250502  0.730318  0.119663
    H   H4   0.010886  0.250502  0.269683  0.119658
    C   C5   0.001662  0.000054  0.742276  0.196783
    C   C6   0.998339  0.000054  0.257724  0.196763
    C   C7   0.006891  0.859581  0.706135  -0.262148
    C   C8   0.993109  0.859581  0.293865  -0.262149
    H   H5   0.003734  0.747821  0.731815  0.119345
    H   H6   0.996266  0.747821  0.268186  0.119345
    C   C9   0.020564  0.860720  0.635716  -0.019642
    C   C10  0.979436  0.860720  0.364285  -0.019629
    C   C11  0.033048  0.000018  0.601895  -0.160053
    C   C12  0.966953  0.000018  0.398105  -0.160072
    C   C13  0.033552  0.873080  0.073797  -0.147609
    C   C14  0.966449  0.873080  0.926203  -0.147620
    H   H7   0.059605  0.772428  0.046224  0.105492
    H   H8   0.940395  0.772428  0.953776  0.105494
    C   C15  0.036404  0.874082  0.145161  -0.138320
    C   C16  0.963596  0.874082  0.854839  -0.138308
    H   H9   0.066347  0.773988  0.171368  0.117797
    H   H10  0.933654  0.773988  0.828632  0.117796
    C   C17  0.002988  0.001914  0.181464  0.022321
    C   C18  0.997012  0.001914  0.818536  0.022301
    C   C19  0.969406  0.130063  0.144612  -0.126072
    C   C20  0.030594  0.130063  0.855389  -0.126059
    H   H11  0.938736  0.229258  0.170303  0.105512
    H   H12  0.061264  0.229259  0.829697  0.105506
    C   C21  0.970414  0.131092  0.073383  -0.149898
    C   C22  0.029587  0.131092  0.926617  -0.149901
    H   H13  0.942997  0.231367  0.045566  0.106723
    H   H14  0.057004  0.231367  0.954434  0.106724
    C   C23  0.001019  0.001816  0.037771  0.081094
    C   C24  0.998982  0.001816  0.962229  0.081104
    O   O1   0.090634  0.669303  0.563914  -0.738451
    O   O2   0.909366  0.669303  0.436086  -0.738453
    O   O3   0.930039  0.663569  0.579092  -0.703303
    O   O4   0.069962  0.663569  0.420908  -0.703300
    C   C25  0.014246  0.718566  0.594035  0.849121
    C   C26  0.985755  0.718566  0.405965  0.849116
    O   O5   0.909444  0.330588  0.436168  -0.740235
    O   O6   0.090556  0.330588  0.563832  -0.740246
    O   O7   0.070054  0.336766  0.420846  -0.697548
    O   O8   0.929947  0.336766  0.579154  -0.697553
    C   C27  0.986030  0.281322  0.406124  0.843039
    C   C28  0.013970  0.281322  0.593877  0.843053
    Zn  Zn1  0.895869  0.500064  0.507783  1.105670
    Zn  Zn2  0.104131  0.500064  0.492217  1.105673
    C   C29  0.548615  0.409753  0.565118  -0.302759
    C   C30  0.451385  0.409753  0.434882  -0.302773
    C   C31  0.557930  0.420501  0.437795  0.188988
    C   C32  0.442070  0.420501  0.562205  0.188985
    H   H15  0.412825  0.300195  0.562695  -0.012912
    H   H16  0.587175  0.300195  0.437305  -0.012911
    H   H17  0.570003  0.285263  0.561481  0.068583
    H   H18  0.429997  0.285263  0.438519  0.068586
    H   H19  0.423614  0.458298  0.385431  0.132684
    H   H20  0.576386  0.458298  0.614569  0.132682
    N   N1   0.227096  0.500433  0.485736  -0.019025
    N   N2   0.772905  0.500433  0.514264  -0.019026
    C   C33  0.588779  0.500259  0.505070  0.400138
    C   C34  0.411221  0.500259  0.494930  0.400144
    C   C35  0.447592  0.667097  0.492277  -0.009791
    C   C36  0.552409  0.667097  0.507724  -0.009789
    C   C37  0.308442  0.500409  0.488806  -0.174525
    C   C38  0.691558  0.500409  0.511194  -0.174532
    H   H21  0.565888  0.715724  0.560099  0.017022
    H   H22  0.434112  0.715724  0.439901  0.017019
    H   H23  0.589229  0.741832  0.469996  -0.011822
    H   H24  0.410771  0.741832  0.530004  -0.011822
    C   C39  0.593369  0.505993  0.374233  0.143219
    O   O9   0.576050  0.414318  0.315740  -0.598428
    H   H25  0.670144  0.526759  0.379014  0.005206
    H   H26  0.557413  0.620047  0.367360  0.040698
    H   H27  0.638644  0.373613  0.303129  0.381803
    C   C40  0.406632  0.505993  0.625767  0.143234
    O   O10  0.423950  0.414317  0.684260  -0.598438
    H   H28  0.329857  0.526759  0.620986  0.005196
    H   H29  0.442588  0.620047  0.632640  0.040697
    H   H30  0.361356  0.373613  0.696871  0.381807
