data_DB0-m3_o12_o23_f0_pcu.sym.94_repeat
_audit_creation_date              2024-02-23
_audit_creation_method            'Materials Studio'
_symmetry_space_group_name_H-M    'P1'
_symmetry_Int_Tables_number       1
_symmetry_cell_setting            triclinic
loop_
_symmetry_equiv_pos_as_xyz
  x,y,z
_cell_length_a                    10.0053
_cell_length_b                    11.2484
_cell_length_c                    15.9600
_cell_angle_alpha                 89.9881
_cell_angle_beta                  80.7201
_cell_angle_gamma                 92.4465
loop_
_atom_site_label
_atom_site_type_symbol
_atom_site_fract_x
_atom_site_fract_y
_atom_site_fract_z
_atom_site_U_iso_or_equiv
_atom_site_adp_type
_atom_site_occupancy
O1     O     0.42049   0.69124   0.51406   0.00000  Uiso   1.00
O2     O     0.65018   0.66007   0.48961   0.00000  Uiso   1.00
C1     C     0.54758   0.73049   0.50056   0.00000  Uiso   1.00
O3     O     0.38253   0.51587   0.64273   0.00000  Uiso   1.00
O4     O     0.61233   0.48468   0.61838   0.00000  Uiso   1.00
C2     C     0.49788   0.50023   0.66940   0.00000  Uiso   1.00
Zn1    Zn    0.34387   0.52124   0.52207   0.00000  Uiso   1.00
Zn2    Zn    0.64667   0.47982   0.48982   0.00000  Uiso   1.00
O5     O     0.34036   0.34099   0.52229   0.00000  Uiso   1.00
O6     O     0.57005   0.30982   0.49784   0.00000  Uiso   1.00
O7     O     0.37820   0.51638   0.39351   0.00000  Uiso   1.00
O8     O     0.60801   0.48518   0.36916   0.00000  Uiso   1.00
C3     C     0.44296   0.27058   0.51133   0.00000  Uiso   1.00
C4     C     0.49265   0.50083   0.34249   0.00000  Uiso   1.00
C5     C     0.40348   0.59454   0.96725   0.00000  Uiso   1.00
C6     C     0.63809   0.53249   0.94465   0.00000  Uiso   1.00
C7     C     0.63648   0.52817   0.03983   0.00000  Uiso   1.00
H1     H     0.43267   0.68155   0.08348   0.00000  Uiso   1.00
H2     H     0.44368   0.68332   0.94246   0.00000  Uiso   1.00
H3     H     0.71163   0.46921   0.91285   0.00000  Uiso   1.00
H4     H     0.67017   0.62340   0.92043   0.00000  Uiso   1.00
H5     H     0.67350   0.61556   0.06123   0.00000  Uiso   1.00
H6     H     0.70447   0.45867   0.05492   0.00000  Uiso   1.00
C8     C     0.49186   0.50071   0.25267   0.00000  Uiso   1.00
C9     C     0.49689   0.50022   0.92658   0.00000  Uiso   1.00
C10    C     0.39930   0.59268   0.06254   0.00000  Uiso   1.00
C11    C     0.49312   0.49982   0.08538   0.00000  Uiso   1.00
C12    C     0.44444   0.37802   0.05905   0.00000  Uiso   1.00
C13    C     0.45638   0.37587   0.96296   0.00000  Uiso   1.00
C14    C     0.49209   0.50040   0.17715   0.00000  Uiso   1.00
C15    C     0.49822   0.50013   0.83477   0.00000  Uiso   1.00
C16    C     0.49860   0.50012   0.75924   0.00000  Uiso   1.00
H7     H     0.54243   0.31917   0.94007   0.00000  Uiso   1.00
H8     H     0.33969   0.35777   0.09160   0.00000  Uiso   1.00
H9     H     0.30048   0.58188   0.95111   0.00000  Uiso   1.00
H10    H     0.29431   0.57152   0.09477   0.00000  Uiso   1.00
H11    H     0.50999   0.30976   0.07890   0.00000  Uiso   1.00
H12    H     0.61746   0.09557   0.49304   0.00000  Uiso   1.00
H13    H     0.37308   0.90548   0.51885   0.00000  Uiso   1.00
C17    C     0.57745   0.85928   0.49740   0.00000  Uiso   1.00
C18    C     0.47855   0.93636   0.50775   0.00000  Uiso   1.00
H14    H     0.30817   0.10918   0.52557   0.00000  Uiso   1.00
C19    C     0.41309   0.14179   0.51450   0.00000  Uiso   1.00
C20    C     0.51199   0.06470   0.50414   0.00000  Uiso   1.00
H15    H     0.68237   0.89189   0.48633   0.00000  Uiso   1.00
H16    H     0.11230   0.42884   0.45213   0.00000  Uiso   1.00
H17    H     0.87822   0.57216   0.55980   0.00000  Uiso   1.00
N1     N     0.84537   0.45199   0.46828   0.00000  Uiso   1.00
C21    C     0.92206   0.50969   0.51255   0.00000  Uiso   1.00
H18    H     0.09764   0.60713   0.58728   0.00000  Uiso   1.00
N2     N     0.14516   0.54900   0.54365   0.00000  Uiso   1.00
C22    C     0.06847   0.49131   0.49939   0.00000  Uiso   1.00
H19    H     0.89289   0.39389   0.42464   0.00000  Uiso   1.00
C23    C     0.33377   0.32027   0.93194   0.00000  Uiso   1.00
C24    C     0.20261   0.35230   0.96282   0.00000  Uiso   1.00
C25    C     0.09379   0.29825   0.93253   0.00000  Uiso   1.00
C26    C     0.11423   0.21168   0.87143   0.00000  Uiso   1.00
F1     F     0.00708   0.15873   0.84183   0.00000  Uiso   1.00
C27    C     0.24376   0.17869   0.84075   0.00000  Uiso   1.00
C28    C     0.35287   0.23236   0.87090   0.00000  Uiso   1.00
H20    H     0.18245   0.41835   0.01167   0.00000  Uiso   1.00
H21    H     0.99201   0.32367   0.95710   0.00000  Uiso   1.00
H22    H     0.26002   0.11056   0.79287   0.00000  Uiso   1.00
H23    H     0.45359   0.20514   0.84548   0.00000  Uiso   1.00
