# Generated by REPEAT Assigner based on pymatgen
data_DB0-m3_o93_o22_f0_fsc.sym.10_sqe
_audit_creation_date              2022-05-24
_audit_creation_method            REPEAT_Assigner
_cell_length_a                    6.569540
_cell_length_b                    9.007568
_cell_length_c                    13.222083
_cell_angle_alpha                 100.668618
_cell_angle_beta                  100.629054
_cell_angle_gamma                 89.928771
_cell_volume                      755.268206
_symmetry_space_group_name_H-M    P1
_symmetry_Int_Tables_number       1
loop_
    _symmetry_equiv_pos_site_id
    _symmetry_equiv_pos_as_xyz
    1  x,y,z
loop_
    _atom_site_type_symbol
    _atom_site_label
    _atom_site_fract_x
    _atom_site_fract_y
    _atom_site_fract_z
    _atom_type_partial_charge
    C   C1   0.429201  0.096095  0.842389  -0.082172
    H   H1   0.268904  0.114993  0.848073  0.132448
    C   C2   0.574099  0.091232  0.931909  -0.304440
    H   H2   0.528258  0.111806  0.007589  0.169257
    C   C3   0.774487  0.052460  0.923838  0.310598
    C   C4   0.833674  0.035538  0.828143  -0.066598
    H   H3   0.992115  0.009818  0.821952  0.045982
    C   C5   0.692498  0.050160  0.739765  -0.061678
    C   C6   0.486460  0.070242  0.745289  -0.140519
    N   N1   0.917554  0.027210  0.012156  -0.168728
    N   N2   0.083506  0.979892  0.987584  -0.200800
    C   C7   0.426905  0.915868  0.068004  -0.373744
    H   H4   0.472955  0.895276  0.992374  0.183243
    C   C8   0.571600  0.911008  0.157607  -0.078097
    H   H5   0.731942  0.892094  0.152032  0.144850
    C   C9   0.514073  0.936876  0.254649  -0.130873
    C   C10  0.307970  0.956934  0.260013  -0.039454
    C   C11  0.167025  0.971574  0.171573  -0.101336
    H   H6   0.008543  0.997303  0.177659  0.028709
    C   C12  0.226458  0.954649  0.075943  0.377490
    O   O1   0.835227  0.901536  0.607423  -0.598104
    O   O2   0.812005  0.157328  0.608946  -0.641285
    C   C13  0.768579  0.034281  0.642166  0.652902
    O   O3   0.238280  0.164100  0.618606  -0.735868
    O   O4   0.257955  0.906173  0.609811  -0.759435
    C   C14  0.325193  0.045804  0.650718  0.945719
    O   O5   0.165481  0.105795  0.392399  -0.613022
    O   O6   0.188859  0.849676  0.390953  -0.690017
    C   C15  0.231581  0.972803  0.357513  0.707250
    O   O7   0.762580  0.843080  0.381190  -0.696730
    O   O8   0.742789  0.100873  0.390048  -0.692352
    C   C16  0.675120  0.961323  0.349326  0.843433
    Zn  Zn1  0.992896  0.169673  0.502857  0.964776
    Zn  Zn2  0.007823  0.837448  0.497001  0.949278
    C   C17  0.205364  0.418760  0.515991  -0.153844
    H   H7   0.263578  0.379172  0.442362  0.030832
    H   H8   0.302834  0.374475  0.580942  0.109400
    C   C18  0.214587  0.589992  0.540728  0.011239
    H   H9   0.246758  0.629639  0.626857  0.009931
    H   H10  0.337862  0.633660  0.505798  0.054602
    H   H11  0.920102  0.311127  0.338036  -0.003871
    H   H12  0.079909  0.544686  0.350304  0.011919
    C   C19  0.882362  0.396264  0.403425  0.388334
    C   C20  0.901975  0.453149  0.585075  0.047593
    N   N3   0.991768  0.364516  0.502554  0.152138
    H   H13  0.751645  0.400516  0.588758  0.029140
    H   H14  0.010211  0.459846  0.660939  0.008180
    N   N4   0.015297  0.642690  0.497050  0.396275
    C   C21  0.948783  0.552980  0.392999  -0.129634
    C   C22  0.868934  0.610161  0.561033  -0.197976
    H   H15  0.892644  0.693536  0.635547  0.069246
    H   H16  0.708817  0.616400  0.517461  0.036080
    H   H17  0.816995  0.606705  0.349725  0.037910
    O   O9   0.669584  0.390740  0.401573  -0.384145
    C   C23  0.579860  0.414010  0.301865  0.371303
    H   H18  0.701656  0.415216  0.254025  -0.083100
    H   H19  0.502282  0.523878  0.308399  -0.016181
    C   C24  0.422652  0.287442  0.249537  -0.375680
    H   H20  0.300233  0.285980  0.296979  0.086600
    H   H21  0.351732  0.305810  0.170151  0.071221
    H   H22  0.500818  0.177811  0.243104  0.141805
