# Generated by REPEAT Assigner based on pymatgen
data_DB0-m2_o16_o21_f0_pcu.sym.52
_audit_creation_date              2022-05-24
_audit_creation_method            REPEAT_Assigner
_cell_length_a                    12.179340
_cell_length_b                    13.450850
_cell_length_c                    13.917780
_cell_angle_alpha                 104.361412
_cell_angle_beta                  72.817653
_cell_angle_gamma                 116.268768
_cell_volume                      1934.935256
_symmetry_space_group_name_H-M    P1
_symmetry_Int_Tables_number       1
loop_
    _symmetry_equiv_pos_site_id
    _symmetry_equiv_pos_as_xyz
    1  x,y,z
loop_
    _atom_site_type_symbol
    _atom_site_label
    _atom_site_fract_x
    _atom_site_fract_y
    _atom_site_fract_z
    _atom_type_partial_charge
    O   O1   0.023256  0.679261  0.537892  -0.566437
    O   O2   0.193468  0.634723  0.499493  -0.478558
    C   C1   0.144750  0.708754  0.520322  0.573901
    O   O3   0.896023  0.525732  0.666431  -0.618834
    O   O4   0.058254  0.470145  0.631035  -0.615327
    C   C2   0.970234  0.497456  0.694988  0.918483
    Cu  Cu1  0.900844  0.524375  0.524529  0.878506
    Cu  Cu2  0.099493  0.472690  0.484791  0.766870
    O   O5   0.805942  0.362489  0.511929  -0.561580
    O   O6   0.978014  0.317771  0.468031  -0.561330
    O   O7   0.938671  0.523449  0.377976  -0.639300
    O   O8   0.106780  0.474078  0.342929  -0.617580
    C   C3   0.856580  0.289074  0.484607  0.621152
    C   C4   0.029110  0.498582  0.314338  0.936077
    C   C5   0.040955  0.496874  0.208254  -0.375400
    C   C6   0.047391  0.494970  0.016237  -0.076268
    C   C7   0.952541  0.501671  0.993091  -0.074739
    C   C8   0.954244  0.500544  0.889004  0.071258
    C   C9   0.045548  0.495885  0.120313  0.075592
    C   C10  0.958648  0.499353  0.801063  -0.364877
    H   H1   0.874072  0.507910  0.052593  0.146940
    H   H2   0.125878  0.488769  0.956740  0.143133
    C   C11  0.741636  0.988507  0.375818  -0.228509
    H   H3   0.921001  0.121990  0.371390  0.115761
    H   H4   0.576522  0.794980  0.320546  0.137910
    H   H5   0.779716  0.931577  0.323620  0.125263
    C   C12  0.773643  0.170572  0.465676  -0.029278
    C   C13  0.174913  0.899466  0.599440  -0.058204
    C   C14  0.248110  0.009564  0.625282  -0.153304
    C   C15  0.375296  0.051443  0.587832  -0.159703
    C   C16  0.432424  0.984435  0.519193  0.045391
    C   C17  0.356391  0.873284  0.489281  0.172796
    C   C18  0.563185  0.025260  0.479789  0.012812
    C   C19  0.613866  0.953959  0.412317  0.228184
    C   C20  0.537240  0.848188  0.377607  -0.229178
    C   C21  0.410113  0.809414  0.413026  -0.208920
    C   C22  0.645676  0.135332  0.504602  -0.152193
    C   C23  0.821670  0.095937  0.403265  -0.100946
    C   C24  0.227500  0.829211  0.533695  -0.122519
    H   H6   0.614185  0.197045  0.553758  0.111099
    H   H7   0.076269  0.868242  0.634598  0.098981
    H   H8   0.425168  0.137714  0.614922  0.130735
    H   H9   0.205882  0.063207  0.678191  0.125696
    H   H10  0.355501  0.729028  0.376790  0.146957
    C   C25  0.640460  0.669943  0.660977  0.158162
    H   H11  0.821321  0.685895  0.669823  0.144652
    H   H12  0.423205  0.693794  0.699501  0.077758
    N   N1   0.751737  0.563058  0.554391  -0.004461
    C   C26  0.254796  0.355879  0.377282  -0.017761
    C   C27  0.356318  0.327640  0.346414  -0.143433
    C   C28  0.454401  0.381495  0.395254  -0.111490
    C   C29  0.451345  0.465251  0.476868  -0.003114
    C   C30  0.345639  0.490664  0.506313  0.282052
    C   C31  0.550739  0.524848  0.529205  0.057467
    C   C32  0.542991  0.609176  0.609108  -0.025825
    C   C33  0.436746  0.631191  0.637428  -0.032331
    C   C34  0.340803  0.572794  0.587764  -0.284413
    C   C35  0.658163  0.502678  0.504446  -0.118863
    C   C36  0.744235  0.643687  0.631780  -0.181464
    N   N2   0.248556  0.435252  0.456928  -0.115085
    H   H13  0.671247  0.437681  0.445659  0.133612
    H   H14  0.179821  0.313578  0.336488  0.149932
    H   H15  0.530832  0.355259  0.365558  0.129034
    H   H16  0.359759  0.263372  0.282520  0.114487
    H   H17  0.262484  0.595196  0.616780  0.182473
    C   C37  0.631398  0.762049  0.747272  -0.231483
    C   C38  0.744974  0.824142  0.795881  0.062162
    C   C39  0.723868  0.915278  0.878910  0.201425
    C   C40  0.836241  0.977278  0.928099  -0.265388
    H   H18  0.549024  0.725333  0.807929  0.072475
    H   H19  0.618782  0.825133  0.718139  0.064583
    H   H20  0.829644  0.863990  0.738164  0.025588
    H   H21  0.758108  0.765417  0.830643  0.012438
    H   H22  0.639272  0.877436  0.937442  -0.038845
    H   H23  0.710788  0.975388  0.845992  -0.037749
    H   H24  0.849818  0.918235  0.962050  0.044151
    H   H25  0.819869  0.043592  0.988580  0.059580
    H   H26  0.921372  0.016254  0.870433  0.049164
