data_DB0-m3_o12_o25_f0_pcu.sym.12_repeat
_audit_creation_date              2024-02-23
_audit_creation_method            'Materials Studio'
_symmetry_space_group_name_H-M    'P1'
_symmetry_Int_Tables_number       1
_symmetry_cell_setting            triclinic
loop_
_symmetry_equiv_pos_as_xyz
  x,y,z
_cell_length_a                    10.0999
_cell_length_b                    11.2477
_cell_length_c                    16.0843
_cell_angle_alpha                 89.9968
_cell_angle_beta                  80.7527
_cell_angle_gamma                 92.4699
loop_
_atom_site_label
_atom_site_type_symbol
_atom_site_fract_x
_atom_site_fract_y
_atom_site_fract_z
_atom_site_U_iso_or_equiv
_atom_site_adp_type
_atom_site_occupancy
O1     O     0.42596   0.69073   0.50762   0.00000  Uiso   1.00
O2     O     0.57404   0.30927   0.49238   0.00000  Uiso   1.00
O3     O     0.65348   0.65955   0.48523   0.00000  Uiso   1.00
O4     O     0.34652   0.34045   0.51477   0.00000  Uiso   1.00
C1     C     0.55186   0.72997   0.49531   0.00000  Uiso   1.00
C2     C     0.44814   0.27003   0.50469   0.00000  Uiso   1.00
O5     O     0.38420   0.51538   0.63509   0.00000  Uiso   1.00
O6     O     0.61580   0.48462   0.36491   0.00000  Uiso   1.00
O7     O     0.61170   0.48378   0.61304   0.00000  Uiso   1.00
O8     O     0.38830   0.51622   0.38696   0.00000  Uiso   1.00
C3     C     0.49754   0.49943   0.66270   0.00000  Uiso   1.00
C4     C     0.50246   0.50056   0.33730   0.00000  Uiso   1.00
Zn1    Zn    0.34999   0.52072   0.51446   0.00000  Uiso   1.00
Zn2    Zn    0.65001   0.47928   0.48554   0.00000  Uiso   1.00
C5     C     0.46196   0.60258   0.03115   0.00000  Uiso   1.00
C6     C     0.53804   0.39742   0.96885   0.00000  Uiso   1.00
C7     C     0.58200   0.58464   0.96395   0.00000  Uiso   1.00
C8     C     0.41800   0.41536   0.03605   0.00000  Uiso   1.00
C9     C     0.49696   0.49949   0.75198   0.00000  Uiso   1.00
C10    C     0.50304   0.50051   0.24802   0.00000  Uiso   1.00
C11    C     0.37852   0.51774   0.98589   0.00000  Uiso   1.00
C12    C     0.62148   0.48226   0.01411   0.00000  Uiso   1.00
C13    C     0.49853   0.49979   0.91770   0.00000  Uiso   1.00
C14    C     0.50147   0.50021   0.08230   0.00000  Uiso   1.00
C15    C     0.49733   0.49960   0.82686   0.00000  Uiso   1.00
C16    C     0.50267   0.50040   0.17314   0.00000  Uiso   1.00
H1     H     0.62100   0.09512   0.48832   0.00000  Uiso   1.00
H2     H     0.37900   0.90488   0.51168   0.00000  Uiso   1.00
C17    C     0.58146   0.85878   0.49244   0.00000  Uiso   1.00
C18    C     0.41854   0.14122   0.50756   0.00000  Uiso   1.00
C19    C     0.48346   0.93582   0.50169   0.00000  Uiso   1.00
C20    C     0.51654   0.06418   0.49831   0.00000  Uiso   1.00
H3     H     0.31462   0.10857   0.51757   0.00000  Uiso   1.00
H4     H     0.68538   0.89143   0.48243   0.00000  Uiso   1.00
N1     N     0.84687   0.45131   0.46672   0.00000  Uiso   1.00
N2     N     0.15313   0.54869   0.53328   0.00000  Uiso   1.00
C21    C     0.92722   0.51086   0.50713   0.00000  Uiso   1.00
C22    C     0.07278   0.48914   0.49287   0.00000  Uiso   1.00
H5     H     0.11165   0.61152   0.57476   0.00000  Uiso   1.00
H6     H     0.88836   0.38848   0.42524   0.00000  Uiso   1.00
O9     O     0.66969   0.67520   0.92592   0.00000  Uiso   1.00
H7     H     0.70745   0.71323   0.97299   0.00000  Uiso   1.00
O10    O     0.33031   0.32480   0.07408   0.00000  Uiso   1.00
H8     H     0.29255   0.28677   0.02702   0.00000  Uiso   1.00
O11    O     0.42132   0.71232   0.06393   0.00000  Uiso   1.00
H9     H     0.40324   0.75805   0.01468   0.00000  Uiso   1.00
O12    O     0.57868   0.28768   0.93607   0.00000  Uiso   1.00
H10    H     0.59676   0.24195   0.98532   0.00000  Uiso   1.00
O13    O     0.75138   0.46330   0.02865   0.00000  Uiso   1.00
H11    H     0.80457   0.45522   0.97177   0.00000  Uiso   1.00
O14    O     0.24862   0.53670   0.97135   0.00000  Uiso   1.00
H12    H     0.19543   0.54478   0.02823   0.00000  Uiso   1.00
O15    O     0.12284   0.40486   0.43626   0.00000  Uiso   1.00
H13    H     0.13246   0.44504   0.38070   0.00000  Uiso   1.00
O16    O     0.87716   0.59514   0.56374   0.00000  Uiso   1.00
H14    H     0.86754   0.55496   0.61930   0.00000  Uiso   1.00
