# Generated by REPEAT Assigner based on pymatgen
data_DB0-m2_o14_o27_f0_nbo.sym.1
_audit_creation_date              2022-05-24
_audit_creation_method            REPEAT_Assigner
_cell_length_a                    30.431516
_cell_length_b                    30.814288
_cell_length_c                    24.484676
_cell_angle_alpha                 90.000000
_cell_angle_beta                  128.413310
_cell_angle_gamma                 90.000000
_cell_volume                      17990.213867
_symmetry_space_group_name_H-M    P1
_symmetry_Int_Tables_number       1
loop_
    _symmetry_equiv_pos_site_id
    _symmetry_equiv_pos_as_xyz
    1  x,y,z
loop_
    _atom_site_type_symbol
    _atom_site_label
    _atom_site_fract_x
    _atom_site_fract_y
    _atom_site_fract_z
    _atom_type_partial_charge
    O   O1    0.681378  0.233416  0.507544  -0.627479
    O   O2    0.318622  0.233416  0.492456  -0.627549
    O   O3    0.181378  0.733416  0.507544  -0.627477
    O   O4    0.818622  0.733416  0.492456  -0.627547
    O   O5    0.734628  0.180276  0.507322  -0.586078
    O   O6    0.265372  0.180276  0.492678  -0.586181
    O   O7    0.234628  0.680276  0.507322  -0.586075
    O   O8    0.765372  0.680276  0.492678  -0.586175
    C   C1    0.695606  0.192677  0.511579  0.807833
    C   C2    0.304394  0.192677  0.488421  0.807931
    C   C3    0.195606  0.692677  0.511579  0.807832
    C   C4    0.804394  0.692677  0.488421  0.807921
    O   O9    0.671513  0.274828  0.397333  -0.585131
    O   O10   0.328487  0.274828  0.602667  -0.585060
    O   O11   0.171513  0.774828  0.397333  -0.585132
    O   O12   0.828487  0.774828  0.602667  -0.585059
    O   O13   0.723390  0.218592  0.401274  -0.566327
    O   O14   0.276610  0.218592  0.598726  -0.566363
    O   O15   0.223390  0.718592  0.401274  -0.566328
    O   O16   0.776610  0.718592  0.598726  -0.566365
    C   C5    0.680806  0.245547  0.366738  0.593702
    C   C6    0.319195  0.245547  0.633262  0.593746
    C   C7    0.180806  0.745547  0.366738  0.593703
    C   C8    0.819195  0.745547  0.633262  0.593745
    Cu  Cu1   0.717570  0.281923  0.498225  0.981812
    Cu  Cu2   0.282430  0.281923  0.501775  0.981881
    Cu  Cu3   0.217570  0.781923  0.498225  0.981812
    Cu  Cu4   0.782430  0.781923  0.501775  0.981885
    Cu  Cu5   0.781414  0.220732  0.502345  0.968760
    Cu  Cu6   0.218586  0.220732  0.497656  0.968795
    Cu  Cu7   0.281414  0.720732  0.502345  0.968760
    Cu  Cu8   0.718586  0.720732  0.497656  0.968791
    O   O17   0.765348  0.322448  0.495192  -0.609503
    O   O18   0.234652  0.322448  0.504808  -0.609678
    O   O19   0.265348  0.822448  0.495192  -0.609506
    O   O20   0.734652  0.822448  0.504808  -0.609685
    O   O21   0.816642  0.269157  0.491279  -0.629250
    O   O22   0.183358  0.269157  0.508721  -0.629214
    O   O23   0.316642  0.769157  0.491279  -0.629255
    O   O24   0.683358  0.769157  0.508721  -0.629212
    O   O25   0.774725  0.283274  0.599450  -0.557863
    O   O26   0.225275  0.283274  0.400550  -0.557867
    O   O27   0.274725  0.783274  0.599450  -0.557864
    O   O28   0.725275  0.783274  0.400550  -0.557871
    O   O29   0.828421  0.228681  0.603195  -0.565045
    O   O30   0.171579  0.228681  0.396805  -0.565046
    O   O31   0.328421  0.728681  0.603195  -0.565045
    O   O32   0.671579  0.728681  0.396805  -0.565048
    C   C9    0.803971  0.309964  0.490227  0.814104
    C   C10   0.196029  0.309964  0.509774  0.814035
    C   C11   0.303971  0.809964  0.490227  0.814110
    C   C12   0.696029  0.809964  0.509774  0.814048
    C   C13   0.818262  0.257271  0.633804  0.567251
    C   C14   0.181738  0.257271  0.366196  0.567221
    C   C15   0.318262  0.757271  0.633804  0.567250
    C   C16   0.681738  0.757271  0.366196  0.567233
    C   C17   0.639002  0.207132  0.255624  -0.141070
    C   C18   0.360998  0.207132  0.744376  -0.141163
    C   C19   0.139002  0.707132  0.255624  -0.141068
    C   C20   0.860998  0.707132  0.744376  -0.141161
    H   H1    0.663769  0.178737  0.284191  0.129627
    H   H2    0.336231  0.178737  0.715809  0.129674
    H   H3    0.163769  0.678737  0.284191  0.129626
    H   H4    0.836231  0.678737  0.715809  0.129674
    C   C21   0.602853  0.206039  0.183686  0.111251
    C   C22   0.397147  0.206039  0.816314  0.111404
    C   C23   0.102853  0.706039  0.183686  0.111249
    C   C24   0.897147  0.706039  0.816314  0.111401
    H   H5    0.600564  0.176931  0.157413  0.040017
    H   H6    0.399436  0.176931  0.842587  0.039910
    H   H7    0.100564  0.676931  0.157413  0.040017
    H   H8    0.899436  0.676931  0.842587  0.039910
    C   C25   0.571303  0.242184  0.146075  -0.488878
    C   C26   0.428697  0.242184  0.853926  -0.489025
    C   C27   0.071303  0.742184  0.146075  -0.488877
    C   C28   0.928697  0.742184  0.853926  -0.489024
    C   C29   0.575530  0.279092  0.181107  0.082655
    C   C30   0.424470  0.279092  0.818894  0.082646
    C   C31   0.075530  0.779092  0.181107  0.082656
    C   C32   0.924470  0.779092  0.818894  0.082647
    H   H9    0.551123  0.307697  0.152983  0.045915
    H   H10   0.448877  0.307697  0.847018  0.046010
    H   H11   0.051123  0.807697  0.152983  0.045915
    H   H12   0.948877  0.807697  0.847018  0.046010
    C   C33   0.610394  0.279734  0.252854  -0.122347
    C   C34   0.389607  0.279734  0.747146  -0.122373
    C   C35   0.110394  0.779734  0.252854  -0.122350
    C   C36   0.889607  0.779734  0.747146  -0.122377
    H   H13   0.613031  0.309020  0.279031  0.128235
    H   H14   0.386969  0.309020  0.720969  0.128206
    H   H15   0.113031  0.809020  0.279031  0.128237
    H   H16   0.886969  0.809020  0.720969  0.128208
    C   C37   0.642610  0.243906  0.290484  0.035042
    C   C38   0.357390  0.243906  0.709516  0.035046
    C   C39   0.142610  0.743906  0.290484  0.035042
    C   C40   0.857390  0.743906  0.709516  0.035047
    N   N1    0.516703  0.279551  0.034416  -0.356275
    N   N2    0.483298  0.279551  0.965584  -0.356383
    N   N3    0.016703  0.779551  0.034416  -0.356275
    N   N4    0.983298  0.779551  0.965584  -0.356383
    C   C41   0.465961  0.241844  0.930312  0.951770
    C   C42   0.534039  0.241844  0.069688  0.951627
    C   C43   0.965961  0.741844  0.930312  0.951770
    C   C44   0.034039  0.741844  0.069688  0.951627
    N   N5    0.483046  0.204069  0.965527  -0.354928
    N   N6    0.516954  0.204069  0.034473  -0.355032
    N   N7    0.983046  0.704069  0.965527  -0.354928
    N   N8    0.016954  0.704069  0.034473  -0.355032
    H   H17   0.586009  0.185755  0.433864  0.119044
    H   H18   0.413991  0.185755  0.566136  0.119056
    H   H19   0.086009  0.685755  0.433864  0.119043
    H   H20   0.913991  0.685755  0.566136  0.119055
    C   C45   0.750329  0.126900  0.618860  -0.291935
    C   C46   0.249671  0.126900  0.381140  -0.291743
    C   C47   0.250329  0.626900  0.618860  -0.291938
    C   C48   0.749671  0.626900  0.381140  -0.291729
    H   H21   0.775801  0.153642  0.624700  0.148224
    H   H22   0.224199  0.153642  0.375300  0.148203
    H   H23   0.275801  0.653642  0.624700  0.148224
    H   H24   0.724199  0.653642  0.375300  0.148199
    C   C49   0.777477  0.093215  0.665367  -0.038454
    C   C50   0.222524  0.093215  0.334633  -0.038686
    C   C51   0.277477  0.593215  0.665367  -0.038447
    C   C52   0.722524  0.593215  0.334633  -0.038694
    H   H25   0.822583  0.093818  0.704513  0.094523
    H   H26   0.177418  0.093818  0.295487  0.094545
    H   H27   0.322583  0.593818  0.704513  0.094522
    H   H28   0.677418  0.593818  0.295487  0.094546
    C   C53   0.747363  0.058583  0.661442  -0.102343
    C   C54   0.252637  0.058583  0.338558  -0.102138
    C   C55   0.247363  0.558583  0.661442  -0.102359
    C   C56   0.752637  0.558583  0.338558  -0.102128
    H   H29   0.768787  0.031643  0.697031  0.114431
    H   H30   0.231213  0.031643  0.302969  0.114399
    H   H31   0.268787  0.531643  0.697031  0.114434
    H   H32   0.731213  0.531643  0.302969  0.114397
    C   C57   0.689871  0.058353  0.612865  -0.260921
    C   C58   0.310130  0.058353  0.387135  -0.261083
    C   C59   0.189871  0.558353  0.612865  -0.260878
    C   C60   0.810130  0.558353  0.387135  -0.261107
    H   H33   0.668464  0.030277  0.611475  0.161866
    H   H34   0.331537  0.030277  0.388525  0.161914
    H   H35   0.168464  0.530277  0.611475  0.161843
    H   H36   0.831537  0.530277  0.388525  0.161918
    C   C61   0.661429  0.092830  0.567160  0.182164
    C   C62   0.338571  0.092830  0.432840  0.182376
    C   C63   0.161429  0.592830  0.567160  0.182114
    C   C64   0.838571  0.592830  0.432840  0.182413
    C   C65   0.692372  0.126393  0.567886  0.247704
    C   C66   0.307628  0.126393  0.432114  0.247490
    C   C67   0.192372  0.626393  0.567886  0.247720
    C   C68   0.807628  0.626393  0.432114  0.247467
    C   C69   0.665031  0.159392  0.518530  -0.245356
    C   C70   0.334969  0.159392  0.481470  -0.245278
    C   C71   0.165031  0.659392  0.518530  -0.245367
    C   C72   0.834969  0.659392  0.481470  -0.245265
    C   C73   0.607408  0.160147  0.472201  -0.077576
    C   C74   0.392592  0.160147  0.527799  -0.077625
    C   C75   0.107408  0.660147  0.472201  -0.077570
    C   C76   0.892592  0.660147  0.527799  -0.077629
    H   H37   0.531477  0.128619  0.434826  0.127317
    H   H38   0.468523  0.128619  0.565174  0.127317
    H   H39   0.031477  0.628619  0.434826  0.127323
    H   H40   0.968523  0.628619  0.565174  0.127314
    C   C77   0.576710  0.127502  0.472236  -0.092912
    C   C78   0.423290  0.127502  0.527764  -0.092887
    C   C79   0.076710  0.627502  0.472236  -0.092934
    C   C80   0.923290  0.627502  0.527764  -0.092872
    C   C81   0.602889  0.093659  0.519091  -0.173393
    C   C82   0.397111  0.093659  0.480909  -0.173434
    C   C83   0.102889  0.593659  0.519091  -0.173323
    C   C84   0.897111  0.593659  0.480909  -0.173479
    C   C85   0.910844  0.244295  0.747084  -0.102088
    C   C86   0.089157  0.244295  0.252916  -0.102049
    C   C87   0.410844  0.744295  0.747084  -0.102094
    C   C88   0.589157  0.744295  0.252916  -0.102052
    H   H41   0.925850  0.231199  0.720426  0.108433
    H   H42   0.074151  0.231199  0.279574  0.108341
    H   H43   0.425850  0.731199  0.720426  0.108434
    H   H44   0.574151  0.731199  0.279574  0.108343
    C   C89   0.946820  0.246239  0.818865  0.076355
    C   C90   0.053180  0.246239  0.181135  0.076295
    C   C91   0.446820  0.746239  0.818865  0.076364
    C   C92   0.553180  0.746239  0.181135  0.076303
    H   H45   0.989075  0.234089  0.846978  0.050779
    H   H46   0.010925  0.234089  0.153022  0.050802
    H   H47   0.489075  0.734089  0.846978  0.050776
    H   H48   0.510925  0.734089  0.153022  0.050799
    C   C93   0.928276  0.262150  0.854109  -0.511756
    C   C94   0.071724  0.262150  0.145891  -0.511748
    C   C95   0.428276  0.762150  0.854109  -0.511765
    C   C96   0.571724  0.762150  0.145891  -0.511758
    C   C97   0.873869  0.277036  0.816914  0.111163
    C   C98   0.126132  0.277036  0.183086  0.111212
    C   C99   0.373869  0.777036  0.816914  0.111162
    C   C100  0.626132  0.777036  0.183086  0.111212
    H   H49   0.858644  0.289879  0.843453  0.046767
    H   H50   0.141356  0.289879  0.156547  0.046778
    H   H51   0.358644  0.789879  0.843453  0.046768
    H   H52   0.641356  0.789879  0.156547  0.046778
    C   C101  0.838498  0.276436  0.745102  -0.160228
    C   C102  0.161502  0.276436  0.254898  -0.160249
    C   C103  0.338498  0.776436  0.745102  -0.160223
    C   C104  0.661502  0.776436  0.254898  -0.160245
    H   H53   0.796073  0.288213  0.716941  0.127460
    H   H54   0.203927  0.288213  0.283059  0.127475
    H   H55   0.296073  0.788213  0.716941  0.127458
    H   H56   0.703927  0.788213  0.283059  0.127473
    C   C105  0.856647  0.259620  0.709924  0.067337
    C   C106  0.143353  0.259620  0.290076  0.067407
    C   C107  0.356647  0.759620  0.709924  0.067338
    C   C108  0.643353  0.759620  0.290076  0.067400
    N   N9    0.944448  0.262879  0.964747  -0.373971
    N   N10   0.055552  0.262879  0.035253  -0.373780
    N   N11   0.444448  0.762879  0.964747  -0.373971
    N   N12   0.555552  0.762879  0.035253  -0.373779
    N   N13   0.978286  0.262608  0.033625  -0.365895
    N   N14   0.021714  0.262608  0.966376  -0.366046
    N   N15   0.478286  0.762608  0.033625  -0.365904
    N   N16   0.521714  0.762608  0.966376  -0.366057
    C   C109  0.034209  0.262714  0.069626  0.992636
    C   C110  0.965792  0.262714  0.930374  0.992784
    C   C111  0.534209  0.762714  0.069626  0.992649
    C   C112  0.465792  0.762714  0.930374  0.992800
    H   H57   0.912130  0.324350  0.579761  0.110242
    H   H58   0.087871  0.324350  0.420239  0.110199
    H   H59   0.412130  0.824350  0.579761  0.110243
    H   H60   0.587871  0.824350  0.420239  0.110204
    C   C113  0.751332  0.366444  0.372396  -0.305238
    C   C114  0.248668  0.366444  0.627605  -0.305168
    C   C115  0.251332  0.866444  0.372396  -0.305240
    C   C116  0.748668  0.866444  0.627605  -0.305164
    H   H61   0.726708  0.340468  0.370578  0.169721
    H   H62   0.273292  0.340468  0.629422  0.169659
    H   H63   0.226708  0.840468  0.370578  0.169722
    H   H64   0.773292  0.840468  0.629422  0.169658
    C   C117  0.724262  0.394525  0.316910  -0.074274
    C   C118  0.275738  0.394525  0.683091  -0.074312
    C   C119  0.224262  0.894525  0.316910  -0.074281
    C   C120  0.775738  0.894525  0.683091  -0.074314
    H   H65   0.680064  0.390393  0.274444  0.099888
    H   H66   0.319936  0.390393  0.725556  0.099879
    H   H67   0.180064  0.890393  0.274444  0.099888
    H   H68   0.819936  0.890393  0.725556  0.099878
    C   C121  0.753356  0.427882  0.315672  -0.063812
    C   C122  0.246644  0.427882  0.684328  -0.063644
    C   C123  0.253356  0.927882  0.315672  -0.063802
    C   C124  0.746644  0.927882  0.684328  -0.063628
    H   H69   0.731986  0.450242  0.272278  0.101531
    H   H70   0.268015  0.450242  0.727722  0.101494
    H   H71   0.231986  0.950242  0.272278  0.101529
    H   H72   0.768015  0.950242  0.727722  0.101489
    C   C125  0.809765  0.432834  0.369134  -0.248120
    C   C126  0.190235  0.432834  0.630866  -0.248138
    C   C127  0.309765  0.932834  0.369134  -0.248124
    C   C128  0.690235  0.932834  0.630866  -0.248141
    H   H73   0.829458  0.459708  0.364481  0.154790
    H   H74   0.170542  0.459708  0.635519  0.154737
    H   H75   0.329458  0.959708  0.364481  0.154783
    H   H76   0.670542  0.959708  0.635519  0.154733
    C   C129  0.838562  0.404285  0.425369  0.165516
    C   C130  0.161438  0.404285  0.574632  0.165689
    C   C131  0.338562  0.904285  0.425369  0.165528
    C   C132  0.661438  0.904285  0.574632  0.165650
    C   C133  0.808147  0.371395  0.427424  0.252297
    C   C134  0.191853  0.371395  0.572576  0.252105
    C   C135  0.308147  0.871395  0.427424  0.252296
    C   C136  0.691853  0.871395  0.572576  0.252095
    C   C137  0.834770  0.343168  0.483785  -0.217317
    C   C138  0.165230  0.343168  0.516216  -0.216971
    C   C139  0.334770  0.843168  0.483785  -0.217311
    C   C140  0.665230  0.843168  0.516216  -0.216968
    C   C141  0.891441  0.346549  0.536171  -0.082411
    C   C142  0.108560  0.346549  0.463830  -0.082439
    C   C143  0.391441  0.846549  0.536171  -0.082414
    C   C144  0.608560  0.846549  0.463830  -0.082514
    H   H77   0.966185  0.380832  0.577341  0.133128
    H   H78   0.033815  0.380832  0.422659  0.133137
    H   H79   0.466185  0.880832  0.577341  0.133120
    H   H80   0.533815  0.880832  0.422659  0.133077
    C   C145  0.921717  0.378927  0.534871  -0.084992
    C   C146  0.078284  0.378927  0.465129  -0.085123
    C   C147  0.421717  0.878927  0.534871  -0.084980
    C   C148  0.578284  0.878927  0.465129  -0.084970
    C   C149  0.896350  0.408234  0.480411  -0.189276
    C   C150  0.103650  0.408234  0.519589  -0.189414
    C   C151  0.396350  0.908234  0.480411  -0.189312
    C   C152  0.603650  0.908234  0.519589  -0.189337
    O   O33   0.024715  0.455587  0.451067  -0.616404
    O   O34   0.975285  0.455587  0.548933  -0.616445
    O   O35   0.524715  0.955587  0.451067  -0.616405
    O   O36   0.475285  0.955587  0.548933  -0.616458
    O   O37   0.075232  0.457081  0.569966  -0.576399
    O   O38   0.924768  0.457081  0.430034  -0.576479
    O   O39   0.575232  0.957081  0.569966  -0.576368
    O   O40   0.424768  0.957081  0.430034  -0.576474
    C   C153  0.067005  0.442513  0.513918  0.723743
    C   C154  0.932995  0.442513  0.486082  0.723676
    C   C155  0.567005  0.942513  0.513918  0.723613
    C   C156  0.432995  0.942513  0.486082  0.723716
    O   O41   0.523584  0.047213  0.450723  -0.609628
    O   O42   0.476416  0.047213  0.549277  -0.609537
    O   O43   0.023584  0.547213  0.450723  -0.609614
    O   O44   0.976416  0.547213  0.549277  -0.609537
    O   O45   0.576234  0.043903  0.570147  -0.589418
    O   O46   0.423766  0.043903  0.429853  -0.589344
    O   O47   0.076234  0.543903  0.570147  -0.589405
    O   O48   0.923766  0.543903  0.429853  -0.589346
    C   C157  0.566536  0.059461  0.513562  0.730118
    C   C158  0.433464  0.059461  0.486439  0.730022
    C   C159  0.066536  0.559461  0.513562  0.730048
    C   C160  0.933464  0.559461  0.486439  0.730060
    Cu  Cu9   0.971784  0.500954  0.431354  0.969365
    Cu  Cu10  0.028216  0.500954  0.568646  0.969345
    Cu  Cu11  0.471784  0.000954  0.431354  0.969384
    Cu  Cu12  0.528216  0.000954  0.568646  0.969356
