# Generated by REPEAT Assigner based on pymatgen
data_DB0-m3_o144_o149_f0_fsc
_audit_creation_date              2022-05-24
_audit_creation_method            REPEAT_Assigner
_cell_length_a                    19.547857
_cell_length_b                    8.569190
_cell_length_c                    17.504384
_cell_angle_alpha                 90.000000
_cell_angle_beta                  90.788426
_cell_angle_gamma                 90.000000
_cell_volume                      2931.869655
_symmetry_space_group_name_H-M    P1
_symmetry_Int_Tables_number       1
loop_
    _symmetry_equiv_pos_site_id
    _symmetry_equiv_pos_as_xyz
    1  x,y,z
loop_
    _atom_site_type_symbol
    _atom_site_label
    _atom_site_fract_x
    _atom_site_fract_y
    _atom_site_fract_z
    _atom_type_partial_charge
    O   O1   0.924528  0.834387  0.060793  -0.708287
    O   O2   0.075444  0.165337  0.939779  -0.714130
    O   O3   0.075472  0.834386  0.939207  -0.708309
    O   O4   0.924556  0.165337  0.060221  -0.714048
    O   O5   0.933275  0.831519  0.931428  -0.747987
    O   O6   0.066981  0.166839  0.069155  -0.744414
    O   O7   0.066725  0.831519  0.068573  -0.747809
    O   O8   0.933020  0.166839  0.930845  -0.744437
    C   C1   0.904454  0.780187  0.994003  0.849269
    C   C2   0.095808  0.218559  0.006744  0.853837
    C   C3   0.095546  0.780187  0.005997  0.849082
    C   C4   0.904193  0.218559  0.993256  0.853784
    Zn  Zn1  0.004799  0.999614  0.915645  1.102798
    Zn  Zn2  0.995201  0.999614  0.084355  1.102609
    C   C5   0.065320  0.999736  0.776024  -0.290901
    C   C6   0.934680  0.999736  0.223976  -0.291105
    N   N1   0.006037  0.999591  0.814552  0.146873
    N   N2   0.993963  0.999591  0.185448  0.147127
    C   C7   0.945516  0.999541  0.776626  -0.257468
    C   C8   0.054484  0.999541  0.223374  -0.257845
    C   C9   0.125155  0.999845  0.656970  -0.383538
    C   C10  0.874845  0.999845  0.343031  -0.383584
    C   C11  0.064696  0.999794  0.696917  0.311241
    C   C12  0.935304  0.999794  0.303084  0.311368
    C   C13  0.003182  0.999759  0.657666  -0.129029
    C   C14  0.996818  0.999759  0.342334  -0.129209
    C   C15  0.943200  0.999687  0.697741  0.288422
    C   C16  0.056800  0.999687  0.302259  0.288812
    C   C17  0.881179  0.999710  0.658977  -0.375870
    C   C18  0.118821  0.999710  0.341023  -0.376258
    C   C19  0.183998  0.999728  0.537791  -0.211705
    C   C20  0.816003  0.999728  0.462209  -0.211530
    C   C21  0.123712  0.999766  0.577951  0.220437
    C   C22  0.876288  0.999766  0.422049  0.220415
    C   C23  0.061886  0.999731  0.538928  -0.013162
    C   C24  0.938114  0.999731  0.461072  -0.013350
    C   C25  0.182412  0.999698  0.458962  -0.220739
    C   C26  0.817588  0.999698  0.541038  -0.220796
    C   C27  0.120546  0.999712  0.419966  0.231876
    C   C28  0.879455  0.999712  0.580034  0.231557
    C   C29  0.001596  0.999746  0.578838  0.027605
    C   C30  0.998404  0.999746  0.421162  0.027902
    C   C31  0.939711  0.999713  0.539966  -0.020478
    C   C32  0.060289  0.999713  0.460034  -0.020913
    H   H1   0.113428  0.999801  0.807235  0.176003
    H   H2   0.886572  0.999801  0.192765  0.176023
    H   H3   0.173597  0.999911  0.687510  0.169473
    H   H4   0.826403  0.999911  0.312490  0.169490
    H   H5   0.833967  0.999709  0.690415  0.166576
    H   H6   0.166033  0.999709  0.309585  0.166650
    H   H7   0.232677  0.999677  0.567847  0.140195
    H   H8   0.767323  0.999677  0.432153  0.140124
    H   H9   0.229860  0.999612  0.427965  0.141980
    H   H10  0.770140  0.999612  0.572035  0.141966
    H   H11  0.898429  0.999391  0.808266  0.173265
    H   H12  0.101572  0.999391  0.191734  0.173372
    H   H13  0.950412  0.499439  0.971773  0.137525
    H   H14  0.049588  0.499439  0.028227  0.137445
    C   C33  0.862848  0.638360  0.990839  -0.041224
    C   C34  0.137355  0.360489  0.010247  -0.045453
    C   C35  0.137153  0.638360  0.009161  -0.041039
    C   C36  0.862645  0.360489  0.989753  -0.045614
    C   C37  0.793032  0.639181  0.002259  -0.264714
    C   C38  0.207534  0.359336  0.001524  -0.261842
    C   C39  0.206969  0.639181  0.997741  -0.264774
    C   C40  0.792466  0.359336  0.998476  -0.261750
    H   H15  0.768113  0.749756  0.011566  0.117289
    H   H16  0.233085  0.247950  0.000230  0.118691
    H   H17  0.231887  0.749756  0.988434  0.117287
    H   H18  0.766915  0.247950  0.999770  0.118644
    C   C41  0.756389  0.499560  0.001987  0.202636
    C   C42  0.243611  0.499560  0.998014  0.202655
    C   C43  0.896261  0.499467  0.981328  -0.113535
    C   C44  0.103739  0.499467  0.018672  -0.113646
    C   C45  0.426825  0.372280  0.972919  -0.140965
    C   C46  0.573439  0.630385  0.977201  -0.154824
    C   C47  0.573175  0.372280  0.027081  -0.140953
    C   C48  0.426562  0.630385  0.022799  -0.154764
    H   H19  0.454257  0.271363  0.952505  0.103636
    H   H20  0.546300  0.730923  0.955074  0.106594
    H   H21  0.545743  0.271363  0.047495  0.103665
    H   H22  0.453700  0.730923  0.044926  0.106629
    C   C49  0.356078  0.373066  0.969981  -0.147396
    C   C50  0.644118  0.629281  0.977152  -0.120719
    C   C51  0.643922  0.373066  0.030019  -0.147356
    C   C52  0.355882  0.629281  0.022848  -0.120864
    H   H23  0.330520  0.272572  0.945979  0.115701
    H   H24  0.669881  0.728756  0.953140  0.106570
    H   H25  0.669480  0.272572  0.054021  0.115714
    H   H26  0.330119  0.728756  0.046861  0.106627
    C   C53  0.319524  0.501072  0.995831  0.023456
    C   C54  0.680476  0.501072  0.004169  0.023354
    C   C55  0.462429  0.501232  0.998858  0.077000
    C   C56  0.537572  0.501232  0.001143  0.077086
