# Generated by REPEAT Assigner based on pymatgen
data_DB0-m3_o21_o29_f0_pcu.sym.91_sqe
_audit_creation_date              2022-05-24
_audit_creation_method            REPEAT_Assigner
_cell_length_a                    12.947745
_cell_length_b                    14.109953
_cell_length_c                    27.677092
_cell_angle_alpha                 90.000746
_cell_angle_beta                  93.529334
_cell_angle_gamma                 88.911871
_cell_volume                      5045.881764
_symmetry_space_group_name_H-M    P1
_symmetry_Int_Tables_number       1
loop_
    _symmetry_equiv_pos_site_id
    _symmetry_equiv_pos_as_xyz
    1  x,y,z
loop_
    _atom_site_type_symbol
    _atom_site_label
    _atom_site_fract_x
    _atom_site_fract_y
    _atom_site_fract_z
    _atom_type_partial_charge
    O   O1   0.386951  0.637086  0.494706  -0.689648
    O   O2   0.589887  0.365297  0.501214  -0.679248
    O   O3   0.564993  0.647220  0.499736  -0.691358
    O   O4   0.411859  0.355128  0.495863  -0.677148
    C   C1   0.472089  0.686124  0.497003  0.887422
    C   C2   0.504789  0.316240  0.498754  0.869015
    O   O5   0.399418  0.496490  0.567264  -0.698136
    O   O6   0.577450  0.505507  0.428459  -0.482943
    O   O7   0.577009  0.507010  0.572396  -0.467181
    O   O8   0.399811  0.495728  0.423296  -0.690925
    C   C3   0.488230  0.502014  0.592664  0.700804
    C   C4   0.488721  0.500374  0.403046  0.647227
    Zn  Zn1  0.371159  0.494504  0.494445  1.140654
    Zn  Zn2  0.605689  0.507860  0.501261  0.964738
    C   C5   0.471708  0.584634  0.821272  0.633142
    C   C6   0.484307  0.416250  0.173895  0.642119
    O   O9   0.472401  0.665343  0.795551  -0.530604
    O   O10  0.497097  0.336206  0.200041  -0.537956
    N   N1   0.469321  0.501973  0.797181  -0.285268
    N   N2   0.469856  0.498174  0.197477  -0.285177
    C   C7   0.463671  0.418911  0.820503  0.619439
    C   C8   0.452023  0.580183  0.173491  0.630900
    C   C9   0.391051  0.475569  0.716289  -0.217507
    C   C10  0.387826  0.515597  0.273734  -0.203261
    C   C11  0.396612  0.476044  0.666721  -0.094170
    C   C12  0.393446  0.515772  0.323620  -0.121187
    C   C13  0.571990  0.527006  0.676116  0.399315
    C   C14  0.576013  0.485005  0.324512  0.364115
    C   C15  0.564560  0.528687  0.725659  -0.283469
    C   C16  0.568879  0.482290  0.274551  -0.261319
    C   C17  0.474840  0.502285  0.745888  0.206061
    C   C18  0.475413  0.498400  0.249074  0.197287
    C   C19  0.464017  0.501034  0.896426  0.213025
    C   C20  0.464290  0.498596  0.097939  0.224228
    C   C21  0.471201  0.585830  0.871604  -0.292475
    C   C22  0.483775  0.414967  0.123532  -0.308481
    C   C23  0.478150  0.669860  0.897783  0.327569
    C   C24  0.502727  0.332053  0.098099  0.341467
    C   C25  0.458628  0.416809  0.870630  -0.324113
    C   C26  0.446724  0.581831  0.123068  -0.339292
    C   C27  0.486799  0.501445  0.645946  -0.095136
    C   C28  0.487209  0.500767  0.349679  -0.054706
    H   H1   0.630512  0.549315  0.748887  0.168240
    H   H2   0.637735  0.469216  0.255177  0.159034
    C   C29  0.451451  0.583703  0.022293  0.128965
    C   C30  0.463640  0.415338  0.971691  0.096648
    C   C31  0.473099  0.415041  0.022339  0.128933
    C   C32  0.460780  0.584815  0.972188  0.097597
    C   C33  0.462823  0.499088  0.047507  -0.103528
    C   C34  0.462687  0.500408  0.946778  -0.082953
    C   C35  0.429214  0.665558  0.047703  -0.289441
    C   C36  0.453388  0.332073  0.945340  -0.264584
    C   C37  0.424682  0.664937  0.097118  0.385265
    C   C38  0.448797  0.332303  0.895662  0.371996
    O   O11  0.442929  0.660167  0.199346  -0.482429
    O   O12  0.466521  0.338610  0.794496  -0.461143
    C   C39  0.470907  0.668843  0.947050  -0.257788
    C   C40  0.495290  0.332416  0.048412  -0.280188
    H   H3   0.323163  0.528942  0.341842  0.148310
    H   H4   0.329294  0.455182  0.644541  0.143814
    H   H5   0.314158  0.528015  0.253987  0.154867
    H   H6   0.320232  0.455112  0.731866  0.158974
    H   H7   0.408264  0.731654  0.029987  0.123539
    H   H8   0.442157  0.264568  0.962124  0.115102
    H   H9   0.480544  0.736079  0.964937  0.111036
    H   H10  0.514504  0.266413  0.031362  0.118635
    C   C41  0.513991  0.214761  0.500138  -0.230606
    C   C42  0.463261  0.787646  0.497037  -0.271607
    C   C43  0.533302  0.027702  0.504118  0.223863
    C   C44  0.448634  0.974867  0.498177  0.268152
    C   C45  0.456455  0.872942  0.497372  -0.043444
    C   C46  0.522387  0.129585  0.501754  0.025543
    N   N3   0.216877  0.485736  0.489920  -0.153808
    N   N4   0.759973  0.516615  0.505785  -0.142263
    C   C47  0.016690  0.474455  0.483718  -0.019687
    C   C48  0.960170  0.527726  0.512071  -0.066175
    C   C49  0.849232  0.521570  0.508568  0.209054
    C   C50  0.127622  0.480698  0.487171  0.181098
    H   H11  0.997684  0.575804  0.537852  0.175971
    H   H12  0.979140  0.426396  0.457940  0.172204
    N   N5   0.665474  0.555322  0.657371  -0.774817
    C   C51  0.737092  0.484732  0.656741  0.828121
    O   O13  0.710566  0.402273  0.656545  -0.555247
    C   C52  0.848903  0.507406  0.656160  -0.529695
    H   H13  0.695156  0.617824  0.670802  0.355679
    H   H14  0.873218  0.547129  0.689391  0.119353
    H   H15  0.861833  0.551065  0.623845  0.127724
    H   H16  0.895199  0.440634  0.654787  0.143972
    N   N6   0.673610  0.467892  0.348761  -0.722313
    C   C53  0.731638  0.546277  0.353110  0.840375
    O   O14  0.690311  0.624593  0.350016  -0.583847
    C   C54  0.846326  0.538021  0.361909  -0.584191
    H   H17  0.713661  0.409161  0.337386  0.338106
    H   H18  0.871486  0.462684  0.365616  0.119553
    H   H19  0.869971  0.576133  0.395719  0.148982
    H   H20  0.884070  0.570447  0.331209  0.157065
    N   N7   0.492903  0.758168  0.875490  -0.436497
    C   C55  0.593538  0.779526  0.872430  0.790835
    O   O15  0.659776  0.716863  0.875464  -0.587583
    C   C56  0.624638  0.879601  0.865233  -0.607776
    H   H21  0.447948  0.813738  0.886903  0.247672
    H   H22  0.555723  0.927541  0.861759  0.129425
    H   H23  0.667186  0.884282  0.831771  0.207482
    H   H24  0.675885  0.902005  0.896575  0.146111
    N   N8   0.530082  0.245565  0.121609  -0.457063
    C   C57  0.633178  0.232919  0.130443  0.806474
    O   O16  0.690052  0.300843  0.130875  -0.590786
    C   C58  0.678424  0.136122  0.139834  -0.615928
    H   H25  0.493296  0.186491  0.107887  0.254404
    H   H26  0.616780  0.082618  0.139638  0.132219
    H   H27  0.721544  0.135153  0.175719  0.200979
    H   H28  0.732413  0.118169  0.111474  0.152139
    N   N9   0.397535  0.750684  0.119834  -0.525235
    C   C59  0.295005  0.760914  0.125367  0.807551
    O   O17  0.239904  0.691724  0.123753  -0.587187
    C   C60  0.248216  0.856609  0.133532  -0.597251
    H   H29  0.431256  0.810727  0.107434  0.276777
    H   H30  0.308486  0.911493  0.135479  0.127819
    H   H31  0.209144  0.856203  0.168077  0.198887
    H   H32  0.190433  0.873696  0.103399  0.147684
    N   N10  0.434268  0.244735  0.871744  -0.516682
    C   C61  0.333880  0.225636  0.860348  0.795937
    O   O18  0.269087  0.289589  0.858487  -0.581869
    C   C62  0.301288  0.126463  0.849904  -0.595355
    H   H33  0.476480  0.188005  0.886332  0.274674
    H   H34  0.369138  0.077165  0.851683  0.127633
    H   H35  0.262463  0.123438  0.813102  0.206151
    H   H36  0.246299  0.104479  0.876774  0.143051
    N   N11  0.349811  0.018889  0.491325  -0.738499
    C   C63  0.305889  0.041242  0.532917  0.866117
    O   O19  0.359077  0.048724  0.570587  -0.552071
    C   C64  0.191673  0.056043  0.532977  -0.513805
    H   H37  0.299351  0.987604  0.466240  0.358503
    H   H38  0.152140  0.990085  0.521305  0.107266
    H   H39  0.167230  0.114536  0.507797  0.128461
    H   H40  0.170424  0.074692  0.570051  0.146641
    N   N12  0.633617  0.984861  0.507796  -0.600418
    C   C65  0.695393  0.007389  0.547141  0.781042
    O   O20  0.670190  0.070434  0.574402  -0.490916
    C   C66  0.794352  0.953614  0.558315  -0.623522
    H   H41  0.646734  0.919979  0.492145  0.328670
    H   H42  0.807239  0.899620  0.530104  0.138229
    H   H43  0.791336  0.918001  0.593904  0.170886
    H   H44  0.859537  0.003604  0.559884  0.174889
