# Generated by REPEAT Assigner based on pymatgen
data_DB0-m2_o14_o78_f0_fsc
_audit_creation_date              2022-05-24
_audit_creation_method            REPEAT_Assigner
_cell_length_a                    6.613311
_cell_length_b                    9.198341
_cell_length_c                    13.324544
_cell_angle_alpha                 90.069370
_cell_angle_beta                  89.931406
_cell_angle_gamma                 90.060698
_cell_volume                      810.550151
_symmetry_space_group_name_H-M    P1
_symmetry_Int_Tables_number       1
loop_
    _symmetry_equiv_pos_site_id
    _symmetry_equiv_pos_as_xyz
    1  x,y,z
loop_
    _atom_site_type_symbol
    _atom_site_label
    _atom_site_fract_x
    _atom_site_fract_y
    _atom_site_fract_z
    _atom_type_partial_charge
    O   O1   0.236269  0.895995  0.907610  -0.554016
    O   O2   0.201553  0.142949  0.900798  -0.580271
    C   C1   0.291054  0.022763  0.870713  0.615539
    O   O3   0.831474  0.878646  0.894078  -0.720443
    O   O4   0.790601  0.123920  0.899467  -0.689164
    C   C2   0.740484  0.996602  0.862796  0.907380
    Cu  Cu1  0.021558  0.868678  0.007076  0.883418
    Cu  Cu2  0.991049  0.155450  0.005004  0.973171
    O   O5   0.812894  0.878246  0.110138  -0.753186
    O   O6   0.779331  0.124433  0.106155  -0.704765
    O   O7   0.227146  0.901708  0.111497  -0.629156
    O   O8   0.191304  0.148603  0.111563  -0.611492
    C   C3   0.725188  0.996890  0.141925  0.926510
    C   C4   0.278647  0.031182  0.145665  0.705675
    H   H1   0.287268  0.365058  0.058415  0.125955
    C   C5   0.638172  0.379768  0.965161  -0.160090
    H   H2   0.619251  0.264080  0.969895  0.166936
    C   C6   0.474408  0.463062  0.937834  -0.128054
    H   H3   0.334982  0.411371  0.915027  0.121775
    C   C7   0.485947  0.611971  0.943757  -0.092702
    H   H4   0.355925  0.677906  0.925110  0.106900
    C   C8   0.661170  0.676685  0.977135  0.000849
    H   H5   0.657842  0.790686  0.995417  0.111604
    C   C9   0.834053  0.594768  0.991563  0.026909
    C   C10  0.821354  0.444802  0.987413  0.138072
    N   N1   0.985973  0.363722  0.007697  -0.070471
    C   C11  0.158148  0.429908  0.036908  -0.004687
    H   H6   0.308922  0.631287  0.065542  0.135162
    C   C12  0.171570  0.579696  0.039637  -0.110161
    N   N2   0.011942  0.660719  0.012372  0.059486
    C   C13  0.407927  0.024142  0.777239  0.013937
    C   C14  0.300102  0.028854  0.688765  -0.206666
    C   C15  0.393463  0.004411  0.597892  -0.077205
    C   C16  0.438836  0.090966  0.409280  -0.152170
    C   C17  0.611961  0.990558  0.773864  -0.260034
    C   C18  0.703571  0.963453  0.682724  0.177690
    C   C19  0.599343  0.981593  0.593970  0.083127
    C   C20  0.699504  0.965938  0.502996  -0.192741
    C   C21  0.331827  0.102900  0.320944  -0.099243
    C   C22  0.408045  0.042928  0.234007  -0.041273
    C   C23  0.608745  0.003372  0.412676  0.111438
    C   C24  0.699704  0.964855  0.323232  0.194764
    C   C25  0.603480  0.991818  0.233328  -0.256872
    C   C26  0.898960  0.912508  0.681335  -0.229892
    C   C27  0.990084  0.878982  0.591363  -0.235428
    C   C28  0.892434  0.908316  0.502282  0.269927
    C   C29  0.988144  0.878989  0.412579  -0.230620
    C   C30  0.890762  0.905296  0.323144  -0.232032
    H   H7   0.138749  0.045581  0.690960  0.137155
    H   H8   0.300075  0.986814  0.532553  0.164443
    H   H9   0.394858  0.157554  0.472648  0.092937
    H   H10  0.188347  0.159071  0.319922  0.114657
    H   H11  0.975702  0.890378  0.751306  0.220293
    H   H12  0.138598  0.830190  0.590895  0.111586
    H   H13  0.138532  0.833052  0.412455  0.114010
    H   H14  0.964282  0.879332  0.252881  0.211528
