# Generated by REPEAT Assigner based on pymatgen
data_DB0-m29_o81_o86_f0_pts.sym.3
_audit_creation_date              2022-05-24
_audit_creation_method            REPEAT_Assigner
_cell_length_a                    15.758054
_cell_length_b                    14.624979
_cell_length_c                    11.102350
_cell_angle_alpha                 93.901879
_cell_angle_beta                  87.956240
_cell_angle_gamma                 107.797290
_cell_volume                      2430.268608
_symmetry_space_group_name_H-M    P1
_symmetry_Int_Tables_number       1
loop_
    _symmetry_equiv_pos_site_id
    _symmetry_equiv_pos_as_xyz
    1  x,y,z
loop_
    _atom_site_type_symbol
    _atom_site_label
    _atom_site_fract_x
    _atom_site_fract_y
    _atom_site_fract_z
    _atom_type_partial_charge
    C   C1   0.879579  0.017992  0.846123  -0.196401
    C   C2   0.279376  0.992306  0.894392  -0.043413
    C   C3   0.194986  0.989792  0.859854  -0.158508
    C   C4   0.128238  0.987469  0.944957  0.137220
    C   C5   0.046014  0.990092  0.909385  -0.233265
    C   C6   0.979090  0.992815  0.994338  -0.022182
    C   C7   0.797487  0.020980  0.815085  -0.165501
    C   C8   0.727746  0.002718  0.896673  0.029655
    C   C9   0.895717  0.999659  0.962647  0.130744
    C   C10  0.828152  0.991912  0.050102  0.140241
    C   C11  0.741858  0.989147  0.016611  -0.127974
    C   C12  0.295141  0.989658  0.016944  -0.000111
    C   C13  0.226554  0.982618  0.100158  -0.266247
    C   C14  0.144061  0.983622  0.064718  0.233955
    C   C15  0.077847  0.982670  0.149298  -0.330826
    C   C16  0.996140  0.987445  0.114464  0.249607
    C   C17  0.932339  0.988906  0.201458  -0.216681
    C   C18  0.849518  0.991134  0.170294  -0.173034
    H   H1   0.929461  0.033081  0.775575  0.130991
    H   H2   0.181150  0.991934  0.765678  0.128864
    H   H3   0.036983  0.988560  0.813766  0.161677
    H   H4   0.787287  0.032786  0.722403  0.189477
    H   H5   0.239322  0.981747  0.194995  0.206172
    H   H6   0.090448  0.979663  0.243789  0.158700
    H   H7   0.946782  0.987904  0.295723  0.149957
    H   H8   0.804463  0.995949  0.243835  0.163247
    O   O1   0.605681  0.017806  0.096208  -0.570044
    C   C19  0.666574  0.973811  0.105475  0.571332
    O   O2   0.484401  0.795434  0.182435  -0.430922
    O   O3   0.657982  0.913234  0.190138  -0.479392
    O   O4   0.499792  0.898627  0.345741  -0.563853
    C   C20  0.483376  0.809598  0.300411  0.624476
    Fe  Fe1  0.511442  0.994322  0.223407  1.470028
    O   O5   0.394022  0.941105  0.140243  -0.660897
    O   O6   0.447439  0.083198  0.051625  -0.512841
    C   C21  0.383533  0.002254  0.065221  0.809998
    O   O7   0.541862  0.124015  0.312347  -0.665660
    O   O8   0.391719  0.078710  0.347439  -0.596445
    C   C22  0.470498  0.143082  0.358036  0.801698
    O   O9   0.466422  0.873620  0.605958  -0.650387
    O   O10  0.614440  0.904993  0.561953  -0.561375
    C   C23  0.532472  0.846902  0.555440  0.765382
    O   O11  0.635506  0.047184  0.759785  -0.669671
    O   O12  0.570503  0.922082  0.876444  -0.515478
    C   C24  0.640272  0.993873  0.848333  0.746561
    O   O13  0.331210  0.002077  0.686438  -0.498506
    O   O14  0.525574  0.099765  0.567213  -0.533505
    C   C25  0.511277  0.179044  0.613041  0.566294
    O   O15  0.427733  0.993195  0.828255  -0.552098
    C   C26  0.348625  0.996178  0.799860  0.599702
    O   O16  0.486773  0.183321  0.726997  -0.501507
    Fe  Fe2  0.512777  0.004537  0.690417  1.463615
    C   C27  0.479774  0.237569  0.419020  -0.039484
    C   C28  0.511992  0.258352  0.535887  -0.069932
    C   C29  0.535154  0.353422  0.583491  0.178180
    C   C30  0.581346  0.380213  0.690510  -0.355275
    C   C31  0.600558  0.472589  0.741058  0.295637
    C   C32  0.418629  0.285124  0.246123  0.006556
    C   C33  0.458320  0.307401  0.358335  -0.046250
    C   C34  0.475292  0.399943  0.410400  0.096628
    C   C35  0.393760  0.353079  0.189295  -0.231865
    C   C36  0.410844  0.444696  0.241094  0.184682
    C   C37  0.515672  0.423492  0.521324  -0.097497
    C   C38  0.535417  0.517121  0.570862  0.086940
    C   C39  0.575948  0.541048  0.682220  -0.081745
    C   C40  0.592409  0.633616  0.732703  -0.060075
    C   C41  0.453323  0.469408  0.350214  -0.028263
    C   C42  0.473620  0.563346  0.398621  -0.002328
    C   C43  0.514707  0.586965  0.509088  0.013081
    C   C44  0.532841  0.679807  0.559379  0.034717
    C   C45  0.570401  0.701776  0.672821  -0.109747
    C   C46  0.383153  0.510852  0.184583  -0.154262
    C   C47  0.402245  0.603615  0.232710  -0.174198
    C   C48  0.453107  0.633094  0.336000  0.137940
    C   C49  0.480778  0.729714  0.379732  -0.128701
    C   C50  0.514937  0.750608  0.496317  -0.014353
    H   H9   0.606191  0.330458  0.734718  0.179761
    H   H10  0.403247  0.214470  0.201262  0.070579
    H   H11  0.360709  0.333884  0.103428  0.139148
    H   H12  0.622755  0.655863  0.819717  0.113810
    H   H13  0.585419  0.772208  0.718311  0.094730
    H   H14  0.345452  0.490165  0.102386  0.127092
    H   H15  0.373099  0.650156  0.189208  0.139299
    C   C51  0.648902  0.496284  0.858247  -0.361104
    H   H16  0.606974  0.519509  0.928879  0.120987
    H   H17  0.663871  0.432495  0.889189  0.117811
    H   H18  0.713006  0.553881  0.846917  0.084628
