# Generated by REPEAT Assigner based on pymatgen
data_DB0-m3_o21_o23_f0_pcu.sym.15_sqe
_audit_creation_date              2022-05-24
_audit_creation_method            REPEAT_Assigner
_cell_length_a                    12.958882
_cell_length_b                    14.096548
_cell_length_c                    15.944690
_cell_angle_alpha                 90.004306
_cell_angle_beta                  93.537272
_cell_angle_gamma                 88.909899
_cell_volume                      2906.627364
_symmetry_space_group_name_H-M    P1
_symmetry_Int_Tables_number       1
loop_
    _symmetry_equiv_pos_site_id
    _symmetry_equiv_pos_as_xyz
    1  x,y,z
loop_
    _atom_site_type_symbol
    _atom_site_label
    _atom_site_fract_x
    _atom_site_fract_y
    _atom_site_fract_z
    _atom_type_partial_charge
    O   O1   0.394216  0.638177  0.495137  -0.653302
    O   O2   0.572396  0.648185  0.503688  -0.637583
    C   C1   0.479471  0.687139  0.498690  0.833314
    O   O3   0.406898  0.498683  0.622213  -0.671544
    O   O4   0.585069  0.508707  0.630764  -0.675467
    C   C2   0.496071  0.504157  0.665422  0.853196
    Zn  Zn1  0.378390  0.495470  0.495882  1.100412
    Zn  Zn2  0.613258  0.508734  0.507187  1.045824
    O   O5   0.419237  0.356015  0.499381  -0.662091
    O   O6   0.597447  0.366025  0.507927  -0.679771
    O   O7   0.406575  0.495324  0.372307  -0.670367
    O   O8   0.584780  0.505359  0.380850  -0.677317
    C   C3   0.512177  0.317066  0.504369  0.894483
    C   C4   0.495576  0.499884  0.337648  0.873569
    C   C5   0.392689  0.531988  0.947927  0.250908
    C   C6   0.583936  0.554692  0.959711  -0.462090
    C   C7   0.588794  0.546606  0.054218  0.876846
    H   H1   0.659289  0.532629  0.935992  0.177157
    H   H2   0.569399  0.629809  0.941355  0.082500
    H   H3   0.587997  0.618728  0.081776  -0.053414
    C   C8   0.495333  0.497821  0.247664  -0.346057
    C   C9   0.497911  0.492669  0.922906  0.126901
    C   C10  0.394996  0.541960  0.044878  1.065296
    C   C11  0.494437  0.492882  0.080209  -1.237092
    C   C12  0.496981  0.389851  0.048785  0.597859
    C   C13  0.515300  0.389339  0.954396  -0.162256
    C   C14  0.494869  0.495433  0.172057  0.344459
    C   C15  0.497191  0.497961  0.830996  0.091758
    C   C16  0.496588  0.501723  0.755403  -0.307473
    H   H4   0.422355  0.357189  0.059662  0.089400
    H   H5   0.335088  0.484132  0.918371  -0.046088
    C   C17  0.520963  0.215471  0.507044  -0.302709
    C   C18  0.536520  0.028237  0.513167  0.220060
    C   C19  0.455132  0.975969  0.489893  0.239517
    C   C20  0.463547  0.874054  0.493370  -0.001894
    C   C21  0.528103  0.130151  0.509689  0.012614
    C   C22  0.470686  0.788735  0.496015  -0.269312
    N   N1   0.224248  0.486615  0.488412  -0.205794
    C   C23  0.024390  0.473377  0.479582  -0.271667
    C   C24  0.967436  0.529523  0.526223  0.424538
    C   C25  0.856554  0.522915  0.519737  0.017932
    C   C26  0.135142  0.480816  0.484404  0.305734
    N   N2   0.767402  0.517590  0.514703  -0.042439
    H   H6   0.987254  0.421784  0.437952  0.217896
    O   O9   0.404186  0.639354  0.063520  -0.392042
    C   C27  0.311803  0.675719  0.093295  -0.041301
    H   H7   0.301515  0.651807  0.158599  0.043287
    H   H8   0.244510  0.660840  0.049316  0.033384
    H   H9   0.317307  0.754072  0.096033  0.068561
    O   O10  0.313114  0.503580  0.089307  -0.373332
    C   C28  0.233563  0.460920  0.039662  -0.114192
    H   H10  0.260821  0.395769  0.008345  0.042621
    H   H11  0.193842  0.512000  0.995634  0.054281
    H   H12  0.174197  0.437714  0.082048  0.106261
    O   O11  0.577600  0.338704  0.092448  -0.317829
    C   C29  0.534055  0.272645  0.145292  0.103978
    H   H13  0.497134  0.214461  0.108623  -0.041646
    H   H14  0.477907  0.306555  0.186149  -0.014988
    H   H15  0.596900  0.240617  0.187048  0.056811
    O   O12  0.364925  0.019032  0.459026  -0.327469
    C   C30  0.297064  0.012346  0.523394  0.155202
    H   H16  0.340920  0.011282  0.585369  -0.013749
    H   H17  0.251572  0.946747  0.515407  0.012852
    H   H18  0.243711  0.074865  0.520781  0.033762
    O   O13  0.626727  0.985174  0.544035  -0.330569
    C   C31  0.694589  0.991863  0.479669  0.160831
    H   H19  0.740076  0.057466  0.487655  0.012275
    H   H20  0.650734  0.992924  0.417693  -0.014426
    H   H21  0.747947  0.929348  0.482283  0.033947
    O   O14  0.013959  0.596208  0.577629  -0.268602
    C   C32  0.010481  0.560142  0.658958  0.118060
    H   H22  0.011631  0.481469  0.657516  0.004432
    H   H23  0.939235  0.586356  0.687215  0.052215
    H   H24  0.079091  0.584141  0.697692  0.050838
    O   O15  0.378592  0.623188  0.912818  -0.379931
    C   C33  0.289303  0.624136  0.858375  0.108572
    H   H25  0.219410  0.613851  0.893438  -0.016279
    H   H26  0.294812  0.571199  0.807279  0.019929
    H   H27  0.281314  0.694956  0.828157  0.049847
    O   O16  0.679951  0.498296  0.082214  -0.340466
    C   C34  0.750377  0.566921  0.110831  -0.018702
    H   H28  0.827370  0.532224  0.122931  0.066210
    H   H29  0.726973  0.598125  0.170886  0.024987
    H   H30  0.758094  0.622510  0.062409  -0.001458
    O   O17  0.442916  0.331463  0.909594  -0.227681
    C   C35  0.452414  0.236126  0.935491  -0.047353
    H   H31  0.390672  0.219814  0.978135  0.042396
    H   H32  0.529077  0.217222  0.965711  0.112006
    H   H33  0.441169  0.190271  0.879285  0.067197
    O   O18  0.619192  0.357929  0.947153  -0.233147
    C   C36  0.643513  0.337233  0.864054  0.039948
    H   H34  0.685099  0.397495  0.838022  0.024770
    H   H35  0.576596  0.319372  0.821059  0.073784
    H   H36  0.696754  0.274657  0.865531  0.035475
