# Generated by REPEAT Assigner based on pymatgen
data_DB0-m3_o112_o21_f0_fsc.sym.14_sqe
_audit_creation_date              2022-05-24
_audit_creation_method            REPEAT_Assigner
_cell_length_a                    6.583778
_cell_length_b                    12.369343
_cell_length_c                    12.314197
_cell_angle_alpha                 90.783274
_cell_angle_beta                  95.194828
_cell_angle_gamma                 80.343668
_cell_volume                      984.560936
_symmetry_space_group_name_H-M    P1
_symmetry_Int_Tables_number       1
loop_
    _symmetry_equiv_pos_site_id
    _symmetry_equiv_pos_as_xyz
    1  x,y,z
loop_
    _atom_site_type_symbol
    _atom_site_label
    _atom_site_fract_x
    _atom_site_fract_y
    _atom_site_fract_z
    _atom_type_partial_charge
    C   C1   0.209701  0.250699  0.015604  0.027881
    C   C2   0.343127  0.154272  0.039236  -0.290489
    C   C3   0.272998  0.055601  0.034225  -0.006343
    C   C4   0.001591  0.248978  0.991794  -0.297301
    C   C5   0.931771  0.149531  0.983629  0.350784
    C   C6   0.066974  0.052010  0.003243  -0.096165
    C   C7   0.992972  0.952997  0.994500  0.037319
    C   C8   0.124387  0.853557  0.008966  -0.214311
    C   C9   0.049081  0.756127  0.000952  -0.163439
    C   C10  0.724447  0.148493  0.956909  -0.423298
    C   C11  0.650910  0.050533  0.949654  -0.178111
    C   C12  0.784568  0.952998  0.968655  0.226152
    C   C13  0.708442  0.855436  0.962331  -0.249288
    C   C14  0.839719  0.756606  0.979319  0.108305
    H   H1   0.505181  0.155839  0.061074  0.188982
    H   H2   0.619551  0.224844  0.941003  0.272126
    H   H3   0.488366  0.050106  0.927946  0.142821
    H   H4   0.544025  0.856611  0.945728  0.144399
    H   H5   0.384012  0.983056  0.054587  0.053628
    H   H6   0.289291  0.848396  0.022600  0.156997
    O   O1   0.331460  0.382485  0.911494  -0.740184
    O   O2   0.373395  0.390869  0.099495  -0.716570
    C   C15  0.297982  0.350434  0.008638  0.847628
    O   O3   0.793326  0.387128  0.086844  -0.698462
    O   O4   0.749594  0.385656  0.898845  -0.703200
    C   C16  0.848676  0.349360  0.991852  0.860245
    O   O5   0.717563  0.623685  0.081691  -0.671028
    O   O6   0.675811  0.615432  0.893857  -0.457167
    C   C17  0.750091  0.656589  0.984882  0.558357
    O   O7   0.255984  0.618615  0.906148  -0.652131
    O   O8   0.299726  0.620122  0.094320  -0.689705
    C   C18  0.199882  0.655591  0.001104  0.854729
    Zn  Zn1  0.556786  0.506031  0.118073  1.110562
    Zn  Zn2  0.492783  0.499938  0.875075  0.984875
    N   N1   0.456404  0.497036  0.732096  -0.084003
    C   C19  0.440099  0.499251  0.520776  -0.300453
    C   C20  0.610060  0.506436  0.472381  0.311515
    C   C21  0.602436  0.508125  0.355319  0.024477
    C   C22  0.447501  0.497712  0.637831  0.213804
    N   N2   0.593296  0.508928  0.261050  -0.061710
    H   H7   0.296038  0.495074  0.472032  0.213999
    C   C23  0.808312  0.511565  0.539251  -0.254768
    C   C24  0.782741  0.609713  0.610822  0.279223
    C   C25  0.946890  0.631428  0.680618  -0.305691
    C   C26  0.923282  0.722469  0.747093  0.022485
    C   C27  0.735512  0.791803  0.743769  -0.207919
    C   C28  0.571363  0.770094  0.673968  -0.014004
    C   C29  0.594969  0.679044  0.607495  -0.310454
    H   H8   0.931341  0.516950  0.484689  0.102748
    H   H9   0.852231  0.436626  0.590220  0.101785
    H   H10  0.094077  0.577070  0.683225  0.164565
    H   H11  0.051967  0.739488  0.801804  0.103319
    H   H12  0.716998  0.863177  0.795876  0.111349
    H   H13  0.424175  0.824450  0.671365  0.073362
    H   H14  0.466288  0.662021  0.552789  0.137776
