data_DB0-m3_o92_o152_f0_fsc_repeat
_audit_creation_date              2024-02-23
_audit_creation_method            'Materials Studio'
_symmetry_space_group_name_H-M    'P1'
_symmetry_Int_Tables_number       1
_symmetry_cell_setting            triclinic
loop_
_symmetry_equiv_pos_as_xyz
  x,y,z
_cell_length_a                    13.2482
_cell_length_b                    13.3415
_cell_length_c                    16.4226
_cell_angle_alpha                 94.6805
_cell_angle_beta                  90.0463
_cell_angle_gamma                 90.6102
loop_
_atom_site_label
_atom_site_type_symbol
_atom_site_fract_x
_atom_site_fract_y
_atom_site_fract_z
_atom_site_U_iso_or_equiv
_atom_site_adp_type
_atom_site_occupancy
O1     O     0.88092   0.07169   0.91475   0.00000  Uiso   1.00
O2     O     0.92302   0.90708   0.89941   0.00000  Uiso   1.00
C1     C     0.86927   0.98194   0.87620   0.00000  Uiso   1.00
O3     O     0.12722   0.93002   0.90877   0.00000  Uiso   1.00
O4     O     0.08594   0.09553   0.92269   0.00000  Uiso   1.00
C2     C     0.14003   0.02240   0.88804   0.00000  Uiso   1.00
O5     O     0.12175   0.92885   0.08512   0.00000  Uiso   1.00
O6     O     0.08112   0.09423   0.09954   0.00000  Uiso   1.00
C3     C     0.13421   0.01896   0.12310   0.00000  Uiso   1.00
O7     O     0.87610   0.07054   0.09105   0.00000  Uiso   1.00
O8     O     0.91708   0.90525   0.07691   0.00000  Uiso   1.00
C4     C     0.86310   0.97825   0.11168   0.00000  Uiso   1.00
Zn1    Zn    0.02405   0.89161   0.99104   0.00000  Uiso   1.00
Zn2    Zn    0.97890   0.10894   0.00860   0.00000  Uiso   1.00
C5     C     0.06470   0.29149   0.02131   0.00000  Uiso   1.00
N1     N     0.97522   0.24239   0.01458   0.00000  Uiso   1.00
C6     C     0.89023   0.29381   0.00364   0.00000  Uiso   1.00
C7     C     0.89390   0.39672   0.99804   0.00000  Uiso   1.00
C8     C     0.98592   0.44868   0.00295   0.00000  Uiso   1.00
C9     C     0.07146   0.39397   0.01584   0.00000  Uiso   1.00
C10    C     0.91572   0.61367   0.98116   0.00000  Uiso   1.00
C11    C     0.99631   0.55226   0.99524   0.00000  Uiso   1.00
C12    C     0.09123   0.59671   0.00224   0.00000  Uiso   1.00
C13    C     0.17391   0.53855   0.01575   0.00000  Uiso   1.00
N2     N     0.16277   0.43919   0.02184   0.00000  Uiso   1.00
C14    C     0.93081   0.71521   0.97670   0.00000  Uiso   1.00
N3     N     0.02351   0.75757   0.98488   0.00000  Uiso   1.00
C15    C     0.10380   0.69960   0.99718   0.00000  Uiso   1.00
H1     H     0.81868   0.25429   0.99710   0.00000  Uiso   1.00
H2     H     0.17777   0.73392   0.00539   0.00000  Uiso   1.00
H3     H     0.24829   0.57253   0.02132   0.00000  Uiso   1.00
H4     H     0.82301   0.43262   0.98868   0.00000  Uiso   1.00
H5     H     0.83917   0.58660   0.97458   0.00000  Uiso   1.00
H6     H     0.13343   0.25033   0.02860   0.00000  Uiso   1.00
H7     H     0.86538   0.76099   0.96907   0.00000  Uiso   1.00
C16    C     0.31830   0.03344   0.71357   0.00000  Uiso   1.00
C17    C     0.25650   0.07336   0.65881   0.00000  Uiso   1.00
C18    C     0.30758   0.07231   0.58580   0.00000  Uiso   1.00
N4     N     0.40148   0.03617   0.59519   0.00000  Uiso   1.00
C19    C     0.40872   0.01358   0.67405   0.00000  Uiso   1.00
C20    C     0.26599   0.09620   0.51551   0.00000  Uiso   1.00
C21    C     0.30948   0.07461   0.43345   0.00000  Uiso   1.00
C22    C     0.25404   0.06321   0.36193   0.00000  Uiso   1.00
C23    C     0.31910   0.03872   0.29944   0.00000  Uiso   1.00
C24    C     0.41482   0.03711   0.33443   0.00000  Uiso   1.00
N5     N     0.40781   0.06042   0.41604   0.00000  Uiso   1.00
C25    C     0.51062   0.01930   0.29037   0.00000  Uiso   1.00
C26    C     0.59440   0.98726   0.32558   0.00000  Uiso   1.00
C27    C     0.68479   0.96723   0.28606   0.00000  Uiso   1.00
C28    C     0.74647   0.92709   0.34078   0.00000  Uiso   1.00
C29    C     0.69538   0.92818   0.41377   0.00000  Uiso   1.00
N6     N     0.60157   0.96456   0.40441   0.00000  Uiso   1.00
C30    C     0.73691   0.90418   0.48403   0.00000  Uiso   1.00
C31    C     0.69354   0.92605   0.56609   0.00000  Uiso   1.00
C32    C     0.74908   0.93761   0.63753   0.00000  Uiso   1.00
C33    C     0.68414   0.96232   0.70005   0.00000  Uiso   1.00
C34    C     0.58835   0.96390   0.66515   0.00000  Uiso   1.00
N7     N     0.59525   0.94036   0.58355   0.00000  Uiso   1.00
C35    C     0.49259   0.98173   0.70927   0.00000  Uiso   1.00
H8     H     0.18921   0.12233   0.51721   0.00000  Uiso   1.00
H9     H     0.51108   0.02821   0.22545   0.00000  Uiso   1.00
H10    H     0.81362   0.87784   0.48231   0.00000  Uiso   1.00
H11    H     0.49220   0.97291   0.77420   0.00000  Uiso   1.00
H12    H     0.46692   0.07287   0.45742   0.00000  Uiso   1.00
H13    H     0.53608   0.92780   0.54224   0.00000  Uiso   1.00
C36    C     0.85056   0.92682   0.65051   0.00000  Uiso   1.00
C37    C     0.88590   0.94092   0.72970   0.00000  Uiso   1.00
C38    C     0.82212   0.96947   0.79447   0.00000  Uiso   1.00
C39    C     0.71889   0.98080   0.78001   0.00000  Uiso   1.00
C40    C     0.28471   0.01407   0.79039   0.00000  Uiso   1.00
C41    C     0.18672   0.04142   0.81063   0.00000  Uiso   1.00
C42    C     0.12693   0.08876   0.75609   0.00000  Uiso   1.00
C43    C     0.16035   0.10314   0.67873   0.00000  Uiso   1.00
C44    C     0.15257   0.07389   0.34886   0.00000  Uiso   1.00
C45    C     0.11736   0.05988   0.26961   0.00000  Uiso   1.00
C46    C     0.18128   0.03158   0.20487   0.00000  Uiso   1.00
C47    C     0.28449   0.02038   0.21943   0.00000  Uiso   1.00
C48    C     0.71844   0.98665   0.20928   0.00000  Uiso   1.00
C49    C     0.81639   0.95915   0.18904   0.00000  Uiso   1.00
C50    C     0.87607   0.91162   0.24352   0.00000  Uiso   1.00
C51    C     0.84258   0.89716   0.32085   0.00000  Uiso   1.00
H14    H     0.90213   0.90629   0.60123   0.00000  Uiso   1.00
H15    H     0.66781   0.00122   0.82975   0.00000  Uiso   1.00
H16    H     0.33151   0.97799   0.83303   0.00000  Uiso   1.00
H17    H     0.05075   0.11027   0.77256   0.00000  Uiso   1.00
H18    H     0.11083   0.13626   0.63639   0.00000  Uiso   1.00
H19    H     0.10089   0.09422   0.39811   0.00000  Uiso   1.00
H20    H     0.33567   0.00009   0.16973   0.00000  Uiso   1.00
H21    H     0.67175   0.02290   0.16668   0.00000  Uiso   1.00
H22    H     0.95223   0.89002   0.22705   0.00000  Uiso   1.00
H23    H     0.89202   0.86389   0.36317   0.00000  Uiso   1.00
H24    H     0.96533   0.93091   0.74117   0.00000  Uiso   1.00
H25    H     0.03792   0.06973   0.25806   0.00000  Uiso   1.00
