# Generated by REPEAT Assigner based on pymatgen
data_DB0-m3_o11_o11_f0_nbo.sym.40
_audit_creation_date              2022-05-24
_audit_creation_method            REPEAT_Assigner
_cell_length_a                    19.028990
_cell_length_b                    19.056873
_cell_length_c                    19.104367
_cell_angle_alpha                 109.452389
_cell_angle_beta                  109.393293
_cell_angle_gamma                 109.437583
_cell_volume                      5341.644631
_symmetry_space_group_name_H-M    P1
_symmetry_Int_Tables_number       1
loop_
    _symmetry_equiv_pos_site_id
    _symmetry_equiv_pos_as_xyz
    1  x,y,z
loop_
    _atom_site_type_symbol
    _atom_site_label
    _atom_site_fract_x
    _atom_site_fract_y
    _atom_site_fract_z
    _atom_type_partial_charge
    O   O1   0.419536  0.821425  0.923327  -0.535383
    O   O2   0.575866  0.108115  0.005786  -0.604195
    O   O3   0.421344  0.926804  0.028852  -0.614473
    O   O4   0.573939  0.002736  0.900171  -0.546982
    C   C1   0.396077  0.846000  0.980180  0.487887
    C   C2   0.599332  0.083531  0.948897  0.481418
    O   O5   0.596474  0.917979  0.994763  -0.664777
    O   O6   0.398945  0.011640  0.934365  -0.610787
    O   O7   0.603034  0.025959  0.102274  -0.629063
    O   O8   0.392175  0.903567  0.826719  -0.677928
    C   C3   0.632722  0.975786  0.075445  0.698424
    C   C4   0.362668  0.953955  0.853714  0.683336
    Zn  Zn1  0.494469  0.895666  0.893337  1.267526
    Zn  Zn2  0.500840  0.033899  0.035731  1.234452
    C   C5   0.828176  0.045675  0.282109  -0.140309
    C   C6   0.171908  0.977709  0.739927  -0.098214
    C   C7   0.809131  0.986544  0.306602  0.020975
    C   C8   0.192005  0.022612  0.701419  0.052303
    H   H1   0.893968  0.097004  0.314988  0.151502
    H   H2   0.105550  0.942822  0.723404  0.137693
    C   C9   0.764899  0.050011  0.216012  -0.041558
    C   C10  0.235108  0.972852  0.805435  -0.053473
    C   C11  0.705950  0.979839  0.139001  -0.121589
    C   C12  0.289954  0.949734  0.789366  -0.099558
    H   H3   0.708699  0.921080  0.124229  0.119429
    H   H4   0.283516  0.930910  0.726432  0.109484
    C   C13  0.264493  0.746374  0.069250  -0.038738
    C   C14  0.736432  0.304005  0.983529  -0.022206
    C   C15  0.183433  0.691506  0.004318  -0.112404
    C   C16  0.815606  0.315558  0.003489  -0.105161
    H   H5   0.164930  0.694539  0.945744  0.115068
    H   H6   0.832526  0.272141  0.020158  0.111606
    C   C17  0.326560  0.804937  0.057169  -0.116733
    C   C18  0.673638  0.230609  0.980315  -0.136323
    C   C19  0.339714  0.780145  0.990328  0.050636
    C   C20  0.656060  0.149226  0.938809  0.067604
    H   H7   0.362566  0.872095  0.105871  0.148491
    H   H8   0.640883  0.245263  0.015010  0.154911
    O   O9   0.032872  0.140499  0.584297  -0.664620
    O   O10  0.968420  0.866678  0.421602  -0.659403
    O   O11  0.936611  0.029725  0.585943  -0.666297
    O   O12  0.064983  0.977527  0.420218  -0.656586
    C   C21  0.979179  0.111120  0.609732  0.676174
    C   C22  0.022247  0.896142  0.396348  0.666783
    O   O13  0.958696  0.048733  0.405122  -0.612958
    O   O14  0.042737  0.958337  0.600804  -0.598080
    O   O15  0.858999  0.940295  0.406010  -0.553546
    O   O16  0.142406  0.067082  0.600172  -0.553282
    C   C23  0.879144  0.991064  0.374846  0.526838
    C   C24  0.122291  0.015891  0.630916  0.507471
    Zn  Zn3  0.066221  0.076855  0.504801  1.267681
    Zn  Zn4  0.935213  0.930352  0.501218  1.263531
    O   O17  0.047907  0.588877  0.144607  -0.648179
    O   O18  0.951351  0.417126  0.862210  -0.670978
    O   O19  0.946664  0.594473  0.041922  -0.649342
    O   O20  0.052398  0.411488  0.964764  -0.657229
    C   C25  0.996914  0.619165  0.121882  0.642703
    C   C26  0.002291  0.386779  0.884826  0.642140
    O   O21  0.140816  0.592508  0.053650  -0.624075
    O   O22  0.858448  0.413022  0.952699  -0.630103
    O   O23  0.036916  0.597407  0.953275  -0.668598
    O   O24  0.962308  0.408115  0.053113  -0.661052
    C   C27  0.117474  0.625014  0.005337  0.702146
    C   C28  0.881796  0.383057  0.003675  0.685700
    Zn  Zn5  0.068118  0.501853  0.071054  1.268812
    Zn  Zn6  0.931021  0.504119  0.935673  1.276494
    C   C29  0.965219  0.304113  0.736828  -0.173937
    C   C30  0.035858  0.702989  0.270154  -0.114755
    C   C31  0.004075  0.322376  0.818096  -0.065987
    C   C32  0.995501  0.683721  0.188698  -0.085854
    H   H9   0.934428  0.339369  0.720384  0.180550
    H   H10  0.067377  0.668315  0.286731  0.160319
    H   H11  0.041101  0.292872  0.837053  0.102231
    H   H12  0.957939  0.712793  0.169803  0.109799
    C   C33  0.968283  0.241899  0.668726  -0.020270
    C   C34  0.033843  0.765958  0.338494  -0.095246
    C   C35  0.968229  0.171933  0.670337  -0.126659
    C   C36  0.033162  0.835298  0.335927  -0.073892
    H   H13  0.958488  0.157666  0.717811  0.130104
    H   H14  0.041813  0.848737  0.287654  0.106788
    C   C37  0.961771  0.255644  0.595825  0.658826
    O   O25  0.986985  0.328225  0.606765  -0.507907
    O   O26  0.919625  0.186647  0.513250  -0.534435
    H   H15  0.918915  0.208206  0.471401  0.408579
    C   C38  0.042254  0.753818  0.412577  0.705466
    O   O27  0.018161  0.681785  0.402998  -0.522573
    O   O28  0.084952  0.823805  0.494669  -0.521043
    H   H16  0.087253  0.803455  0.537590  0.364248
    C   C39  0.719644  0.922892  0.274395  0.638574
    O   O29  0.702312  0.851943  0.266031  -0.509991
    O   O30  0.655227  0.944518  0.257738  -0.550833
    H   H17  0.598576  0.893990  0.237566  0.398366
    C   C40  0.282092  0.081534  0.730122  0.581866
    O   O31  0.301639  0.093839  0.678919  -0.493164
    O   O32  0.344751  0.126410  0.816158  -0.540067
    H   H18  0.402140  0.164255  0.824376  0.400387
    C   C41  0.779058  0.136506  0.234108  0.681756
    O   O33  0.814773  0.193277  0.308144  -0.519966
    O   O34  0.760877  0.156696  0.168947  -0.531674
    H   H19  0.777657  0.219421  0.193501  0.379618
    C   C42  0.224826  0.980093  0.880222  0.664761
    O   O35  0.191089  0.020546  0.902914  -0.505495
    O   O36  0.244277  0.934046  0.919444  -0.527550
    H   H20  0.230060  0.944247  0.967191  0.374340
    C   C43  0.291391  0.762485  0.157392  0.666377
    O   O37  0.367405  0.794269  0.207441  -0.502653
    O   O38  0.233160  0.751328  0.187147  -0.563949
    H   H21  0.263639  0.768819  0.249774  0.395649
    C   C44  0.713349  0.369870  0.980471  0.645649
    O   O39  0.637933  0.348457  0.940161  -0.499319
    O   O40  0.774719  0.456791  0.030794  -0.538700
    H   H22  0.746691  0.492487  0.023241  0.394230
    C   C45  0.303789  0.688692  0.929600  0.587534
    O   O41  0.286371  0.665573  0.855435  -0.483119
    O   O42  0.293015  0.628727  0.957067  -0.548332
    H   H23  0.268865  0.569874  0.907659  0.401234
    C   C46  0.687426  0.122463  0.879111  0.588472
    O   O43  0.701729  0.063089  0.869196  -0.490524
    O   O44  0.697367  0.162048  0.830871  -0.548822
    H   H24  0.718189  0.135178  0.792905  0.395955
