# Generated by REPEAT Assigner based on pymatgen
data_DB0-m3_o8_o19_f0_pcu.sym.5_sqe
_audit_creation_date              2022-05-24
_audit_creation_method            REPEAT_Assigner
_cell_length_a                    11.909869
_cell_length_b                    15.990407
_cell_length_c                    17.129786
_cell_angle_alpha                 89.116764
_cell_angle_beta                  89.991653
_cell_angle_gamma                 92.720150
_cell_volume                      3258.194988
_symmetry_space_group_name_H-M    P1
_symmetry_Int_Tables_number       1
loop_
    _symmetry_equiv_pos_site_id
    _symmetry_equiv_pos_as_xyz
    1  x,y,z
loop_
    _atom_site_type_symbol
    _atom_site_label
    _atom_site_fract_x
    _atom_site_fract_y
    _atom_site_fract_z
    _atom_type_partial_charge
    O   O1   0.495556  0.426054  0.614227  -0.659678
    O   O2   0.504444  0.573946  0.385773  -0.659678
    O   O3   0.503181  0.570369  0.618409  -0.668824
    O   O4   0.496819  0.429631  0.381591  -0.668821
    C   C1   0.499002  0.496243  0.652893  0.743053
    C   C2   0.500998  0.503757  0.347107  0.743051
    O   O5   0.664493  0.433308  0.497436  -0.662235
    O   O6   0.335507  0.566692  0.502564  -0.662233
    O   O7   0.670459  0.577717  0.502765  -0.699606
    O   O8   0.329541  0.422283  0.497235  -0.699606
    C   C3   0.719652  0.506010  0.500022  0.940960
    C   C4   0.280348  0.493990  0.499978  0.940958
    Zn  Zn1  0.496991  0.404719  0.497995  1.046429
    Zn  Zn2  0.503009  0.595281  0.502005  1.046424
    C   C5   0.840118  0.505884  0.500070  -0.311588
    C   C6   0.159882  0.494116  0.499930  -0.311586
    C   C7   0.940988  0.502596  0.500036  0.073566
    C   C8   0.059012  0.497404  0.499964  0.073566
    C   C9   0.498485  0.490379  0.738492  -0.145792
    C   C10  0.501515  0.509621  0.261508  -0.145795
    C   C11  0.503069  0.561520  0.783438  -0.093635
    C   C12  0.496931  0.438479  0.216562  -0.093640
    C   C13  0.502851  0.555023  0.863983  -0.140308
    C   C14  0.497149  0.444977  0.136017  -0.140300
    C   C15  0.497973  0.476613  0.900299  0.466306
    C   C16  0.502027  0.523387  0.099701  0.466303
    C   C17  0.493301  0.406026  0.855186  -0.348638
    C   C18  0.506699  0.593974  0.144814  -0.348641
    C   C19  0.493553  0.412555  0.774990  0.017394
    C   C20  0.506447  0.587445  0.225010  0.017398
    N   N1   0.497641  0.466203  0.982500  -0.242153
    N   N2   0.502359  0.533796  0.017500  -0.242151
    H   H1   0.493006  0.376960  0.243711  0.125698
    H   H2   0.506994  0.623040  0.756289  0.125695
    H   H3   0.493394  0.387431  0.103627  0.063392
    H   H4   0.506606  0.612569  0.896373  0.063394
    H   H5   0.489463  0.344840  0.883053  0.132475
    H   H6   0.510537  0.655160  0.116947  0.132476
    H   H7   0.489830  0.355674  0.741679  0.112628
    H   H8   0.510170  0.644326  0.258321  0.112628
    N   N3   0.503633  0.720548  0.501947  -0.192167
    N   N4   0.496367  0.279452  0.498053  -0.192171
    C   C21  0.438414  0.769231  0.456760  0.280547
    C   C22  0.561586  0.230769  0.543240  0.280549
    C   C23  0.446337  0.855263  0.462389  -0.215303
    C   C24  0.553663  0.144737  0.537611  -0.215303
    C   C25  0.520963  0.892966  0.514195  0.441458
    C   C26  0.479037  0.107034  0.485805  0.441462
    C   C27  0.586363  0.842827  0.559437  -0.363623
    C   C28  0.413637  0.157173  0.440563  -0.363627
    C   C29  0.576718  0.756942  0.552667  0.084787
    C   C30  0.423282  0.243058  0.447333  0.084790
    N   N5   0.531960  0.980978  0.522040  -0.186630
    N   N6   0.468040  0.019022  0.477960  -0.186632
    H   H9   0.607659  0.109278  0.574981  0.071616
    H   H10  0.392340  0.890722  0.425019  0.071617
    H   H11  0.645425  0.870787  0.600462  0.151951
    H   H12  0.354574  0.129213  0.399538  0.151950
    H   H13  0.628691  0.718537  0.588777  0.156752
    H   H14  0.371309  0.281463  0.411223  0.156751
    C   C31  0.644478  0.265791  0.600731  -0.309928
    H   H15  0.646240  0.334258  0.602661  0.114617
    H   H16  0.622650  0.240499  0.659738  0.108788
    H   H17  0.729601  0.246312  0.584972  0.107694
    C   C32  0.355521  0.734209  0.399269  -0.309935
    H   H18  0.353759  0.665742  0.397339  0.114618
    H   H19  0.270399  0.753688  0.415028  0.107697
    H   H20  0.377350  0.759501  0.340262  0.108789
