# Generated by REPEAT Assigner based on pymatgen
data_DB0-m9_o18_o20_f0_sra.sym.83_sqe
_audit_creation_date              2022-05-24
_audit_creation_method            REPEAT_Assigner
_cell_length_a                    6.316116
_cell_length_b                    17.175023
_cell_length_c                    22.410169
_cell_angle_alpha                 90.327995
_cell_angle_beta                  90.769425
_cell_angle_gamma                 89.009562
_cell_volume                      2430.423519
_symmetry_space_group_name_H-M    P1
_symmetry_Int_Tables_number       1
loop_
    _symmetry_equiv_pos_site_id
    _symmetry_equiv_pos_as_xyz
    1  x,y,z
loop_
    _atom_site_type_symbol
    _atom_site_label
    _atom_site_fract_x
    _atom_site_fract_y
    _atom_site_fract_z
    _atom_type_partial_charge
    O  O1   0.596571  0.774311  0.826243  -0.497328
    O  O2   0.440050  0.231459  0.179289  -0.471996
    O  O3   0.400638  0.684231  0.811361  -0.238639
    O  O4   0.636339  0.321665  0.194062  -0.325571
    O  O5   0.180615  0.659596  0.706207  -0.545376
    O  O6   0.855200  0.345418  0.299606  -0.496877
    C  C1   0.509451  0.627370  0.785508  0.640653
    C  C2   0.510188  0.377402  0.215245  0.531508
    O  O7   0.297027  0.844235  0.804503  -0.539955
    O  O8   0.739777  0.161361  0.200574  -0.566014
    O  O9   0.084439  0.819479  0.699809  -0.234690
    O  O10  0.951549  0.185859  0.305610  -0.241460
    C  C3   0.474339  0.836361  0.834602  0.831691
    C  C4   0.562312  0.169472  0.170568  0.837606
    O  O11  0.678341  0.642070  0.754224  -0.556342
    O  O12  0.358480  0.362881  0.252593  -0.510286
    O  O13  0.485866  0.768715  0.708695  -0.567165
    O  O14  0.550710  0.235858  0.296792  -0.600916
    V  V1   0.214766  0.749716  0.759917  0.932036
    V  V2   0.821361  0.255658  0.245539  1.065206
    O  O15  0.799165  0.865158  0.747853  -0.547995
    O  O16  0.236131  0.139872  0.257648  -0.575192
    C  C5   0.970340  0.877955  0.718868  0.638818
    C  C6   0.062880  0.127196  0.285781  0.608410
    O  O17  0.888234  0.732990  0.674886  -0.506492
    O  O18  0.148434  0.271741  0.330804  -0.479253
    C  C7   0.009835  0.668407  0.671744  0.845744
    C  C8   0.026112  0.336270  0.334085  0.735667
    V  V3   0.714194  0.755088  0.746158  1.378336
    V  V4   0.322461  0.249811  0.259491  1.436970
    O  O19  0.991982  0.733341  0.796839  -0.504548
    O  O20  0.044680  0.272214  0.208908  -0.535409
    C  C9   0.002808  0.619823  0.618039  -0.343603
    C  C10  0.033327  0.384703  0.387863  -0.284568
    C  C11  0.005455  0.576748  0.574531  0.155288
    C  C12  0.030770  0.427703  0.431413  0.115907
    C  C13  0.013923  0.524541  0.524234  -0.058187
    C  C14  0.022357  0.479868  0.481735  -0.026107
    C  C15  0.964953  0.946103  0.682130  -0.278022
    C  C16  0.063530  0.058278  0.321641  -0.253163
    C  C17  0.824043  0.070115  0.656411  -0.416703
    C  C18  0.199832  0.933391  0.346838  -0.420703
    C  C19  0.856789  0.012873  0.698497  0.409893
    C  C20  0.168641  0.990980  0.305181  0.389006
    C  C21  0.039500  0.935762  0.625857  -0.135552
    C  C22  0.987511  0.068166  0.377776  -0.161641
    C  C23  0.992208  0.989359  0.582342  0.035563
    C  C24  0.031097  0.013710  0.420973  0.053920
    C  C25  0.885384  0.056973  0.598329  0.250823
    C  C26  0.137347  0.945981  0.404901  0.245234
    C  C27  0.040709  0.974445  0.523097  0.070501
    C  C28  0.981199  0.028282  0.480144  0.051234
    C  C29  0.876245  0.096564  0.497154  -0.195136
    C  C30  0.144219  0.905891  0.505995  -0.203811
    C  C31  0.830914  0.110789  0.555870  -0.229272
    C  C32  0.190007  0.891771  0.447259  -0.233731
    H  H1   0.746210  0.163494  0.568373  0.128520
    H  H2   0.273759  0.838885  0.434698  0.135136
    H  H3   0.914788  0.123699  0.386893  0.114999
    H  H4   0.115622  0.880731  0.617067  0.099794
    H  H5   0.741255  0.123733  0.667147  0.173420
    H  H6   0.284527  0.880398  0.335050  0.166615
    H  H7   0.822535  0.140260  0.466245  0.164857
    H  H8   0.195387  0.861728  0.536841  0.168777
    C  C33  0.513767  0.554968  0.817156  -0.168930
    C  C34  0.462387  0.440239  0.175136  -0.122022
    C  C35  0.667965  0.431571  0.838909  -0.294027
    C  C36  0.249120  0.549180  0.147402  -0.318945
    C  C37  0.635555  0.492015  0.799629  0.009833
    C  C38  0.325298  0.499644  0.190828  -0.013669
    C  C39  0.419126  0.557092  0.871332  -0.122429
    C  C40  0.522395  0.429351  0.117444  -0.069427
    C  C41  0.461577  0.499834  0.912211  0.088228
    C  C42  0.434537  0.474673  0.073030  -0.011236
    C  C43  0.589145  0.437442  0.895938  0.251717
    C  C44  0.300884  0.535797  0.088632  0.318023
    C  C45  0.396870  0.509079  0.970537  -0.022004
    C  C46  0.476550  0.459093  0.013567  0.101721
    C  C47  0.596165  0.394271  0.996344  -0.205363
    C  C48  0.259626  0.569406  0.986632  -0.091619
    C  C49  0.648110  0.382925  0.937586  -0.249241
    C  C50  0.211788  0.582285  0.045379  -0.320376
    H  H9   0.745971  0.333468  0.924879  0.139885
    H  H10  0.103495  0.628970  0.057520  0.153908
    H  H11  0.627579  0.380993  0.108857  0.078455
    H  H12  0.338154  0.610465  0.882715  0.067940
    H  H13  0.273588  0.506000  0.236413  0.100028
    H  H14  0.712541  0.491583  0.756837  0.085885
    H  H15  0.768847  0.382677  0.826795  0.147996
    H  H16  0.140751  0.596137  0.158863  0.151863
    H  H17  0.651714  0.350665  0.027180  0.171759
    H  H18  0.180213  0.606250  0.954540  0.144169
    C  C51  0.499190  0.885116  0.887761  -0.330997
    C  C52  0.536786  0.120911  0.117325  -0.345006
    C  C53  0.509793  0.928323  0.931076  0.132656
    C  C54  0.525817  0.077774  0.073973  0.146640
    C  C55  0.515855  0.980664  0.981288  -0.040666
    C  C56  0.519543  0.025459  0.023746  -0.049396
    C  C57  0.252367  0.981248  0.243862  -0.377723
    C  C58  0.155253  0.910267  0.214810  0.506524
    C  C59  0.916849  0.920770  0.211819  -0.390970
    C  C60  0.240033  0.900373  0.152302  -0.412251
    H  H19  0.426962  0.973526  0.246127  0.078987
    H  H20  0.211076  0.033460  0.216993  0.111971
    H  H21  0.196573  0.857854  0.241493  -0.073860
    H  H22  0.875551  0.973241  0.185197  0.110456
    H  H23  0.854651  0.927940  0.257600  0.056253
    H  H24  0.845683  0.868834  0.190465  0.077094
    H  H25  0.198453  0.952752  0.125609  0.102881
    H  H26  0.169056  0.848341  0.131038  0.071896
    H  H27  0.414679  0.892783  0.154470  0.086865
    C  C61  0.776349  0.020974  0.760605  -0.476537
    C  C62  0.650212  0.096039  0.768957  0.597924
    C  C63  0.442003  0.091318  0.734769  -0.445529
    C  C64  0.604281  0.107014  0.834633  -0.398658
    H  H28  0.912908  0.020234  0.792236  0.100409
    H  H29  0.672934  0.971341  0.770558  0.131150
    H  H30  0.742907  0.146227  0.753759  -0.092645
    H  H31  0.341008  0.047441  0.755991  0.085721
    H  H32  0.469946  0.073601  0.687871  0.083957
    H  H33  0.359887  0.148895  0.735877  0.074552
    H  H34  0.511899  0.057149  0.850691  0.118931
    H  H35  0.511745  0.161790  0.841172  0.062320
    H  H36  0.755579  0.110127  0.860153  0.064501
