# Generated by REPEAT Assigner based on pymatgen
data_DB0-m3_o28_o84_f0_fsc
_audit_creation_date              2022-05-24
_audit_creation_method            REPEAT_Assigner
_cell_length_a                    6.650312
_cell_length_b                    13.782683
_cell_length_c                    22.145246
_cell_angle_alpha                 79.469548
_cell_angle_beta                  90.083448
_cell_angle_gamma                 100.318680
_cell_volume                      1962.325209
_symmetry_space_group_name_H-M    P1
_symmetry_Int_Tables_number       1
loop_
    _symmetry_equiv_pos_site_id
    _symmetry_equiv_pos_as_xyz
    1  x,y,z
loop_
    _atom_site_type_symbol
    _atom_site_label
    _atom_site_fract_x
    _atom_site_fract_y
    _atom_site_fract_z
    _atom_type_partial_charge
    O   O1   0.844073  0.100512  0.047142  -0.762866
    O   O2   0.155927  0.899488  0.952858  -0.762829
    O   O3   0.811995  0.108755  0.944270  -0.732964
    O   O4   0.188006  0.891245  0.055730  -0.732971
    C   C1   0.768052  0.137769  0.995109  0.865238
    C   C2   0.231948  0.862231  0.004891  0.865211
    O   O5   0.231203  0.117769  0.935512  -0.681362
    O   O6   0.768797  0.882231  0.064489  -0.681294
    O   O7   0.259149  0.101047  0.039057  -0.684080
    O   O8   0.740851  0.898953  0.960943  -0.684145
    C   C3   0.327697  0.144582  0.983364  0.819382
    C   C4   0.672304  0.855418  0.016636  0.819300
    Zn  Zn1  0.984980  0.007703  0.932920  1.116916
    Zn  Zn2  0.015020  0.992297  0.067080  1.116904
    C   C5   0.996017  0.905762  0.388068  0.496243
    C   C6   0.003983  0.094238  0.611932  0.496436
    N   N1   0.023912  0.991954  0.346208  -0.255031
    N   N2   0.976088  0.008046  0.653792  -0.255121
    C   C7   0.042219  0.081253  0.364613  0.506758
    C   C8   0.957781  0.918747  0.635387  0.506776
    C   C9   0.033316  0.085540  0.426293  -0.141277
    C   C10  0.966684  0.914460  0.573707  -0.141381
    C   C11  0.004951  0.998371  0.469174  0.106310
    C   C12  0.995049  0.001629  0.530826  0.106404
    C   C13  0.986245  0.907937  0.450062  -0.129099
    C   C14  0.013755  0.092063  0.549938  -0.129167
    C   C15  0.051160  0.176705  0.445144  -0.059633
    C   C16  0.948840  0.823295  0.554856  -0.059491
    C   C17  0.041503  0.179981  0.507032  -0.071563
    C   C18  0.958498  0.820019  0.492969  -0.071631
    O   O9   0.982454  0.822186  0.370641  -0.477617
    O   O10  0.017546  0.177813  0.629359  -0.477715
    O   O11  0.062424  0.161858  0.325124  -0.472558
    O   O12  0.937577  0.838142  0.674876  -0.472520
    H   H1   0.072918  0.245518  0.411494  0.124317
    H   H2   0.927082  0.754482  0.588506  0.124280
    H   H3   0.055805  0.251351  0.521842  0.128727
    H   H4   0.944195  0.748649  0.478158  0.128734
    C   C19  0.865262  0.930658  0.759211  -0.243053
    C   C20  0.134738  0.069342  0.240789  -0.243065
    H   H5   0.780393  0.865907  0.743656  0.175373
    H   H6   0.219607  0.134092  0.256344  0.175402
    C   C21  0.867015  0.933046  0.821196  -0.020550
    C   C22  0.132986  0.066954  0.178804  -0.020541
    H   H7   0.787905  0.869246  0.853555  0.137658
    H   H8   0.212095  0.130753  0.146445  0.137629
    N   N3   0.969560  0.013397  0.841776  -0.017132
    N   N4   0.030440  0.986603  0.158224  -0.017104
    C   C23  0.069410  0.093421  0.802138  -0.026852
    C   C24  0.930590  0.906579  0.197862  -0.026817
    H   H9   0.153339  0.156922  0.819327  0.133889
    H   H10  0.846661  0.843078  0.180674  0.133898
    C   C25  0.069985  0.093710  0.739738  -0.242011
    C   C26  0.930015  0.906290  0.260262  -0.242043
    H   H11  0.156445  0.157086  0.708799  0.181485
    H   H12  0.843555  0.842914  0.291201  0.181482
    C   C27  0.969088  0.011177  0.717877  0.345193
    C   C28  0.030912  0.988823  0.282123  0.345165
    C   C29  0.426834  0.327436  0.963939  -0.021440
    C   C30  0.573167  0.672564  0.036061  -0.021506
    H   H13  0.269420  0.332049  0.953767  0.090925
    H   H14  0.730580  0.667951  0.046233  0.090925
    C   C31  0.565275  0.413709  0.967237  -0.234271
    C   C32  0.434725  0.586291  0.032763  -0.234262
    H   H15  0.516788  0.485618  0.958071  0.129010
    H   H16  0.483212  0.514382  0.041929  0.129012
    C   C33  0.763301  0.408237  0.984085  0.239066
    C   C34  0.236700  0.591763  0.015915  0.239116
    C   C35  0.823539  0.316102  0.994900  -0.226482
    C   C36  0.176461  0.683898  0.005100  -0.226540
    H   H17  0.979539  0.309741  0.005270  0.184174
    H   H18  0.020462  0.690259  0.994730  0.184191
    C   C37  0.686743  0.230018  0.990499  -0.036129
    C   C38  0.313257  0.769982  0.009501  -0.036152
    C   C39  0.485980  0.234971  0.976067  -0.151027
    C   C40  0.514020  0.765029  0.023933  -0.150908
    C   C41  0.905948  0.500738  0.989395  -0.211255
    C   C42  0.094053  0.499262  0.010605  -0.211284
    H   H19  0.853266  0.571035  0.975783  0.117610
    H   H20  0.146734  0.428965  0.024217  0.117603
