# Generated by REPEAT Assigner based on pymatgen
data_DB0-m2_o8_o21_f0_pcu.sym.5_sqe
_audit_creation_date              2022-05-24
_audit_creation_method            REPEAT_Assigner
_cell_length_a                    13.935842
_cell_length_b                    15.587555
_cell_length_c                    16.916176
_cell_angle_alpha                 96.407775
_cell_angle_beta                  90.307913
_cell_angle_gamma                 82.557215
_cell_volume                      3620.751690
_symmetry_space_group_name_H-M    P1
_symmetry_Int_Tables_number       1
loop_
    _symmetry_equiv_pos_site_id
    _symmetry_equiv_pos_as_xyz
    1  x,y,z
loop_
    _atom_site_type_symbol
    _atom_site_label
    _atom_site_fract_x
    _atom_site_fract_y
    _atom_site_fract_z
    _atom_type_partial_charge
    O   O1   0.493220  0.591732  0.614340  -0.547091
    O   O2   0.506821  0.408213  0.385672  -0.547814
    O   O3   0.503030  0.443743  0.616770  -0.474752
    O   O4   0.497014  0.556217  0.383241  -0.476291
    C   C1   0.497907  0.522760  0.652869  0.835427
    C   C2   0.502160  0.477194  0.347140  0.837183
    O   O5   0.357890  0.589083  0.500842  -0.618894
    O   O6   0.642148  0.410865  0.499168  -0.619226
    O   O7   0.360934  0.440733  0.497557  -0.619174
    O   O8   0.639106  0.559222  0.502452  -0.620017
    C   C3   0.314343  0.519263  0.498901  0.898544
    C   C4   0.685695  0.480690  0.501096  0.899288
    Cu  Cu1  0.498473  0.585836  0.498375  0.723605
    Cu  Cu2  0.501566  0.414118  0.501639  0.720183
    C   C5   0.789457  0.471629  0.501231  -0.292801
    C   C6   0.210587  0.528318  0.498746  -0.293059
    C   C7   0.980040  0.463627  0.501186  -0.052276
    C   C8   0.020006  0.536317  0.498773  -0.052147
    C   C9   0.123610  0.532941  0.498724  0.011899
    C   C10  0.876436  0.467004  0.501240  0.011677
    H   H1   0.974555  0.597972  0.496844  0.145619
    H   H2   0.025496  0.401972  0.503116  0.145685
    C   C11  0.495593  0.532535  0.740096  -0.613679
    C   C12  0.504459  0.467422  0.259904  -0.613850
    C   C13  0.570769  0.490590  0.781301  0.443962
    C   C14  0.429280  0.509382  0.218712  0.443567
    C   C15  0.563407  0.489062  0.862570  -0.387750
    C   C16  0.436611  0.510912  0.137438  -0.387544
    C   C17  0.480446  0.528795  0.903260  0.506117
    C   C18  0.519548  0.471164  0.096728  0.506322
    C   C19  0.407409  0.572839  0.862544  -0.576496
    C   C20  0.592588  0.427102  0.137425  -0.577404
    C   C21  0.414052  0.574655  0.781309  0.517973
    C   C22  0.585977  0.425283  0.218664  0.518401
    N   N1   0.467331  0.524510  0.985608  -0.205640
    N   N2   0.532647  0.475450  0.014377  -0.204906
    H   H3   0.376807  0.544512  0.107488  0.095402
    H   H4   0.623205  0.455467  0.892531  0.095313
    H   H5   0.343158  0.603719  0.894915  0.165024
    H   H6   0.656818  0.396209  0.105032  0.165173
    N   N3   0.503347  0.285808  0.504943  -0.031541
    N   N4   0.496674  0.714151  0.495098  -0.033558
    C   C23  0.462013  0.247621  0.562547  0.243008
    C   C24  0.537902  0.752430  0.437514  0.245555
    C   C25  0.479700  0.157711  0.564371  -0.003624
    C   C26  0.520068  0.842344  0.435745  -0.004768
    C   C27  0.530539  0.106128  0.502100  0.101870
    C   C28  0.469190  0.893838  0.498049  0.101975
    C   C29  0.576023  0.146568  0.447354  0.175983
    C   C30  0.423780  0.853299  0.552767  0.177526
    C   C31  0.563597  0.236098  0.451098  -0.331315
    C   C32  0.436359  0.763763  0.548963  -0.332251
    N   N5   0.538865  0.013829  0.493858  -0.154460
    N   N6   0.460818  0.986140  0.506350  -0.155587
    H   H7   0.601621  0.266619  0.408945  0.246055
    H   H8   0.398356  0.733165  0.591067  0.246084
    C   C33  0.338950  0.552524  0.261164  -0.411347
    H   H9   0.309216  0.505959  0.296390  0.104438
    H   H10  0.354086  0.610735  0.300733  0.111622
    H   H11  0.283399  0.574003  0.217917  0.116219
    C   C34  0.661111  0.447445  0.738865  -0.410986
    H   H12  0.645980  0.389237  0.699291  0.111351
    H   H13  0.690862  0.494007  0.703644  0.104282
    H   H14  0.716647  0.425961  0.782120  0.116204
    C   C35  0.330394  0.617595  0.738521  -0.358900
    H   H15  0.270278  0.643112  0.780800  0.107756
    H   H16  0.352564  0.672950  0.710489  0.084625
    H   H17  0.303841  0.569948  0.692628  0.079353
    C   C36  0.669641  0.382307  0.261415  -0.357873
    H   H18  0.729703  0.356732  0.219098  0.107570
    H   H19  0.696278  0.429947  0.307268  0.079000
    H   H20  0.647449  0.326986  0.289486  0.084150
    C   C37  0.604163  0.700472  0.375081  -0.404881
    H   H21  0.667781  0.734470  0.366397  0.117491
    H   H22  0.634058  0.636826  0.392351  0.128976
    H   H23  0.565163  0.690577  0.318117  0.126159
    C   C38  0.395789  0.299680  0.624969  -0.403562
    H   H24  0.365973  0.363337  0.607696  0.128768
    H   H25  0.332102  0.265784  0.633673  0.117259
    H   H26  0.434794  0.309547  0.681932  0.125848
    C   C39  0.546772  0.880974  0.362701  -0.388937
    H   H27  0.500438  0.943285  0.357423  0.197653
    H   H28  0.624160  0.890971  0.364438  0.112845
    H   H29  0.532338  0.838662  0.308047  0.099205
    C   C40  0.452816  0.119173  0.637411  -0.388777
    H   H30  0.375390  0.109313  0.635606  0.112812
    H   H31  0.499004  0.056806  0.642748  0.197601
    H   H32  0.467273  0.161488  0.692059  0.099114
    C   C41  0.639168  0.094001  0.383983  -0.170662
    H   H33  0.676105  0.137086  0.349865  0.050809
    H   H34  0.694921  0.049250  0.411228  0.051459
    H   H35  0.594650  0.056333  0.342269  0.047851
    C   C42  0.360512  0.905743  0.616138  -0.171751
    H   H36  0.323786  0.862557  0.650309  0.051133
    H   H37  0.404876  0.943611  0.657822  0.047812
    H   H38  0.304575  0.950318  0.588886  0.051807
