# Generated by REPEAT Assigner based on pymatgen
data_DB0-m3_o14_o29_f0_nbo.sym.30_sqe
_audit_creation_date              2022-05-24
_audit_creation_method            REPEAT_Assigner
_cell_length_a                    21.805500
_cell_length_b                    21.804295
_cell_length_c                    55.264053
_cell_angle_alpha                 90.000000
_cell_angle_beta                  90.000000
_cell_angle_gamma                 90.000000
_cell_volume                      26275.490467
_symmetry_space_group_name_H-M    P1
_symmetry_Int_Tables_number       1
loop_
    _symmetry_equiv_pos_site_id
    _symmetry_equiv_pos_as_xyz
    1  x,y,z
loop_
    _atom_site_type_symbol
    _atom_site_label
    _atom_site_fract_x
    _atom_site_fract_y
    _atom_site_fract_z
    _atom_type_partial_charge
    O   O1    0.091026  0.989383  0.474757  -0.681445
    O   O2    0.010950  0.090961  0.475893  -0.696054
    O   O3    0.909099  0.008497  0.475804  -0.696875
    O   O4    0.991794  0.909036  0.474672  -0.681527
    O   O5    0.590909  0.491492  0.975807  -0.696773
    O   O6    0.508214  0.590952  0.974671  -0.681652
    O   O7    0.408982  0.510606  0.974754  -0.681421
    O   O8    0.489057  0.409028  0.975893  -0.696096
    O   O9    0.090765  0.991615  0.516501  -0.678803
    O   O10   0.008505  0.091250  0.517637  -0.664645
    O   O11   0.909116  0.011339  0.517542  -0.664577
    O   O12   0.988736  0.909602  0.516404  -0.678944
    O   O13   0.590884  0.488651  0.017545  -0.664412
    O   O14   0.511263  0.590387  0.016404  -0.679075
    O   O15   0.409235  0.508375  0.016498  -0.678664
    O   O16   0.491496  0.408740  0.017637  -0.664628
    C   C1    0.119297  0.986625  0.495687  0.704203
    C   C2    0.013656  0.119503  0.496781  0.703652
    C   C3    0.880698  0.013799  0.496645  0.700566
    C   C4    0.986288  0.880920  0.495550  0.704758
    C   C5    0.619306  0.486191  0.996649  0.700536
    C   C6    0.513716  0.619069  0.995550  0.704867
    C   C7    0.380707  0.513365  0.995683  0.703956
    C   C8    0.486348  0.380486  0.996781  0.703528
    C   C9    0.501187  0.999221  0.297483  0.102724
    C   C10   0.000758  0.499588  0.297484  0.100070
    C   C11   0.998740  0.500769  0.797484  0.102234
    C   C12   0.499343  0.000466  0.797483  0.104244
    Zn  Zn1   0.999989  0.000414  0.468749  1.295288
    Zn  Zn2   0.500020  0.499574  0.968749  1.295343
    Zn  Zn3   0.000008  0.000001  0.523560  1.271067
    Zn  Zn4   0.499991  0.499989  0.023560  1.270951
    N   N1    0.501097  0.999390  0.347273  -0.116039
    N   N2    0.000638  0.499573  0.347274  -0.105763
    N   N3    0.998843  0.500594  0.847273  -0.116951
    N   N4    0.499454  0.000467  0.847273  -0.108219
    C   C13   0.439684  0.908901  0.272718  -0.147999
    C   C14   0.091051  0.438060  0.272715  -0.149063
    C   C15   0.562736  0.089401  0.272656  -0.146889
    C   C16   0.910558  0.561112  0.272660  -0.148577
    C   C17   0.937185  0.410594  0.772657  -0.147298
    C   C18   0.589544  0.938947  0.772659  -0.150596
    C   C19   0.060238  0.591092  0.772718  -0.148231
    C   C20   0.409050  0.061999  0.772715  -0.148713
    C   C21   0.469407  0.954680  0.310213  -0.072349
    C   C22   0.045310  0.467823  0.310213  -0.066507
    C   C23   0.532940  0.043836  0.310183  -0.065144
    C   C24   0.956154  0.531354  0.310184  -0.065177
    C   C25   0.966989  0.456153  0.810184  -0.064758
    C   C26   0.543946  0.968699  0.810183  -0.068902
    C   C27   0.030523  0.545309  0.810213  -0.070818
    C   C28   0.454790  0.032229  0.810213  -0.069237
    H   H1    0.949946  0.194019  0.469274  0.148018
    H   H2    0.806052  0.947519  0.470149  0.147063
    H   H3    0.052528  0.805714  0.469271  0.148631
    H   H4    0.194378  0.050463  0.468448  0.148796
    H   H5    0.447485  0.694273  0.969268  0.148723
    H   H6    0.305626  0.449526  0.968444  0.148877
    H   H7    0.550066  0.305969  0.969277  0.148058
    H   H8    0.693952  0.552472  0.970154  0.147023
    C   C29   0.099417  0.187668  0.526743  -0.269934
    C   C30   0.812580  0.102448  0.525330  -0.262858
    C   C31   0.897290  0.813454  0.524283  -0.270570
    C   C32   0.186791  0.900395  0.525650  -0.272406
    C   C33   0.602707  0.686536  0.024286  -0.270058
    C   C34   0.313215  0.599602  0.025642  -0.272846
    C   C35   0.400581  0.312320  0.026741  -0.269677
    C   C36   0.687425  0.397549  0.025337  -0.263035
    H   H9    0.107363  0.139038  0.525088  0.167692
    H   H10   0.861130  0.110497  0.523425  0.168193
    H   H11   0.889317  0.861982  0.522226  0.169500
    H   H12   0.138192  0.892499  0.523828  0.168522
    H   H13   0.610680  0.638007  0.022230  0.169329
    H   H14   0.361814  0.607496  0.023821  0.168719
    H   H15   0.392635  0.360950  0.025086  0.167667
    H   H16   0.638875  0.389498  0.023432  0.168296
    C   C37   0.134633  0.219088  0.543235  -0.085536
    C   C38   0.781260  0.139050  0.541372  -0.089987
    C   C39   0.860544  0.782481  0.540379  -0.084522
    C   C40   0.217850  0.864973  0.542179  -0.084742
    C   C41   0.639449  0.717508  0.040383  -0.084643
    C   C42   0.282156  0.635027  0.042170  -0.084597
    C   C43   0.365362  0.280900  0.043231  -0.085746
    C   C44   0.718745  0.360949  0.041381  -0.090011
    H   H17   0.167361  0.194680  0.554326  0.107286
    H   H18   0.805686  0.172907  0.551916  0.106846
    H   H19   0.826647  0.807148  0.550814  0.105066
    H   H20   0.193197  0.832142  0.553137  0.106738
    H   H21   0.673344  0.692842  0.050820  0.105026
    H   H22   0.306810  0.667859  0.053128  0.106706
    H   H23   0.332631  0.305308  0.054321  0.107365
    H   H24   0.694320  0.327092  0.051925  0.106851
    C   C45   0.127556  0.281230  0.545887  -0.038128
    C   C46   0.719213  0.131902  0.544297  -0.034394
    C   C47   0.867599  0.720479  0.543494  -0.037803
    C   C48   0.279936  0.871981  0.545039  -0.039834
    C   C49   0.632393  0.779511  0.043498  -0.037780
    C   C50   0.220069  0.628022  0.045030  -0.039968
    C   C51   0.372438  0.218758  0.045884  -0.038240
    C   C52   0.780792  0.368100  0.044306  -0.034214
    H   H25   0.154143  0.305665  0.559286  0.087015
    H   H26   0.694874  0.159564  0.557380  0.086780
    H   H27   0.839823  0.696420  0.556620  0.087099
    H   H28   0.304080  0.845236  0.558471  0.087513
    H   H29   0.660166  0.803569  0.056625  0.087130
    H   H30   0.195926  0.654770  0.058461  0.087514
    H   H31   0.345848  0.194322  0.059281  0.087094
    H   H32   0.805131  0.340440  0.057390  0.086810
    C   C53   0.087292  0.312635  0.531291  -0.333637
    C   C54   0.687768  0.090203  0.530356  -0.333484
    C   C55   0.909355  0.688718  0.529692  -0.328152
    C   C56   0.311662  0.912376  0.530608  -0.331021
    C   C57   0.590642  0.811272  0.029694  -0.328371
    C   C58   0.188343  0.587626  0.030599  -0.330516
    C   C59   0.412706  0.187354  0.031289  -0.333629
    C   C60   0.812236  0.409799  0.030365  -0.334163
    H   H33   0.082826  0.361202  0.534429  0.183766
    H   H34   0.639301  0.085742  0.533713  0.182918
    H   H35   0.913736  0.640310  0.533197  0.182062
    H   H36   0.360161  0.916780  0.533909  0.184375
    H   H37   0.586260  0.859679  0.033199  0.182144
    H   H38   0.139843  0.583226  0.033900  0.184137
    H   H39   0.417173  0.138787  0.034427  0.183799
    H   H40   0.860703  0.414262  0.033722  0.183118
    C   C61   0.053261  0.281961  0.513785  0.234054
    C   C62   0.718297  0.054776  0.513244  0.227982
    C   C63   0.944927  0.718879  0.512524  0.220811
    C   C64   0.281372  0.946609  0.513058  0.226353
    C   C65   0.555075  0.781110  0.012525  0.221045
    C   C66   0.218632  0.553391  0.013050  0.225800
    C   C67   0.446741  0.218027  0.013784  0.234147
    C   C68   0.781707  0.445223  0.013252  0.228307
    C   C69   0.056737  0.218357  0.512518  0.144377
    C   C70   0.781880  0.058297  0.511821  0.141540
    C   C71   0.941486  0.782441  0.510910  0.154691
    C   C72   0.217796  0.943209  0.511593  0.152507
    C   C73   0.558515  0.717548  0.010911  0.154519
    C   C74   0.282208  0.556788  0.011586  0.152870
    C   C75   0.443265  0.281632  0.012517  0.144182
    C   C76   0.718124  0.441700  0.011828  0.141695
    C   C77   0.018426  0.186521  0.496719  -0.045211
    C   C78   0.813670  0.018542  0.496567  -0.047295
    C   C79   0.981378  0.813902  0.495608  -0.056497
    C   C80   0.186301  0.981734  0.495769  -0.049489
    C   C81   0.518627  0.686087  0.995608  -0.056474
    C   C82   0.313703  0.518259  0.995763  -0.049195
    C   C83   0.481579  0.313468  0.996719  -0.045057
    C   C84   0.686334  0.481451  0.996573  -0.047572
    C   C85   0.980065  0.218435  0.481459  -0.171885
    C   C86   0.781698  0.978747  0.481911  -0.163913
    C   C87   0.021199  0.781616  0.481072  -0.167361
    C   C88   0.218535  0.020195  0.480655  -0.173258
    C   C89   0.478811  0.718373  0.981070  -0.167594
    C   C90   0.281469  0.479798  0.980650  -0.173483
    C   C91   0.519944  0.281554  0.981461  -0.172030
    C   C92   0.718306  0.521247  0.981916  -0.163750
    H   H41   0.947446  0.305508  0.470074  0.161117
    H   H42   0.694628  0.945135  0.471025  0.162319
    H   H43   0.054788  0.694304  0.470477  0.160741
    H   H44   0.305855  0.052819  0.469573  0.161104
    H   H45   0.445226  0.805683  0.970472  0.160661
    H   H46   0.194148  0.447175  0.969568  0.161177
    H   H47   0.552568  0.194480  0.970078  0.161068
    H   H48   0.805375  0.554860  0.971031  0.162409
    C   C93   0.977884  0.281327  0.482208  -0.166961
    C   C94   0.718815  0.976636  0.482727  -0.175067
    C   C95   0.023240  0.718744  0.482077  -0.167472
    C   C96   0.281412  0.022292  0.481591  -0.165160
    C   C97   0.476771  0.781245  0.982074  -0.167160
    C   C98   0.218591  0.477704  0.981585  -0.165365
    C   C99   0.522127  0.218663  0.982210  -0.166755
    C   C100  0.781189  0.523361  0.982734  -0.175396
    C   C101  0.014246  0.313529  0.498133  -0.115098
    C   C102  0.686650  0.014382  0.498161  -0.107001
    C   C103  0.985397  0.686906  0.497580  -0.110959
    C   C104  0.313275  0.985752  0.497562  -0.111847
    C   C105  0.514609  0.813083  0.997578  -0.111261
    C   C106  0.186729  0.514246  0.997555  -0.111653
    C   C107  0.485761  0.186461  0.998134  -0.115309
    C   C108  0.813354  0.485618  0.998169  -0.106675
    C   C109  0.500678  0.999810  0.423249  0.077888
    C   C110  0.000225  0.499645  0.423251  0.078766
    C   C111  0.999292  0.500177  0.923250  0.078469
    C   C112  0.499830  0.000360  0.923250  0.078832
    H   H49   0.522621  0.904104  0.376185  0.145093
    H   H50   0.095944  0.521200  0.376163  0.145376
    H   H51   0.479318  0.094995  0.375980  0.145147
    H   H52   0.905071  0.477865  0.376004  0.144454
    H   H53   0.020627  0.404989  0.875981  0.145217
    H   H54   0.595008  0.022161  0.876012  0.144824
    H   H55   0.977326  0.595880  0.876186  0.144951
    H   H56   0.404135  0.978825  0.876154  0.145479
    C   C113  0.500990  0.999534  0.373109  0.136314
    C   C114  0.000522  0.499535  0.373110  0.130307
    C   C115  0.998956  0.500450  0.873109  0.137280
    C   C116  0.499559  0.000492  0.873109  0.131454
    C   C117  0.945745  0.511770  0.583543  -0.090865
    C   C118  0.488052  0.946688  0.583624  -0.087277
    C   C119  0.052984  0.489638  0.583669  -0.088764
    C   C120  0.510199  0.053930  0.583585  -0.088075
    C   C121  0.446971  0.010338  0.083665  -0.089233
    C   C122  0.989846  0.446086  0.083589  -0.088541
    C   C123  0.554209  0.988206  0.083546  -0.090672
    C   C124  0.011994  0.553327  0.083621  -0.087817
    C   C125  0.441471  0.907207  0.297551  -0.107934
    C   C126  0.092763  0.439866  0.297549  -0.111071
    C   C127  0.560917  0.091226  0.297488  -0.111441
    C   C128  0.908749  0.559310  0.297491  -0.112174
    C   C129  0.939007  0.408766  0.797489  -0.112247
    C   C130  0.591353  0.940747  0.797490  -0.109292
    C   C131  0.058455  0.592783  0.797552  -0.109210
    C   C132  0.407338  0.060190  0.797549  -0.110067
    C   C133  0.512076  0.946164  0.410695  -0.082348
    C   C134  0.053878  0.510918  0.410685  -0.082628
    C   C135  0.489454  0.053319  0.410580  -0.083850
    C   C136  0.946733  0.488276  0.410593  -0.082754
    C   C137  0.010508  0.446667  0.910581  -0.084490
    C   C138  0.553328  0.011733  0.910597  -0.082458
    C   C139  0.987888  0.553822  0.910696  -0.082651
    C   C140  0.446183  0.989091  0.910679  -0.082943
    C   C141  0.537204  0.038916  0.335232  0.370534
    C   C142  0.961101  0.535661  0.335230  0.366629
    C   C143  0.465048  0.959768  0.335254  0.376099
    C   C144  0.040251  0.463507  0.335258  0.369656
    C   C145  0.034889  0.540217  0.835253  0.375779
    C   C146  0.459845  0.036538  0.835258  0.371624
    C   C147  0.962732  0.461070  0.835234  0.370855
    C   C148  0.538995  0.964385  0.835229  0.368670
    C   C149  0.512568  0.946153  0.385759  -0.158787
    C   C150  0.053901  0.511199  0.385748  -0.157418
    C   C151  0.489273  0.053056  0.385645  -0.157640
    C   C152  0.947007  0.487884  0.385658  -0.156748
    C   C153  0.010678  0.446928  0.885645  -0.157602
    C   C154  0.553067  0.012136  0.885663  -0.157682
    C   C155  0.987383  0.553832  0.885760  -0.158793
    C   C156  0.446174  0.988822  0.885742  -0.157483
    H   H57   0.521418  0.903816  0.420152  0.104832
    H   H58   0.096213  0.520370  0.420133  0.104529
    H   H59   0.479974  0.095770  0.419944  0.105004
    H   H60   0.904277  0.478890  0.419965  0.104555
    H   H61   0.019992  0.404217  0.919944  0.105116
    H   H62   0.595780  0.021117  0.919974  0.104574
    H   H63   0.978550  0.596171  0.920153  0.104902
    H   H64   0.403843  0.979636  0.920123  0.104620
    H   H65   0.420490  0.869307  0.263965  0.123121
    H   H66   0.130633  0.418848  0.263960  0.123512
    H   H67   0.581954  0.128945  0.263877  0.123427
    H   H68   0.871005  0.580312  0.263882  0.123733
    H   H69   0.917963  0.371051  0.763877  0.123380
    H   H70   0.629098  0.919749  0.763880  0.124139
    H   H71   0.079429  0.630687  0.763965  0.123277
    H   H72   0.369470  0.081212  0.763961  0.123317
    O   O17   0.946862  0.498206  0.533150  -0.692827
    O   O18   0.501804  0.947195  0.533264  -0.691050
    O   O19   0.052614  0.502746  0.533282  -0.692050
    O   O20   0.497323  0.052955  0.533164  -0.693295
    O   O21   0.447366  0.997237  0.033277  -0.691683
    O   O22   0.002694  0.447048  0.033166  -0.693270
    O   O23   0.553118  0.001777  0.033154  -0.692624
    O   O24   0.998214  0.552808  0.033263  -0.690970
    C   C157  0.999648  0.500555  0.544520  0.591378
    C   C158  0.499438  0.000135  0.544518  0.591500
    C   C159  0.500325  0.999426  0.044519  0.590554
    C   C160  0.000584  0.499870  0.044519  0.591455
    O   O25   0.955214  0.405340  0.496960  -0.713211
    O   O26   0.594759  0.955400  0.497219  -0.713892
    O   O27   0.044412  0.595021  0.496972  -0.714241
    O   O28   0.405139  0.044733  0.496707  -0.713377
    O   O29   0.455596  0.904968  0.996968  -0.714070
    O   O30   0.094864  0.455266  0.996704  -0.713377
    O   O31   0.544794  0.094649  0.996964  -0.713276
    O   O32   0.905245  0.544599  0.997223  -0.713831
    O   O33   0.060709  0.412941  0.497016  -0.680755
    O   O34   0.587229  0.060879  0.496814  -0.680303
    O   O35   0.938946  0.587427  0.496528  -0.680493
    O   O36   0.412680  0.939230  0.496722  -0.680551
    O   O37   0.561061  0.912562  0.996530  -0.680378
    O   O38   0.087323  0.560769  0.996714  -0.680524
    O   O39   0.439298  0.087049  0.997014  -0.680775
    O   O40   0.912775  0.439120  0.996822  -0.680232
    C   C161  0.010012  0.380589  0.497710  0.762085
    C   C162  0.619561  0.010197  0.497763  0.761063
    C   C163  0.989604  0.619807  0.497407  0.762976
    C   C164  0.380344  0.989944  0.497351  0.759801
    C   C165  0.510403  0.880182  0.997405  0.762906
    C   C166  0.119660  0.510055  0.997345  0.759952
    C   C167  0.489995  0.119400  0.997711  0.762329
    C   C168  0.880443  0.489802  0.997770  0.760825
    Zn  Zn5   0.930569  0.494931  0.497083  1.328755
    Zn  Zn6   0.505167  0.930770  0.497210  1.328532
    Zn  Zn7   0.069105  0.505444  0.497224  1.329423
    Zn  Zn8   0.494736  0.069321  0.497093  1.329377
    Zn  Zn9   0.430901  0.994545  0.997217  1.329292
    Zn  Zn10  0.005267  0.430678  0.997095  1.329354
    Zn  Zn11  0.569437  0.005058  0.997089  1.328691
    Zn  Zn12  0.994837  0.569228  0.997209  1.328441
    O   O41   0.579419  0.070800  0.347707  -0.437150
    O   O42   0.929240  0.577908  0.347697  -0.436149
    O   O43   0.422774  0.927978  0.347734  -0.438559
    O   O44   0.072067  0.421268  0.347746  -0.437823
    O   O45   0.077166  0.572005  0.847732  -0.438587
    O   O46   0.428027  0.078774  0.847747  -0.437978
    O   O47   0.920520  0.429185  0.847709  -0.437319
    O   O48   0.570855  0.922134  0.847694  -0.436282
    O   O49   0.947111  0.497045  0.461022  -0.685905
    O   O50   0.503157  0.947188  0.461137  -0.687565
    O   O51   0.052761  0.502741  0.461152  -0.687682
    O   O52   0.497515  0.052847  0.461034  -0.686520
    O   O53   0.447273  0.997254  0.961147  -0.687776
    O   O54   0.002475  0.447147  0.961036  -0.686442
    O   O55   0.552922  0.002950  0.961026  -0.685975
    O   O56   0.996833  0.552806  0.961136  -0.687494
    C   C169  0.999114  0.500833  0.621139  0.217190
    C   C170  0.499018  0.000413  0.621138  0.215499
    C   C171  0.500825  0.999145  0.121139  0.217904
    C   C172  0.001047  0.499614  0.121139  0.215132
    C   C173  0.000027  0.499802  0.449767  0.613471
    C   C174  0.500452  0.999955  0.449765  0.615192
    C   C175  0.500013  0.000195  0.949766  0.613508
    C   C176  0.999533  0.500037  0.949766  0.614833
    C   C177  0.945720  0.512282  0.608481  -0.178703
    C   C178  0.487532  0.946906  0.608560  -0.178262
    C   C179  0.052672  0.489292  0.608605  -0.178563
    C   C180  0.510536  0.053861  0.608524  -0.178825
    C   C181  0.447272  0.010685  0.108601  -0.178264
    C   C182  0.989523  0.446161  0.108528  -0.178020
    C   C183  0.554224  0.987694  0.108484  -0.179644
    C   C184  0.012527  0.553117  0.108557  -0.177429
    C   C185  0.999452  0.500669  0.571012  0.070359
    C   C186  0.499202  0.000264  0.571011  0.068336
    C   C187  0.500508  0.999309  0.071012  0.070948
    C   C188  0.000836  0.499748  0.071011  0.068579
    H   H73   0.903651  0.522203  0.618060  0.149455
    H   H74   0.477617  0.904925  0.618201  0.148701
    H   H75   0.094610  0.479423  0.618281  0.148981
    H   H76   0.520419  0.095890  0.618138  0.149285
    H   H77   0.405330  0.020555  0.118274  0.148788
    H   H78   0.979644  0.404136  0.118144  0.149124
    H   H79   0.596289  0.977775  0.118066  0.149714
    H   H80   0.022447  0.595100  0.118195  0.148565
    C   C189  0.035822  0.541619  0.734506  0.017564
    C   C190  0.458513  0.037554  0.734501  0.014691
    C   C191  0.961649  0.460203  0.734476  0.015338
    C   C192  0.539926  0.963379  0.734479  0.013115
    C   C193  0.538271  0.039791  0.234475  0.016085
    C   C194  0.960172  0.536676  0.234479  0.016344
    C   C195  0.464099  0.958374  0.234505  0.018492
    C   C196  0.041585  0.462501  0.234502  0.015758
    C   C197  0.998753  0.500925  0.722003  0.032954
    C   C198  0.499197  0.000466  0.722003  0.040318
    C   C199  0.501168  0.999069  0.222003  0.032864
    C   C200  0.000898  0.499587  0.222003  0.036988
    C   C201  0.075992  0.578423  0.721359  -0.189353
    C   C202  0.421705  0.077709  0.721349  -0.190066
    C   C203  0.921505  0.423440  0.721299  -0.191945
    C   C204  0.576681  0.923215  0.721308  -0.189406
    C   C205  0.578415  0.076554  0.221298  -0.191521
    C   C206  0.923416  0.576839  0.221309  -0.191144
    C   C207  0.423929  0.921570  0.221359  -0.189118
    C   C208  0.078391  0.422345  0.221349  -0.189797
    C   C209  0.076175  0.577536  0.696531  -0.009774
    C   C210  0.422566  0.077846  0.696519  -0.010680
    C   C211  0.921415  0.424358  0.696471  -0.007959
    C   C212  0.575736  0.923077  0.696481  -0.009681
    C   C213  0.578507  0.075635  0.196470  -0.008395
    C   C214  0.924355  0.576972  0.196482  -0.008078
    C   C215  0.423747  0.922456  0.196531  -0.010196
    C   C216  0.077524  0.422203  0.196520  -0.010184
    C   C217  0.037004  0.539419  0.684165  -0.135949
    C   C218  0.460659  0.038640  0.684158  -0.128244
    C   C219  0.960653  0.462469  0.684135  -0.133850
    C   C220  0.537604  0.962285  0.684140  -0.130656
    C   C221  0.539270  0.037522  0.184134  -0.133286
    C   C222  0.962483  0.537761  0.184141  -0.133092
    C   C223  0.462920  0.960571  0.184164  -0.135718
    C   C224  0.039428  0.461405  0.184158  -0.130327
    C   C225  0.998799  0.500941  0.696860  0.120850
    C   C226  0.499153  0.000464  0.696860  0.111531
    C   C227  0.501123  0.999051  0.196860  0.120197
    C   C228  0.000937  0.499585  0.196860  0.114711
    H   H81   0.903457  0.521121  0.574043  0.123267
    H   H82   0.478705  0.904300  0.574191  0.122235
    H   H83   0.095401  0.480205  0.574272  0.123154
    H   H84   0.519647  0.096250  0.574121  0.122746
    H   H85   0.404558  0.019772  0.074264  0.123254
    H   H86   0.980393  0.403763  0.074128  0.122799
    H   H87   0.596502  0.978856  0.074049  0.123273
    H   H88   0.021336  0.595713  0.074186  0.122304
    C   C229  0.036398  0.539252  0.659141  0.464741
    C   C230  0.460770  0.037953  0.659133  0.459352
    C   C231  0.961413  0.462608  0.659111  0.462252
    C   C232  0.537408  0.962962  0.659117  0.461103
    C   C233  0.538514  0.037380  0.159110  0.462140
    C   C234  0.962671  0.537077  0.159118  0.462436
    C   C235  0.463529  0.960735  0.159141  0.465297
    C   C236  0.039309  0.462086  0.159133  0.461119
    N   N5    0.998954  0.500914  0.646980  -0.179112
    N   N6    0.499064  0.000448  0.646979  -0.175795
    N   N7    0.500976  0.999071  0.146980  -0.179763
    N   N8    0.001011  0.499587  0.146980  -0.177552
    H   H89   0.109976  0.607361  0.729645  0.162450
    H   H90   0.392775  0.111707  0.729630  0.162857
    H   H91   0.887487  0.394497  0.729561  0.162777
    H   H92   0.605630  0.889210  0.729574  0.162885
    H   H93   0.612432  0.105498  0.229560  0.162598
    H   H94   0.894470  0.610847  0.229575  0.163175
    H   H95   0.389944  0.892633  0.229645  0.162368
    H   H96   0.107324  0.388349  0.229631  0.162681
    H   H97   0.108006  0.607008  0.687094  0.120984
    H   H98   0.393083  0.109657  0.687077  0.121048
    H   H99   0.889619  0.394898  0.687009  0.120762
    H   H100  0.605182  0.891259  0.687024  0.120161
    H   H101  0.610302  0.105095  0.187008  0.120827
    H   H102  0.894908  0.608789  0.187025  0.119898
    H   H103  0.391917  0.892984  0.187093  0.121061
    H   H104  0.107005  0.390390  0.187078  0.120941
    O   O57   0.072233  0.578570  0.646862  -0.507916
    O   O58   0.421430  0.073750  0.646848  -0.507363
    O   O59   0.925666  0.423266  0.646804  -0.507175
    O   O60   0.576720  0.927169  0.646816  -0.506731
    O   O61   0.574263  0.076720  0.146803  -0.507116
    O   O62   0.923355  0.572867  0.146817  -0.506828
    O   O63   0.427696  0.921415  0.146861  -0.508079
    O   O64   0.078645  0.426285  0.146848  -0.507611
    C   C237  0.534982  0.042494  0.259725  0.108059
    C   C238  0.957466  0.533368  0.259728  0.107817
    C   C239  0.467423  0.955760  0.259755  0.105269
    C   C240  0.044197  0.465808  0.259753  0.107683
    C   C241  0.032498  0.544234  0.759756  0.106872
    C   C242  0.455903  0.034249  0.759753  0.108599
    C   C243  0.964939  0.457500  0.759726  0.110069
    C   C244  0.542635  0.966689  0.759727  0.110846
    C   C245  0.501201  0.999156  0.272287  -0.026969
    C   C246  0.000808  0.499589  0.272288  -0.026435
    C   C247  0.998722  0.500836  0.772288  -0.028405
    C   C248  0.499293  0.000468  0.772287  -0.029819
    C   C249  0.419521  0.850584  0.309157  0.806217
    O   O65   0.373765  0.824992  0.301464  -0.574393
    O   O66   0.452922  0.823955  0.326810  -0.489589
    C   C250  0.434160  0.770386  0.337462  0.531250
    C   C251  0.479377  0.752839  0.357049  -0.420268
    H   H105  0.432216  0.733330  0.323730  -0.053607
    H   H106  0.388241  0.776905  0.345711  -0.023469
    H   H107  0.525519  0.746789  0.348958  0.099890
    H   H108  0.464608  0.709330  0.365650  0.087869
    H   H109  0.481109  0.789658  0.370876  0.132207
    C   C252  0.149391  0.417918  0.309149  0.807319
    O   O67   0.174957  0.372136  0.301465  -0.574043
    O   O68   0.176054  0.451348  0.326785  -0.490844
    C   C253  0.229629  0.432590  0.337432  0.535095
    C   C254  0.247217  0.477846  0.357000  -0.420543
    H   H110  0.266664  0.430605  0.323692  -0.055023
    H   H111  0.223107  0.386689  0.345697  -0.024605
    H   H112  0.253276  0.523970  0.348892  0.099712
    H   H113  0.290728  0.463078  0.365598  0.087904
    H   H114  0.210417  0.479625  0.370833  0.131857
    C   C255  0.582864  0.147911  0.309048  0.805122
    O   O69   0.628668  0.173418  0.301355  -0.573470
    O   O70   0.549411  0.174685  0.326650  -0.490769
    C   C256  0.568165  0.228317  0.337255  0.535212
    C   C257  0.522882  0.246032  0.356795  -0.419532
    H   H115  0.570187  0.265276  0.323484  -0.055004
    H   H116  0.614047  0.221828  0.345539  -0.024816
    H   H117  0.476775  0.252047  0.348669  0.099261
    H   H118  0.537641  0.289595  0.365356  0.087639
    H   H119  0.521076  0.209314  0.370663  0.132040
    C   C258  0.852072  0.581254  0.309056  0.807232
    O   O71   0.826537  0.627037  0.301356  -0.573967
    O   O72   0.825336  0.547822  0.326674  -0.490977
    C   C259  0.771713  0.566577  0.337284  0.536539
    C   C260  0.754044  0.521323  0.356842  -0.420097
    H   H120  0.734738  0.568556  0.323520  -0.055627
    H   H121  0.778195  0.612481  0.345553  -0.025325
    H   H122  0.748042  0.475193  0.348732  0.099360
    H   H123  0.710486  0.536080  0.365406  0.087686
    H   H124  0.790776  0.519564  0.370704  0.132223
    C   C261  0.917059  0.352081  0.809048  0.805909
    O   O73   0.871252  0.326578  0.801357  -0.573585
    O   O74   0.950514  0.325302  0.826649  -0.491147
    C   C262  0.931758  0.271669  0.837253  0.535883
    C   C263  0.977044  0.253949  0.856791  -0.419442
    H   H125  0.929730  0.234713  0.823481  -0.055141
    H   H126  0.885878  0.278162  0.845539  -0.025080
    H   H127  0.023149  0.247929  0.848664  0.099134
    H   H128  0.962283  0.210386  0.865352  0.087548
    H   H129  0.978857  0.290665  0.870659  0.132039
    C   C264  0.648030  0.918804  0.809055  0.805706
    O   O75   0.673570  0.873026  0.801353  -0.573711
    O   O76   0.674761  0.952234  0.826675  -0.490183
    C   C265  0.728385  0.933481  0.837285  0.534872
    C   C266  0.746049  0.978731  0.856844  -0.419379
    H   H130  0.765361  0.931509  0.823521  -0.055073
    H   H131  0.721907  0.887574  0.845552  -0.024877
    H   H132  0.752048  0.024863  0.848737  0.099204
    H   H133  0.789607  0.963975  0.865408  0.087584
    H   H134  0.709315  0.980484  0.870706  0.132032
    C   C267  0.080404  0.649407  0.809158  0.806750
    O   O77   0.126158  0.675003  0.801464  -0.574472
    O   O78   0.047007  0.676030  0.826812  -0.489777
    C   C268  0.065768  0.729599  0.837465  0.532211
    C   C269  0.020555  0.747141  0.857054  -0.420568
    H   H135  0.067707  0.766658  0.823734  -0.053945
    H   H136  0.111689  0.723082  0.845712  -0.023782
    H   H137  0.974410  0.753188  0.848965  0.099867
    H   H138  0.035322  0.790651  0.865655  0.087943
    H   H139  0.018829  0.710321  0.870881  0.132289
    C   C270  0.350710  0.082139  0.809149  0.806631
    O   O79   0.325149  0.127925  0.801466  -0.573927
    O   O80   0.324043  0.048706  0.826783  -0.490772
    C   C271  0.270468  0.067465  0.837430  0.534660
    C   C272  0.252876  0.022205  0.856996  -0.420454
    H   H140  0.233435  0.069457  0.823690  -0.054856
    H   H141  0.276994  0.113364  0.845698  -0.024370
    H   H142  0.246814  0.976083  0.848886  0.099815
    H   H143  0.209366  0.036974  0.865594  0.087890
    H   H144  0.289675  0.020420  0.870829  0.131774
