# Generated by REPEAT Assigner based on pymatgen
data_DB0-m3_o17_o20_f0_nbo.sym.49
_audit_creation_date              2022-05-24
_audit_creation_method            REPEAT_Assigner
_cell_length_a                    30.192055
_cell_length_b                    30.191984
_cell_length_c                    29.068737
_cell_angle_alpha                 90.000000
_cell_angle_beta                  90.000000
_cell_angle_gamma                 90.000000
_cell_volume                      26497.840357
_symmetry_space_group_name_H-M    P1
_symmetry_Int_Tables_number       1
loop_
    _symmetry_equiv_pos_site_id
    _symmetry_equiv_pos_as_xyz
    1  x,y,z
loop_
    _atom_site_type_symbol
    _atom_site_label
    _atom_site_fract_x
    _atom_site_fract_y
    _atom_site_fract_z
    _atom_type_partial_charge
    O   O1    0.537241  0.933858  0.999353  -0.575819
    O   O2    0.065908  0.537414  0.001232  -0.576718
    O   O3    0.463099  0.065899  0.001145  -0.582727
    O   O4    0.933924  0.463162  0.999644  -0.576392
    O   O5    0.539611  0.065902  0.998297  -0.566624
    O   O6    0.065967  0.460905  0.998521  -0.561060
    O   O7    0.460707  0.933853  0.000531  -0.560155
    O   O8    0.933859  0.539701  0.000675  -0.561910
    O   O9    0.039597  0.433755  0.499226  -0.559619
    O   O10   0.565889  0.037505  0.501228  -0.581522
    O   O11   0.961023  0.565988  0.501613  -0.564632
    O   O12   0.433995  0.963091  0.499270  -0.576644
    O   O13   0.037534  0.565808  0.498751  -0.580139
    O   O14   0.566041  0.961003  0.498126  -0.565464
    O   O15   0.963063  0.433941  0.500419  -0.576050
    O   O16   0.433837  0.039622  0.500701  -0.560756
    C   C1    0.498963  0.913185  0.999973  0.283473
    C   C2    0.086589  0.499163  0.999879  0.291881
    C   C3    0.501366  0.086546  0.999728  0.314528
    C   C4    0.913226  0.501425  0.000192  0.287547
    C   C5    0.001291  0.413178  0.499784  0.283622
    C   C6    0.586611  0.999283  0.499677  0.311615
    C   C7    0.999315  0.586543  0.500189  0.309398
    C   C8    0.413247  0.001325  0.500017  0.287300
    O   O17   0.537238  0.001237  0.068346  -0.668041
    O   O18   0.998838  0.539762  0.068630  -0.659416
    O   O19   0.460728  0.998802  0.068490  -0.659831
    O   O20   0.001334  0.463251  0.068579  -0.669374
    O   O21   0.539615  0.000304  0.931165  -0.663632
    O   O22   0.000332  0.460815  0.931401  -0.664243
    O   O23   0.463084  0.999231  0.931306  -0.671255
    O   O24   0.999206  0.537348  0.931447  -0.673444
    O   O25   0.037390  0.499068  0.568520  -0.671665
    O   O26   0.498825  0.039515  0.568624  -0.659820
    O   O27   0.960861  0.500323  0.568674  -0.663551
    O   O28   0.501414  0.963011  0.568221  -0.668556
    O   O29   0.039732  0.498773  0.431335  -0.659769
    O   O30   0.500403  0.961080  0.431034  -0.663219
    O   O31   0.963228  0.501390  0.431495  -0.667943
    O   O32   0.499177  0.037609  0.431432  -0.671044
    C   C9    0.499001  0.000141  0.089765  0.846802
    C   C10   0.000205  0.501511  0.089951  0.851752
    C   C11   0.501331  0.999745  0.909885  0.863886
    C   C12   0.999729  0.499078  0.910073  0.868135
    C   C13   0.999147  0.499649  0.589948  0.862364
    C   C14   0.500253  0.001179  0.589769  0.845776
    C   C15   0.001459  0.500228  0.410068  0.846430
    C   C16   0.499752  0.999430  0.409883  0.861816
    Zn  Zn1   0.550374  0.999684  0.999976  1.294990
    Zn  Zn2   0.000087  0.550507  0.999824  1.295585
    Zn  Zn3   0.449956  0.000090  0.999691  1.295184
    Zn  Zn4   0.999760  0.450083  0.000218  1.294736
    Zn  Zn5   0.050513  0.499964  0.500134  1.295076
    Zn  Zn6   0.500051  0.050515  0.499863  1.295580
    Zn  Zn7   0.950094  0.499800  0.499864  1.294478
    Zn  Zn8   0.499848  0.950095  0.499807  1.294828
    C   C17   0.499085  0.000215  0.139101  -0.154865
    C   C18   0.000439  0.501474  0.139287  -0.159818
    C   C19   0.501248  0.999851  0.860548  -0.168636
    C   C20   0.999641  0.499107  0.860736  -0.169827
    C   C21   0.999229  0.499543  0.639286  -0.164584
    C   C22   0.500480  0.000944  0.639104  -0.151530
    C   C23   0.001367  0.500514  0.360732  -0.154081
    C   C24   0.499648  0.999656  0.360547  -0.165068
    C   C25   0.499181  0.000209  0.180540  0.016156
    C   C26   0.000642  0.501377  0.180726  0.021204
    C   C27   0.501148  0.000004  0.819109  0.025936
    C   C28   0.999568  0.499163  0.819296  0.024919
    C   C29   0.999306  0.499451  0.680725  0.021050
    C   C30   0.500663  0.000721  0.680543  0.012680
    C   C31   0.001242  0.500752  0.319293  0.015561
    C   C32   0.499549  0.999836  0.319108  0.022515
    C   C33   0.499309  0.000133  0.229101  0.013807
    C   C34   0.000874  0.501201  0.229286  0.008785
    C   C35   0.501003  0.000234  0.770549  0.006258
    C   C36   0.999479  0.499253  0.770734  0.008522
    C   C37   0.999400  0.499342  0.729287  0.012141
    C   C38   0.500857  0.000453  0.729102  0.016455
    C   C39   0.001056  0.501011  0.270733  0.014106
    C   C40   0.499421  0.000017  0.270547  0.008737
    C   C41   0.475931  0.657417  0.968226  -0.345319
    C   C42   0.342056  0.478461  0.964852  -0.353457
    C   C43   0.520450  0.342049  0.963968  -0.343417
    C   C44   0.657467  0.522799  0.967289  -0.342786
    C   C45   0.480759  0.342018  0.034562  -0.341740
    C   C46   0.342126  0.520375  0.034048  -0.341169
    C   C47   0.522542  0.657770  0.034087  -0.347302
    C   C48   0.657850  0.478291  0.034699  -0.357028
    C   C49   0.976962  0.157767  0.466200  -0.353160
    C   C50   0.842056  0.979884  0.463830  -0.348639
    C   C51   0.019642  0.842066  0.465443  -0.334901
    C   C52   0.157471  0.023595  0.467803  -0.342466
    C   C53   0.979976  0.841988  0.536053  -0.346410
    C   C54   0.842141  0.019524  0.534455  -0.336652
    C   C55   0.023607  0.157413  0.532035  -0.342519
    C   C56   0.157853  0.976936  0.533626  -0.353812
    C   C57   0.499295  0.634929  0.001243  0.239969
    C   C58   0.364792  0.499454  0.999402  0.243913
    C   C59   0.500506  0.364728  0.999216  0.242129
    C   C60   0.635001  0.500435  0.001054  0.243835
    C   C61   0.000173  0.134927  0.499071  0.241195
    C   C62   0.864792  0.999744  0.499089  0.240848
    C   C63   0.999849  0.864721  0.500799  0.238882
    C   C64   0.134999  0.000146  0.500765  0.241082
    C   C65   0.523558  0.703727  0.033735  0.183808
    C   C66   0.296164  0.521300  0.034153  0.175807
    C   C67   0.479930  0.296058  0.034694  0.181608
    C   C68   0.703806  0.477357  0.034435  0.190456
    C   C69   0.521666  0.296093  0.964040  0.183770
    C   C70   0.296101  0.477405  0.964923  0.184184
    C   C71   0.474718  0.703367  0.968182  0.177837
    C   C72   0.703414  0.524161  0.967298  0.182040
    C   C73   0.024936  0.203361  0.531982  0.175851
    C   C74   0.796179  0.020469  0.534586  0.180468
    C   C75   0.978871  0.796035  0.535985  0.182704
    C   C76   0.203811  0.976052  0.533361  0.190249
    C   C77   0.020583  0.796104  0.465315  0.177129
    C   C78   0.796102  0.978785  0.463899  0.185669
    C   C79   0.976062  0.203725  0.466456  0.189553
    C   C80   0.203419  0.024943  0.467848  0.176581
    C   C81   0.499094  0.726571  0.000854  -0.011158
    C   C82   0.273117  0.499323  0.999580  -0.011451
    C   C83   0.500891  0.273059  0.999415  -0.019203
    C   C84   0.726634  0.500862  0.000799  -0.015671
    C   C85   0.000600  0.226567  0.499276  -0.014090
    C   C86   0.773124  0.999589  0.499292  -0.020366
    C   C87   0.999683  0.773054  0.500600  -0.015078
    C   C88   0.226639  0.000609  0.500545  -0.015062
    C   C89   0.549423  0.727176  0.065112  -0.143030
    C   C90   0.272894  0.544672  0.067725  -0.138133
    C   C91   0.457641  0.272745  0.069017  -0.150060
    C   C92   0.727271  0.452516  0.066678  -0.144632
    C   C93   0.544154  0.272826  0.929825  -0.147280
    C   C94   0.272781  0.453987  0.931424  -0.145921
    C   C95   0.448800  0.726455  0.936564  -0.138954
    C   C96   0.726484  0.549215  0.934926  -0.143533
    C   C97   0.050964  0.226443  0.563507  -0.132360
    C   C98   0.772918  0.042797  0.568920  -0.147163
    C   C99   0.956461  0.772719  0.570221  -0.147209
    C   C100  0.227280  0.950259  0.564786  -0.149338
    C   C101  0.042926  0.772839  0.430995  -0.146130
    C   C102  0.772782  0.956390  0.429656  -0.147952
    C   C103  0.950272  0.227179  0.435016  -0.149256
    C   C104  0.226486  0.050985  0.436325  -0.132723
    C   C105  0.548083  0.772878  0.064735  -0.165877
    C   C106  0.227190  0.543217  0.067633  -0.162694
    C   C107  0.459186  0.227046  0.068876  -0.161601
    C   C108  0.772969  0.453965  0.066333  -0.168811
    C   C109  0.542962  0.227115  0.930147  -0.154924
    C   C110  0.227076  0.455345  0.931665  -0.164477
    C   C111  0.450018  0.772163  0.936480  -0.169922
    C   C112  0.772196  0.548154  0.934985  -0.163062
    C   C113  0.049886  0.272154  0.563474  -0.172763
    C   C114  0.727214  0.041358  0.568781  -0.161677
    C   C115  0.957749  0.727014  0.569894  -0.159527
    C   C116  0.272977  0.951755  0.564518  -0.164144
    C   C117  0.041476  0.727135  0.431132  -0.161074
    C   C118  0.727077  0.957690  0.429981  -0.157819
    C   C119  0.951751  0.272878  0.435276  -0.163426
    C   C120  0.272198  0.049923  0.436348  -0.172338
    C   C121  0.520978  0.795728  0.034590  0.169081
    C   C122  0.204179  0.518449  0.035529  0.162406
    C   C123  0.483036  0.204084  0.035994  0.162633
    C   C124  0.795794  0.480219  0.035366  0.168578
    C   C125  0.519278  0.204089  0.963113  0.153599
    C   C126  0.204110  0.480042  0.963862  0.164269
    C   C127  0.476997  0.795371  0.966458  0.175430
    C   C128  0.795425  0.522107  0.965822  0.167610
    C   C129  0.022917  0.295370  0.533496  0.175518
    C   C130  0.704193  0.017572  0.535891  0.160700
    C   C131  0.981448  0.704041  0.536900  0.158813
    C   C132  0.295801  0.978931  0.534419  0.166047
    C   C133  0.017661  0.704120  0.464003  0.160882
    C   C134  0.704110  0.981387  0.462980  0.155657
    C   C135  0.978899  0.295719  0.465389  0.166355
    C   C136  0.295430  0.022961  0.466321  0.174737
    C   C137  0.499019  0.772553  0.000636  -0.033890
    C   C138  0.227143  0.499268  0.999659  -0.025933
    C   C139  0.501071  0.227084  0.999509  -0.015864
    C   C140  0.772614  0.501065  0.000664  -0.030256
    C   C141  0.000806  0.272548  0.499386  -0.031208
    C   C142  0.727149  0.999514  0.499389  -0.015859
    C   C143  0.999596  0.727079  0.500500  -0.019793
    C   C144  0.272619  0.000834  0.500429  -0.030356
    C   C145  0.515601  0.841534  0.037969  -0.328965
    C   C146  0.158409  0.512708  0.038769  -0.325777
    C   C147  0.488973  0.158326  0.039052  -0.321962
    C   C148  0.841581  0.485831  0.038646  -0.324610
    C   C149  0.513632  0.158282  0.960198  -0.329484
    C   C150  0.158320  0.485702  0.960757  -0.330894
    C   C151  0.482268  0.841166  0.962615  -0.342449
    C   C152  0.841237  0.516835  0.962227  -0.334947
    C   C153  0.017779  0.341182  0.537238  -0.341354
    C   C154  0.658425  0.011708  0.538964  -0.320341
    C   C155  0.987154  0.658243  0.539787  -0.327768
    C   C156  0.341585  0.984455  0.537901  -0.324966
    C   C157  0.011780  0.658355  0.460922  -0.320829
    C   C158  0.658314  0.987109  0.460090  -0.327578
    C   C159  0.984406  0.341506  0.461902  -0.326617
    C   C160  0.341244  0.017838  0.462570  -0.340852
    C   C161  0.498964  0.864535  0.000161  0.361753
    C   C162  0.135211  0.499198  0.999795  0.346698
    C   C163  0.501350  0.135160  0.999660  0.331127
    C   C164  0.864584  0.501374  0.000347  0.351304
    C   C165  0.001168  0.364529  0.499640  0.360501
    C   C166  0.635225  0.999376  0.499573  0.329472
    C   C167  0.999428  0.635156  0.500306  0.330114
    C   C168  0.364599  0.001216  0.500159  0.356956
    H   H1    0.457912  0.637842  0.943615  0.200840
    H   H2    0.361392  0.462142  0.938810  0.200805
    H   H3    0.535878  0.361442  0.937389  0.194615
    H   H4    0.637864  0.539993  0.942069  0.196032
    H   H5    0.465167  0.361382  0.061060  0.195769
    H   H6    0.361514  0.536763  0.060002  0.197825
    H   H7    0.540685  0.638464  0.058829  0.198746
    H   H8    0.638541  0.460918  0.060031  0.198456
    H   H9    0.958788  0.138461  0.441482  0.200635
    H   H10   0.861402  0.964425  0.437235  0.196188
    H   H11   0.035176  0.861474  0.438942  0.193919
    H   H12   0.137883  0.041605  0.443195  0.199165
    H   H13   0.964509  0.861338  0.562640  0.195947
    H   H14   0.861551  0.035047  0.560961  0.194261
    H   H15   0.041618  0.137836  0.556650  0.199184
    H   H16   0.138558  0.958749  0.558342  0.200962
    H   H17   0.569596  0.791093  0.087353  0.155068
    H   H18   0.209079  0.562908  0.092062  0.152802
    H   H19   0.440261  0.208903  0.093923  0.152052
    H   H20   0.791199  0.433182  0.089662  0.154707
    H   H21   0.562013  0.209029  0.905159  0.149790
    H   H22   0.208940  0.435650  0.907261  0.152603
    H   H23   0.428535  0.790082  0.913584  0.154587
    H   H24   0.790103  0.569057  0.911505  0.153332
    H   H25   0.071479  0.290075  0.586259  0.155429
    H   H26   0.709115  0.060310  0.593841  0.152344
    H   H27   0.938755  0.708888  0.594896  0.150402
    H   H28   0.291207  0.930317  0.587198  0.154923
    H   H29   0.060440  0.709032  0.406086  0.152052
    H   H30   0.708946  0.938709  0.404971  0.149985
    H   H31   0.930324  0.291092  0.412572  0.154648
    H   H32   0.290105  0.071523  0.413558  0.155552
    O   O33   0.434029  0.501271  0.038864  -0.684948
    O   O34   0.500385  0.433865  0.038839  -0.682866
    O   O35   0.566105  0.500144  0.040982  -0.668732
    O   O36   0.501477  0.565941  0.041014  -0.670615
    O   O37   0.433777  0.497932  0.959538  -0.671272
    O   O38   0.497824  0.565846  0.961662  -0.688053
    O   O39   0.565840  0.500126  0.961553  -0.687247
    O   O40   0.500050  0.433786  0.959425  -0.669375
    O   O41   0.934025  0.999668  0.538591  -0.684702
    O   O42   0.000122  0.933693  0.540691  -0.667597
    O   O43   0.066098  0.998067  0.540648  -0.671333
    O   O44   0.001761  0.065764  0.538546  -0.687973
    O   O45   0.933759  0.000022  0.459185  -0.666943
    O   O46   0.998112  0.066018  0.459201  -0.670225
    O   O47   0.065829  0.001704  0.461302  -0.688175
    O   O48   0.999755  0.933945  0.461285  -0.683792
    C   C169  0.413235  0.499568  0.999258  0.632283
    C   C170  0.500311  0.413162  0.999144  0.632506
    C   C171  0.586610  0.500221  0.001208  0.639098
    C   C172  0.499516  0.586530  0.001327  0.636128
    C   C173  0.913227  0.999828  0.498946  0.633426
    C   C174  0.999928  0.913155  0.500933  0.633751
    C   C175  0.086601  0.999955  0.500917  0.637110
    C   C176  0.999999  0.086529  0.498928  0.635904
    Zn  Zn9   0.499885  0.499729  0.052338  1.312816
    Zn  Zn10  0.499957  0.500021  0.948131  1.318865
    Zn  Zn11  0.999905  0.999918  0.552026  1.315882
    Zn  Zn12  0.999981  0.999824  0.447836  1.314364
    C   C177  0.578911  0.704183  0.099461  0.713561
    F   F1    0.602332  0.734352  0.125651  -0.219736
    F   F2    0.609131  0.677635  0.076670  -0.243688
    F   F3    0.553534  0.678751  0.128992  -0.226711
    C   C178  0.296074  0.571522  0.104206  0.706299
    F   F4    0.266044  0.592768  0.132486  -0.218410
    F   F5    0.322361  0.603475  0.083763  -0.241677
    F   F6    0.321800  0.544055  0.131349  -0.225462
    C   C179  0.431857  0.295873  0.106354  0.722665
    F   F7    0.411527  0.265804  0.135306  -0.221005
    F   F8    0.399257  0.322102  0.086959  -0.246091
    F   F9    0.460079  0.321649  0.132596  -0.227934
    C   C180  0.704296  0.424011  0.101923  0.716202
    F   F10   0.734481  0.401433  0.128881  -0.219890
    F   F11   0.677832  0.393081  0.080076  -0.244131
    F   F12   0.678783  0.450199  0.130603  -0.226833
    C   C181  0.569773  0.296018  0.892409  0.713990
    F   F13   0.590376  0.266002  0.863605  -0.219029
    F   F14   0.602138  0.322595  0.911716  -0.243296
    F   F15   0.541358  0.321452  0.866033  -0.226306
    C   C182  0.295908  0.427204  0.894852  0.721660
    F   F16   0.265840  0.405874  0.866685  -0.221240
    F   F17   0.322356  0.395323  0.915193  -0.246091
    F   F18   0.321462  0.454744  0.867613  -0.227752
    C   C183  0.419407  0.703059  0.902418  0.717522
    F   F19   0.395852  0.732912  0.875968  -0.220354
    F   F20   0.389301  0.676570  0.925443  -0.245620
    F   F21   0.444890  0.677497  0.873108  -0.228553
    C   C184  0.703062  0.577532  0.899834  0.713389
    F   F22   0.732894  0.600410  0.872725  -0.219369
    F   F23   0.676430  0.608201  0.921857  -0.243420
    F   F24   0.677641  0.551131  0.871278  -0.227172
    C   C185  0.080342  0.203039  0.597659  0.709857
    F   F25   0.104004  0.232886  0.624014  -0.219253
    F   F26   0.110352  0.176430  0.574648  -0.242764
    F   F27   0.054833  0.177598  0.627058  -0.227430
    C   C186  0.796110  0.068512  0.606264  0.717436
    F   F28   0.766090  0.088908  0.635222  -0.220123
    F   F29   0.822420  0.101052  0.586879  -0.243974
    F   F30   0.821816  0.040218  0.632496  -0.227466
    C   C187  0.930825  0.795852  0.607664  0.718632
    F   F31   0.910322  0.765790  0.636493  -0.219624
    F   F32   0.898377  0.822352  0.588391  -0.245067
    F   F33   0.959206  0.821355  0.634008  -0.226985
    C   C188  0.204311  0.920693  0.599081  0.719619
    F   F34   0.234500  0.897348  0.625319  -0.220715
    F   F35   0.177890  0.890405  0.576230  -0.245682
    F   F36   0.178756  0.945987  0.628573  -0.227407
    C   C189  0.068668  0.796026  0.393668  0.716100
    F   F37   0.089080  0.766002  0.364727  -0.219800
    F   F38   0.101198  0.822334  0.413076  -0.243668
    F   F39   0.040395  0.821734  0.367414  -0.227149
    C   C190  0.795910  0.930757  0.392207  0.718611
    F   F40   0.765844  0.910264  0.363375  -0.219644
    F   F41   0.822405  0.898301  0.411472  -0.245035
    F   F42   0.821416  0.959139  0.365868  -0.226951
    C   C191  0.920731  0.204193  0.400711  0.718742
    F   F43   0.897386  0.234367  0.374455  -0.220414
    F   F44   0.890443  0.177764  0.423552  -0.245531
    F   F45   0.946049  0.178642  0.371236  -0.227166
    C   C192  0.203066  0.080359  0.402180  0.708467
    F   F46   0.232898  0.104036  0.375824  -0.219028
    F   F47   0.176448  0.110355  0.425201  -0.242426
    F   F48   0.177630  0.054844  0.372782  -0.227013
    C   C193  0.525610  0.865501  0.082626  0.737730
    F   F49   0.498428  0.901765  0.088682  -0.188999
    F   F50   0.569338  0.879084  0.082967  -0.220132
    F   F51   0.517620  0.838408  0.120096  -0.236850
    C   C194  0.134573  0.519056  0.084212  0.752703
    F   F52   0.098799  0.490871  0.088228  -0.195302
    F   F53   0.120255  0.562393  0.088027  -0.222408
    F   F54   0.161965  0.508839  0.120850  -0.240537
    C   C195  0.483885  0.134439  0.084641  0.751415
    F   F55   0.512175  0.098668  0.087799  -0.195456
    F   F56   0.440675  0.120100  0.089716  -0.221353
    F   F57   0.495093  0.161799  0.120992  -0.240516
    C   C196  0.865562  0.477113  0.083586  0.745538
    F   F58   0.901754  0.504544  0.088847  -0.192107
    F   F59   0.879263  0.433449  0.085213  -0.222260
    F   F60   0.838443  0.486051  0.120804  -0.238106
    C   C197  0.518912  0.134322  0.914672  0.775143
    F   F61   0.490970  0.098275  0.911603  -0.202963
    F   F62   0.562254  0.120384  0.909607  -0.225921
    F   F63   0.507427  0.161496  0.878263  -0.245454
    C   C198  0.134398  0.479240  0.915379  0.759512
    F   F64   0.098375  0.507120  0.911491  -0.197728
    F   F65   0.120436  0.435790  0.911523  -0.222087
    F   F66   0.161627  0.489744  0.878695  -0.241730
    C   C199  0.471954  0.864647  0.917752  0.755550
    F   F67   0.498398  0.901406  0.911432  -0.194697
    F   F68   0.427966  0.877358  0.917160  -0.223322
    F   F69   0.480586  0.837385  0.880566  -0.239843
    C   C200  0.864830  0.525865  0.917130  0.756312
    F   F70   0.901432  0.499033  0.911639  -0.195169
    F   F71   0.877814  0.569742  0.915359  -0.222978
    F   F72   0.837611  0.516445  0.880119  -0.240322
    C   C201  0.028075  0.364744  0.582058  0.750679
    F   F73   0.001431  0.401361  0.588371  -0.193275
    F   F74   0.071994  0.377693  0.582531  -0.221802
    F   F75   0.019667  0.337502  0.619314  -0.238845
    C   C202  0.634571  0.016791  0.584572  0.754752
    F   F76   0.598777  0.988532  0.587739  -0.196430
    F   F77   0.620273  0.060011  0.589682  -0.222549
    F   F78   0.661940  0.005539  0.620901  -0.241452
    C   C203  0.981917  0.634250  0.585299  0.771467
    F   F79   0.009863  0.598200  0.588312  -0.202201
    F   F80   0.938580  0.620308  0.590400  -0.225269
    F   F81   0.993437  0.661403  0.621713  -0.244291
    C   C204  0.365491  0.974407  0.582584  0.737064
    F   F82   0.401821  0.001490  0.588693  -0.189217
    F   F83   0.378963  0.930645  0.582956  -0.220452
    F   F84   0.338357  0.982474  0.620005  -0.236565
    C   C205  0.016873  0.634498  0.415316  0.756942
    F   F85   0.988566  0.598743  0.412124  -0.196878
    F   F86   0.060077  0.620141  0.410249  -0.223179
    F   F87   0.005690  0.661879  0.378975  -0.241958
    C   C206  0.634328  0.981916  0.414570  0.774448
    F   F88   0.598304  0.009897  0.411566  -0.203171
    F   F89   0.620348  0.938594  0.409442  -0.225928
    F   F90   0.661498  0.993430  0.378167  -0.245006
    C   C207  0.974332  0.365390  0.417212  0.736782
    F   F91   0.001304  0.401804  0.411120  -0.188959
    F   F92   0.930529  0.378728  0.416794  -0.220211
    F   F93   0.982516  0.338272  0.379804  -0.236464
    C   C208  0.364797  0.028183  0.417757  0.753565
    F   F94   0.401461  0.001607  0.411436  -0.194409
    F   F95   0.377671  0.072125  0.417298  -0.222699
    F   F96   0.337570  0.019738  0.380498  -0.239484
