data_DB0-m3_o18_o19_f0_pcu.sym.84_repeat
_audit_creation_date              2024-02-23
_audit_creation_method            'Materials Studio'
_symmetry_space_group_name_H-M    'P1'
_symmetry_Int_Tables_number       1
_symmetry_cell_setting            triclinic
loop_
_symmetry_equiv_pos_as_xyz
  x,y,z
_cell_length_a                    11.9200
_cell_length_b                    14.8426
_cell_length_c                    16.0277
_cell_angle_alpha                 86.0381
_cell_angle_beta                  89.9969
_cell_angle_gamma                 103.2204
loop_
_atom_site_label
_atom_site_type_symbol
_atom_site_fract_x
_atom_site_fract_y
_atom_site_fract_z
_atom_site_U_iso_or_equiv
_atom_site_adp_type
_atom_site_occupancy
O1     O     0.46430   0.38225   0.60481   0.00000  Uiso   1.00
O2     O     0.53158   0.61790   0.39488   0.00000  Uiso   1.00
O3     O     0.50812   0.53518   0.63740   0.00000  Uiso   1.00
O4     O     0.48774   0.46498   0.36229   0.00000  Uiso   1.00
C1     C     0.48257   0.44589   0.65939   0.00000  Uiso   1.00
C2     C     0.51328   0.55426   0.34030   0.00000  Uiso   1.00
O5     O     0.64301   0.42312   0.48340   0.00000  Uiso   1.00
O6     O     0.35277   0.57706   0.51623   0.00000  Uiso   1.00
O7     O     0.68686   0.57627   0.51595   0.00000  Uiso   1.00
O8     O     0.30891   0.42389   0.48370   0.00000  Uiso   1.00
C3     C     0.71705   0.49966   0.49967   0.00000  Uiso   1.00
C4     C     0.27873   0.50051   0.50000   0.00000  Uiso   1.00
Zn1    Zn    0.46894   0.39923   0.47822   0.00000  Uiso   1.00
Zn2    Zn    0.52683   0.60093   0.52147   0.00000  Uiso   1.00
C5     C     0.83744   0.49966   0.49968   0.00000  Uiso   1.00
C6     C     0.15833   0.50051   0.49997   0.00000  Uiso   1.00
C7     C     0.93860   0.49990   0.49976   0.00000  Uiso   1.00
C8     C     0.05717   0.50027   0.49989   0.00000  Uiso   1.00
C9     C     0.47455   0.41573   0.74895   0.00000  Uiso   1.00
C10    C     0.52232   0.58443   0.25073   0.00000  Uiso   1.00
C11    C     0.44191   0.29463   0.85727   0.00000  Uiso   1.00
C12    C     0.55805   0.70554   0.14242   0.00000  Uiso   1.00
C13    C     0.44906   0.32254   0.77370   0.00000  Uiso   1.00
C14    C     0.54956   0.67763   0.22599   0.00000  Uiso   1.00
C15    C     0.49275   0.48052   0.80873   0.00000  Uiso   1.00
C16    C     0.50380   0.51965   0.19095   0.00000  Uiso   1.00
C17    C     0.48611   0.45318   0.89427   0.00000  Uiso   1.00
C18    C     0.51267   0.54700   0.10541   0.00000  Uiso   1.00
C19    C     0.46015   0.35899   0.91685   0.00000  Uiso   1.00
C20    C     0.53984   0.64119   0.08284   0.00000  Uiso   1.00
C21    C     0.50435   0.51651   0.95758   0.00000  Uiso   1.00
C22    C     0.49521   0.48368   0.04210   0.00000  Uiso   1.00
C23    C     0.46919   0.38814   0.06119   0.00000  Uiso   1.00
C24    C     0.53194   0.61206   0.93848   0.00000  Uiso   1.00
C25    C     0.45214   0.32746   0.99941   0.00000  Uiso   1.00
C26    C     0.54934   0.67273   0.00027   0.00000  Uiso   1.00
H1     H     0.43212   0.25378   0.01669   0.00000  Uiso   1.00
H2     H     0.57074   0.74641   0.98300   0.00000  Uiso   1.00
H3     H     0.48219   0.44828   0.21399   0.00000  Uiso   1.00
H4     H     0.51170   0.55189   0.78568   0.00000  Uiso   1.00
H5     H     0.56442   0.72970   0.27116   0.00000  Uiso   1.00
H6     H     0.43448   0.27046   0.72854   0.00000  Uiso   1.00
H7     H     0.42180   0.22128   0.87603   0.00000  Uiso   1.00
H8     H     0.57933   0.77890   0.12367   0.00000  Uiso   1.00
H9     H     0.46139   0.35604   0.12360   0.00000  Uiso   1.00
H10    H     0.54176   0.64418   0.87607   0.00000  Uiso   1.00
N1     N     0.56517   0.73336   0.55032   0.00000  Uiso   1.00
N2     N     0.43067   0.26681   0.44931   0.00000  Uiso   1.00
C27    C     0.66744   0.84826   0.63382   0.00000  Uiso   1.00
C28    C     0.32317   0.15064   0.36940   0.00000  Uiso   1.00
C29    C     0.64135   0.75843   0.61068   0.00000  Uiso   1.00
C30    C     0.35272   0.24130   0.39017   0.00000  Uiso   1.00
C31    C     0.51256   0.79459   0.51057   0.00000  Uiso   1.00
C32    C     0.48234   0.20537   0.48973   0.00000  Uiso   1.00
C33    C     0.53818   0.88777   0.52903   0.00000  Uiso   1.00
C34    C     0.45925   0.11278   0.46958   0.00000  Uiso   1.00
C35    C     0.61733   0.91401   0.59146   0.00000  Uiso   1.00
C36    C     0.37872   0.08620   0.40808   0.00000  Uiso   1.00
C37    C     0.48674   0.95473   0.48718   0.00000  Uiso   1.00
C38    C     0.51412   0.04665   0.50910   0.00000  Uiso   1.00
C39    C     0.59807   0.07073   0.56893   0.00000  Uiso   1.00
C40    C     0.41021   0.93242   0.42231   0.00000  Uiso   1.00
C41    C     0.64884   0.00604   0.60848   0.00000  Uiso   1.00
C42    C     0.35831   0.99682   0.38352   0.00000  Uiso   1.00
H11    H     0.71581   0.03123   0.65187   0.00000  Uiso   1.00
H12    H     0.30327   0.97449   0.33202   0.00000  Uiso   1.00
H13    H     0.54114   0.23220   0.53744   0.00000  Uiso   1.00
H14    H     0.45061   0.76704   0.46501   0.00000  Uiso   1.00
H15    H     0.31040   0.29212   0.36102   0.00000  Uiso   1.00
H16    H     0.67873   0.70644   0.64318   0.00000  Uiso   1.00
H17    H     0.63007   0.14006   0.58699   0.00000  Uiso   1.00
H18    H     0.38839   0.86554   0.39736   0.00000  Uiso   1.00
C43    C     0.74452   0.86943   0.70503   0.00000  Uiso   1.00
C44    C     0.84111   0.83483   0.71853   0.00000  Uiso   1.00
C45    C     0.88330   0.86620   0.79241   0.00000  Uiso   1.00
C46    C     0.80910   0.91691   0.81941   0.00000  Uiso   1.00
O9     O     0.72378   0.91861   0.76683   0.00000  Uiso   1.00
H19    H     0.87680   0.79196   0.67891   0.00000  Uiso   1.00
H20    H     0.95911   0.85349   0.82370   0.00000  Uiso   1.00
H21    H     0.81798   0.95122   0.87719   0.00000  Uiso   1.00
C47    C     0.23063   0.12575   0.30869   0.00000  Uiso   1.00
C48    C     0.21813   0.18040   0.23804   0.00000  Uiso   1.00
C49    C     0.11980   0.13551   0.20231   0.00000  Uiso   1.00
C50    C     0.07835   0.05715   0.25392   0.00000  Uiso   1.00
O10    O     0.14494   0.05104   0.31925   0.00000  Uiso   1.00
H22    H     0.27444   0.24530   0.21511   0.00000  Uiso   1.00
H23    H     0.08172   0.15718   0.14537   0.00000  Uiso   1.00
H24    H     0.99998   0.00615   0.24338   0.00000  Uiso   1.00
