# Generated by REPEAT Assigner based on pymatgen
data_DB0-m3_o11_o25_f0_nbo.sym.55_sqe
_audit_creation_date              2022-05-24
_audit_creation_method            REPEAT_Assigner
_cell_length_a                    22.107442
_cell_length_b                    22.107981
_cell_length_c                    22.349116
_cell_angle_alpha                 60.374726
_cell_angle_beta                  119.610165
_cell_angle_gamma                 89.960093
_cell_volume                      7809.638280
_symmetry_space_group_name_H-M    P1
_symmetry_Int_Tables_number       1
loop_
    _symmetry_equiv_pos_site_id
    _symmetry_equiv_pos_as_xyz
    1  x,y,z
loop_
    _atom_site_type_symbol
    _atom_site_label
    _atom_site_fract_x
    _atom_site_fract_y
    _atom_site_fract_z
    _atom_type_partial_charge
    O   O1   0.593352  0.434629  0.498369  -0.695161
    O   O2   0.591718  0.541404  0.493631  -0.668906
    C   C1   0.620334  0.488132  0.495256  0.707559
    O   O3   0.438419  0.498172  0.372921  -0.684184
    O   O4   0.440718  0.602561  0.373153  -0.673671
    C   C2   0.419676  0.569913  0.334180  0.705567
    Zn  Zn1  0.502799  0.417914  0.497229  1.304776
    Zn  Zn2  0.503758  0.554473  0.498297  1.293385
    O   O5   0.414034  0.431703  0.500304  -0.673158
    O   O6   0.413948  0.537024  0.498711  -0.681195
    O   O7   0.564650  0.369813  0.622426  -0.668531
    O   O8   0.568874  0.474225  0.622498  -0.688042
    C   C3   0.386269  0.484116  0.500318  0.694188
    C   C4   0.586484  0.402577  0.661322  0.704316
    C   C5   0.280779  0.737831  0.967842  -0.182326
    C   C6   0.306249  0.762913  0.025871  -0.205396
    H   H1   0.357789  0.776135  0.050992  0.075351
    H   H2   0.213681  0.872930  0.952558  0.079034
    C   C7   0.373014  0.615375  0.244432  0.072668
    C   C8   0.113340  0.880185  0.750188  0.094050
    C   C9   0.262303  0.676894  0.021196  -0.197945
    C   C10  0.286491  0.703032  0.077695  0.884245
    C   C11  0.184586  0.728914  0.969033  -0.192894
    C   C12  0.203939  0.789116  0.916500  0.908814
    C   C13  0.209704  0.754001  0.027339  -0.194529
    C   C14  0.228489  0.814761  0.973743  -0.201273
    C   C15  0.333789  0.654589  0.169101  -0.599493
    C   C16  0.153712  0.839433  0.825379  -0.623256
    H   H3   0.181015  0.759651  0.054221  0.072740
    H   H4   0.133134  0.715568  0.943891  0.071869
    H   H5   0.277280  0.618742  0.042370  0.069175
    C   C17  0.761696  0.551238  0.450816  -0.086477
    C   C18  0.827621  0.500266  0.514114  -0.168713
    H   H6   0.754981  0.597408  0.395117  0.140680
    H   H7   0.836855  0.458749  0.573542  0.128365
    C   C19  0.699093  0.550444  0.458051  -0.104384
    C   C20  0.685559  0.487900  0.493298  -0.148845
    H   H8   0.659891  0.602473  0.427266  0.143654
    H   H9   0.719743  0.436742  0.515261  0.126771
    C   C21  0.703041  0.202861  0.021963  -0.200705
    C   C22  0.676544  0.286341  0.963470  -0.206233
    H   H10  0.622103  0.323853  0.932940  0.077217
    H   H11  0.672693  0.169007  0.044670  0.073392
    H   H12  0.760279  0.325392  0.041712  0.077983
    C   C23  0.629125  0.358148  0.751051  0.082354
    C   C24  0.854368  0.128721  0.243686  0.080403
    C   C25  0.730739  0.196576  0.974363  -0.196683
    C   C26  0.705002  0.279281  0.917539  0.901683
    C   C27  0.805132  0.198630  0.031244  -0.191208
    C   C28  0.776686  0.205686  0.077187  0.897395
    C   C29  0.778646  0.282074  0.972802  -0.206239
    C   C30  0.750932  0.288387  0.020331  -0.207150
    C   C31  0.663802  0.322001  0.826308  -0.613411
    C   C32  0.818535  0.163646  0.168425  -0.610121
    H   H13  0.808995  0.315930  0.950098  0.077437
    H   H14  0.859577  0.161127  0.061775  0.070545
    H   H15  0.721398  0.159573  0.952979  0.070285
    C   C33  0.242270  0.511134  0.538417  -0.106372
    C   C34  0.178436  0.515305  0.479406  -0.152766
    H   H16  0.247097  0.509147  0.590077  0.147136
    H   H17  0.170533  0.525534  0.422934  0.128057
    C   C35  0.304915  0.516068  0.531237  -0.092074
    C   C36  0.321187  0.482832  0.502456  -0.139355
    H   H18  0.341794  0.541775  0.556744  0.140023
    H   H19  0.289344  0.449876  0.485833  0.120569
    O   O9   0.039070  0.914986  0.500891  -0.665561
    O   O10  0.932818  0.916666  0.497368  -0.689073
    C   C37  0.986383  0.887252  0.500016  0.699567
    O   O11  0.099614  0.945896  0.621025  -0.660305
    O   O12  0.995679  0.946509  0.622220  -0.676310
    C   C38  0.067371  0.927201  0.660477  0.682753
    Zn  Zn3  0.051140  0.007958  0.495809  1.285650
    Zn  Zn4  0.915114  0.006191  0.498021  1.304646
    O   O13  0.032596  0.098320  0.494855  -0.685095
    O   O14  0.927994  0.098306  0.494587  -0.678959
    O   O15  0.970675  0.066273  0.371757  -0.681612
    O   O16  0.866662  0.069094  0.372723  -0.669697
    C   C39  0.979712  0.126939  0.493794  0.704071
    C   C40  0.899091  0.086515  0.333394  0.701951
    O   O17  0.958788  0.632856  0.418070  -0.691884
    O   O18  0.040723  0.568617  0.561582  -0.675496
    C   C41  0.998597  0.630228  0.486977  0.699300
    O   O19  0.876946  0.535076  0.432241  -0.680193
    O   O20  0.956412  0.473121  0.575742  -0.698141
    C   C42  0.890001  0.503140  0.506835  0.725177
    Zn  Zn5  0.951114  0.549678  0.402434  1.292276
    Zn  Zn6  0.055117  0.464714  0.591223  1.294356
    O   O21  0.965650  0.445768  0.432062  -0.679372
    O   O22  0.047309  0.381544  0.575571  -0.698116
    O   O23  0.049802  0.541152  0.417885  -0.693947
    O   O24  0.129270  0.479440  0.561409  -0.674081
    C   C43  0.008160  0.384162  0.506610  0.722100
    C   C44  0.116146  0.511804  0.486747  0.698777
    C   C45  0.050281  0.704232  0.539128  -0.087099
    C   C46  0.995379  0.699817  0.479743  -0.160932
    H   H20  0.099561  0.657038  0.591081  0.141475
    H   H21  0.949552  0.748633  0.423074  0.129221
    C   C47  0.048713  0.773965  0.532150  -0.108447
    C   C48  0.986751  0.820017  0.502180  -0.144146
    H   H22  0.100281  0.784505  0.558655  0.144375
    H   H23  0.936639  0.805747  0.484347  0.125222
    C   C49  0.000574  0.311788  0.450790  -0.095157
    C   C50  0.012148  0.314575  0.513750  -0.160942
    H   H24  0.991980  0.360541  0.395542  0.142207
    H   H25  0.029255  0.264488  0.572895  0.126859
    C   C51  0.006681  0.241943  0.458038  -0.095851
    C   C52  0.977815  0.194184  0.491694  -0.146426
    H   H26  0.029015  0.232719  0.428538  0.141217
    H   H27  0.947592  0.207362  0.512176  0.123830
    C   C53  0.328654  0.722145  0.944402  0.182542
    C   C54  0.398025  0.670837  0.007897  -0.152737
    C   C55  0.444354  0.654300  0.989839  -0.285202
    C   C56  0.421588  0.689092  0.907774  0.312274
    C   C57  0.470947  0.671860  0.887213  -0.374130
    C   C58  0.352472  0.740318  0.844162  -0.190151
    C   C59  0.306102  0.756884  0.862191  -0.290765
    H   H28  0.416442  0.643230  0.072450  0.118108
    H   H29  0.498414  0.613982  0.040454  0.144016
    H   H30  0.524131  0.629779  0.945248  0.098837
    H   H31  0.481130  0.722609  0.852100  0.095159
    H   H32  0.444272  0.650669  0.848031  0.095037
    H   H33  0.334434  0.767706  0.779754  0.126122
    H   H34  0.252587  0.797126  0.810985  0.171713
