data_DB0-m3_o11_o29_f0_pcu.sym.45_repeat
_audit_creation_date              2024-02-23
_audit_creation_method            'Materials Studio'
_symmetry_space_group_name_H-M    'P1'
_symmetry_Int_Tables_number       1
_symmetry_cell_setting            triclinic
loop_
_symmetry_equiv_pos_as_xyz
  x,y,z
_cell_length_a                    27.6257
_cell_length_b                    11.1383
_cell_length_c                    9.9001
_cell_angle_alpha                 89.9974
_cell_angle_beta                  89.9930
_cell_angle_gamma                 89.9936
loop_
_atom_site_label
_atom_site_type_symbol
_atom_site_fract_x
_atom_site_fract_y
_atom_site_fract_z
_atom_site_U_iso_or_equiv
_atom_site_adp_type
_atom_site_occupancy
O1     O     0.49505   0.33546   0.60068   0.00000  Uiso   1.00
O2     O     0.49289   0.34015   0.36864   0.00000  Uiso   1.00
C1     C     0.49481   0.28132   0.48304   0.00000  Uiso   1.00
O3     O     0.42232   0.51133   0.61402   0.00000  Uiso   1.00
O4     O     0.42001   0.51606   0.38159   0.00000  Uiso   1.00
C2     C     0.39846   0.51293   0.49936   0.00000  Uiso   1.00
Zn1    Zn    0.49499   0.51365   0.64207   0.00000  Uiso   1.00
Zn2    Zn    0.49138   0.51948   0.33523   0.00000  Uiso   1.00
O5     O     0.49332   0.69319   0.60928   0.00000  Uiso   1.00
O6     O     0.49127   0.69773   0.37594   0.00000  Uiso   1.00
O7     O     0.56646   0.51608   0.59595   0.00000  Uiso   1.00
O8     O     0.56408   0.52053   0.36303   0.00000  Uiso   1.00
C3     C     0.49206   0.75152   0.49401   0.00000  Uiso   1.00
C4     C     0.58797   0.52116   0.47793   0.00000  Uiso   1.00
C5     C     0.16850   0.41397   0.55862   0.00000  Uiso   1.00
O9     O     0.19268   0.32626   0.62293   0.00000  Uiso   1.00
N1     N     0.19329   0.50320   0.49804   0.00000  Uiso   1.00
C6     C     0.16957   0.59018   0.43050   0.00000  Uiso   1.00
C7     C     0.27039   0.50071   0.38026   0.00000  Uiso   1.00
C8     C     0.32019   0.50376   0.38056   0.00000  Uiso   1.00
C9     C     0.31998   0.51082   0.62164   0.00000  Uiso   1.00
C10    C     0.26997   0.50805   0.62103   0.00000  Uiso   1.00
C11    C     0.24498   0.50355   0.50017   0.00000  Uiso   1.00
C12    C     0.09357   0.49764   0.48143   0.00000  Uiso   1.00
C13    C     0.11843   0.41028   0.55111   0.00000  Uiso   1.00
C14    C     0.09316   0.31934   0.61279   0.00000  Uiso   1.00
C15    C     0.11963   0.58821   0.42112   0.00000  Uiso   1.00
C16    C     0.34536   0.50924   0.50116   0.00000  Uiso   1.00
H1     H     0.33878   0.51521   0.71722   0.00000  Uiso   1.00
H2     H     0.25049   0.51138   0.71566   0.00000  Uiso   1.00
H3     H     0.11151   0.25059   0.67027   0.00000  Uiso   1.00
C17    C     0.64116   0.51874   0.47297   0.00000  Uiso   1.00
C18    C     0.96733   0.39466   0.51563   0.00000  Uiso   1.00
C19    C     0.96827   0.58610   0.40166   0.00000  Uiso   1.00
C20    C     0.94287   0.48944   0.45506   0.00000  Uiso   1.00
C21    C     0.94040   0.29634   0.56002   0.00000  Uiso   1.00
C22    C     0.89078   0.29568   0.55196   0.00000  Uiso   1.00
C23    C     0.86652   0.39232   0.49861   0.00000  Uiso   1.00
C24    C     0.89251   0.48810   0.44894   0.00000  Uiso   1.00
C25    C     0.86748   0.58322   0.39439   0.00000  Uiso   1.00
C26    C     0.81744   0.58279   0.39294   0.00000  Uiso   1.00
N2     N     0.79264   0.48966   0.44531   0.00000  Uiso   1.00
C27    C     0.81636   0.39416   0.49623   0.00000  Uiso   1.00
C28    C     0.71183   0.41581   0.39053   0.00000  Uiso   1.00
C29    C     0.66223   0.42719   0.39897   0.00000  Uiso   1.00
C30    C     0.67096   0.60289   0.53771   0.00000  Uiso   1.00
C31    C     0.72068   0.58919   0.52875   0.00000  Uiso   1.00
C32    C     0.74119   0.49715   0.45558   0.00000  Uiso   1.00
O10    O     0.79110   0.30273   0.54983   0.00000  Uiso   1.00
C33    C     0.01779   0.40011   0.53002   0.00000  Uiso   1.00
C34    C     0.04328   0.49447   0.47198   0.00000  Uiso   1.00
C35    C     0.01898   0.58573   0.40446   0.00000  Uiso   1.00
C36    C     0.04362   0.31424   0.60296   0.00000  Uiso   1.00
H4     H     0.63952   0.36242   0.34803   0.00000  Uiso   1.00
H5     H     0.72746   0.34396   0.33149   0.00000  Uiso   1.00
H6     H     0.87151   0.21795   0.58898   0.00000  Uiso   1.00
H7     H     0.95627   0.21574   0.59984   0.00000  Uiso   1.00
H8     H     0.02690   0.24221   0.65794   0.00000  Uiso   1.00
O11    O     0.19466   0.68043   0.37374   0.00000  Uiso   1.00
C37    C     0.09579   0.67578   0.34979   0.00000  Uiso   1.00
H9     H     0.33891   0.50148   0.28478   0.00000  Uiso   1.00
H10    H     0.25133   0.49544   0.28507   0.00000  Uiso   1.00
H11    H     0.11528   0.74659   0.29877   0.00000  Uiso   1.00
C38    C     0.94205   0.68199   0.34833   0.00000  Uiso   1.00
C39    C     0.89246   0.68006   0.34452   0.00000  Uiso   1.00
O12    O     0.79323   0.67575   0.33879   0.00000  Uiso   1.00
C40    C     0.04627   0.67453   0.34083   0.00000  Uiso   1.00
H12    H     0.95823   0.76339   0.31181   0.00000  Uiso   1.00
H13    H     0.87382   0.75700   0.30316   0.00000  Uiso   1.00
H14    H     0.74459   0.65200   0.57844   0.00000  Uiso   1.00
H15    H     0.03103   0.74423   0.27916   0.00000  Uiso   1.00
C41    C     0.49956   0.94708   0.38457   0.00000  Uiso   1.00
C42    C     0.49559   0.88299   0.49844   0.00000  Uiso   1.00
H16    H     0.49874   0.90050   0.28870   0.00000  Uiso   1.00
H17    H     0.49919   0.92480   0.59659   0.00000  Uiso   1.00
C43    C     0.50948   0.07779   0.38244   0.00000  Uiso   1.00
C44    C     0.49242   0.14914   0.48187   0.00000  Uiso   1.00
H18    H     0.47306   0.10967   0.56577   0.00000  Uiso   1.00
C45    C     0.50724   0.60523   0.91439   0.00000  Uiso   1.00
N3     N     0.49875   0.51059   0.84387   0.00000  Uiso   1.00
H19    H     0.51293   0.69046   0.86438   0.00000  Uiso   1.00
H20    H     0.49914   0.43004   0.89444   0.00000  Uiso   1.00
C46    C     0.51208   0.60005   0.06294   0.00000  Uiso   1.00
N4     N     0.48834   0.52329   0.13342   0.00000  Uiso   1.00
H21    H     0.53438   0.66624   0.11359   0.00000  Uiso   1.00
H22    H     0.46336   0.47183   0.08288   0.00000  Uiso   1.00
C47    C     0.65333   0.71488   0.60770   0.00000  Uiso   1.00
C48    C     0.62597   0.79712   0.51219   0.00000  Uiso   1.00
C49    C     0.62487   0.68937   0.73541   0.00000  Uiso   1.00
H23    H     0.68533   0.76684   0.64104   0.00000  Uiso   1.00
H24    H     0.59186   0.75624   0.47731   0.00000  Uiso   1.00
H25    H     0.64908   0.81675   0.42329   0.00000  Uiso   1.00
H26    H     0.61762   0.88252   0.56489   0.00000  Uiso   1.00
H27    H     0.58579   0.70434   0.71802   0.00000  Uiso   1.00
H28    H     0.63682   0.75266   0.81518   0.00000  Uiso   1.00
H29    H     0.63197   0.59640   0.77029   0.00000  Uiso   1.00
C50    C     0.53956   0.12528   0.26681   0.00000  Uiso   1.00
C51    C     0.58271   0.04392   0.24025   0.00000  Uiso   1.00
C52    C     0.50904   0.13590   0.13971   0.00000  Uiso   1.00
H30    H     0.55540   0.21369   0.29099   0.00000  Uiso   1.00
H31    H     0.57159   0.95943   0.18994   0.00000  Uiso   1.00
H32    H     0.60116   0.02342   0.33700   0.00000  Uiso   1.00
H33    H     0.60855   0.09128   0.17308   0.00000  Uiso   1.00
H34    H     0.49655   0.04617   0.10616   0.00000  Uiso   1.00
H35    H     0.53094   0.17729   0.05819   0.00000  Uiso   1.00
H36    H     0.47700   0.19308   0.15984   0.00000  Uiso   1.00
