# Generated by REPEAT Assigner based on pymatgen
data_DB0-m2_o7_o15_f0_nbo.sym.29
_audit_creation_date              2022-05-24
_audit_creation_method            REPEAT_Assigner
_cell_length_a                    35.316910
_cell_length_b                    35.316910
_cell_length_c                    21.678282
_cell_angle_alpha                 90.000000
_cell_angle_beta                  90.000000
_cell_angle_gamma                 90.000000
_cell_volume                      27038.977884
_symmetry_space_group_name_H-M    P1
_symmetry_Int_Tables_number       1
loop_
    _symmetry_equiv_pos_site_id
    _symmetry_equiv_pos_as_xyz
    1  x,y,z
loop_
    _atom_site_type_symbol
    _atom_site_label
    _atom_site_fract_x
    _atom_site_fract_y
    _atom_site_fract_z
    _atom_type_partial_charge
    C   C1    0.072025  0.500000  0.500000  0.912507
    C   C2    0.500000  0.000000  0.382824  0.876333
    C   C3    0.988904  0.866862  0.052177  0.451432
    C   C4    0.133138  0.011096  0.947823  0.451419
    C   C5    0.988904  0.133138  0.947823  0.451562
    C   C6    0.866862  0.988904  0.947823  0.451571
    C   C7    0.011096  0.866862  0.947823  0.451537
    C   C8    0.386625  0.500000  0.500000  -0.637942
    C   C9    0.500000  0.613375  0.500000  -0.637936
    C   C10   0.613375  0.500000  0.500000  -0.637786
    C   C11   0.500000  0.386625  0.500000  -0.637789
    C   C12   0.886625  0.000000  0.000000  -0.638018
    C   C13   0.000000  0.500000  0.617176  0.876314
    C   C14   0.000000  0.113375  0.000000  -0.637995
    C   C15   0.113375  0.000000  0.000000  -0.637900
    C   C16   0.000000  0.886625  0.000000  -0.637973
    C   C17   0.308154  0.500000  0.500000  -0.541546
    C   C18   0.500000  0.691846  0.500000  -0.541708
    C   C19   0.691846  0.500000  0.500000  -0.541765
    C   C20   0.500000  0.308154  0.500000  -0.541500
    C   C21   0.808154  0.000000  0.000000  -0.541486
    C   C22   0.000000  0.191846  0.000000  -0.541433
    C   C23   0.191846  0.000000  0.000000  -0.541440
    C   C24   0.500000  0.000000  0.617176  0.876414
    C   C25   0.000000  0.808154  0.000000  -0.541445
    C   C26   0.267455  0.500000  0.500000  0.258690
    C   C27   0.500000  0.732545  0.500000  0.258751
    C   C28   0.732545  0.500000  0.500000  0.258394
    C   C29   0.500000  0.267455  0.500000  0.258368
    C   C30   0.767455  0.000000  0.000000  0.258711
    C   C31   0.000000  0.232545  0.000000  0.258634
    C   C32   0.232545  0.000000  0.000000  0.258728
    C   C33   0.000000  0.767455  0.000000  0.258745
    C   C34   0.233357  0.500000  0.500000  -0.405908
    C   C35   0.500000  0.000000  0.882824  0.876326
    C   C36   0.500000  0.766643  0.500000  -0.405969
    C   C37   0.766643  0.500000  0.500000  -0.405540
    C   C38   0.500000  0.233357  0.500000  -0.405564
    C   C39   0.733357  0.000000  0.000000  -0.405969
    C   C40   0.000000  0.266643  0.000000  -0.405887
    C   C41   0.266643  0.000000  0.000000  -0.405967
    C   C42   0.000000  0.733357  0.000000  -0.405971
    C   C43   0.173266  0.523251  0.539515  -0.544495
    C   C44   0.523251  0.826734  0.539514  -0.544503
    C   C45   0.826734  0.476749  0.539515  -0.544422
    C   C46   0.000000  0.500000  0.882824  0.876314
    C   C47   0.476749  0.173266  0.539514  -0.544417
    C   C48   0.826734  0.523251  0.460485  -0.544430
    C   C49   0.476749  0.826734  0.460485  -0.544507
    C   C50   0.173266  0.476749  0.460485  -0.544527
    C   C51   0.523251  0.173266  0.460485  -0.544451
    C   C52   0.673266  0.023251  0.039514  -0.544511
    C   C53   0.023251  0.326734  0.039515  -0.544471
    C   C54   0.326734  0.976749  0.039514  -0.544530
    C   C55   0.976749  0.673266  0.039515  -0.544524
    C   C56   0.326734  0.023251  0.960485  -0.544563
    C   C57   0.500000  0.000000  0.117176  0.876373
    C   C58   0.976749  0.326734  0.960485  -0.544508
    C   C59   0.673266  0.976749  0.960485  -0.544549
    C   C60   0.023251  0.673266  0.960485  -0.544543
    C   C61   0.134219  0.523389  0.539736  0.510612
    C   C62   0.523389  0.865781  0.539736  0.510571
    C   C63   0.865781  0.476611  0.539736  0.510605
    C   C64   0.476611  0.134219  0.539736  0.510585
    C   C65   0.865781  0.523389  0.460264  0.510621
    C   C66   0.476611  0.865781  0.460264  0.510543
    C   C67   0.134219  0.476611  0.460264  0.510623
    C   C68   0.000000  0.500000  0.117176  0.876342
    C   C69   0.523389  0.134219  0.460264  0.510590
    C   C70   0.634219  0.023389  0.039736  0.510548
    C   C71   0.023389  0.365781  0.039736  0.510530
    C   C72   0.365781  0.976611  0.039736  0.510610
    C   C73   0.976611  0.634219  0.039736  0.510578
    C   C74   0.365781  0.023389  0.960264  0.510645
    C   C75   0.976611  0.365781  0.960264  0.510545
    C   C76   0.634219  0.976611  0.960264  0.510540
    C   C77   0.023389  0.634219  0.960264  0.510596
    C   C78   0.114008  0.500000  0.500000  -0.497058
    C   C79   0.954579  0.551559  0.312824  -0.477173
    C   C80   0.500000  0.885992  0.500000  -0.496974
    C   C81   0.885992  0.500000  0.500000  -0.497042
    C   C82   0.500000  0.114008  0.500000  -0.496987
    C   C83   0.614008  0.000000  0.000000  -0.496957
    C   C84   0.000000  0.385992  0.000000  -0.496961
    C   C85   0.385992  0.000000  0.000000  -0.497058
    C   C86   0.000000  0.614008  0.000000  -0.497022
    C   C87   0.192772  0.500000  0.500000  0.550821
    C   C88   0.500000  0.807228  0.500000  0.550908
    C   C89   0.807228  0.500000  0.500000  0.550566
    C   C90   0.551559  0.045421  0.312824  -0.477236
    C   C91   0.500000  0.192772  0.500000  0.550639
    C   C92   0.692772  0.000000  0.000000  0.550940
    C   C93   0.000000  0.307228  0.000000  0.550832
    C   C94   0.307228  0.000000  0.000000  0.550927
    C   C95   0.000000  0.692772  0.000000  0.550894
    C   C96   0.500000  0.571772  0.500000  0.986009
    C   C97   0.571772  0.500000  0.500000  0.985986
    C   C98   0.500000  0.428228  0.500000  0.985964
    C   C99   0.428228  0.500000  0.500000  0.985962
    C   C100  0.000000  0.071772  0.000000  0.986028
    C   C101  0.045421  0.448441  0.312824  -0.477253
    C   C102  0.071772  0.000000  0.000000  0.986024
    C   C103  0.000000  0.928228  0.000000  0.986025
    C   C104  0.928228  0.000000  0.000000  0.986011
    C   C105  0.500000  0.927975  0.500000  0.912452
    C   C106  0.448441  0.954579  0.312824  -0.477246
    C   C107  0.045421  0.551559  0.687176  -0.477214
    C   C108  0.448441  0.045421  0.687176  -0.477171
    C   C109  0.954579  0.448441  0.687176  -0.477159
    C   C110  0.551559  0.954579  0.687176  -0.477271
    C   C111  0.454579  0.051559  0.812824  -0.477225
    C   C112  0.051559  0.545421  0.812824  -0.477165
    C   C113  0.545421  0.948441  0.812824  -0.477372
    C   C114  0.948441  0.454579  0.812824  -0.477293
    C   C115  0.545421  0.051559  0.187176  -0.477191
    C   C116  0.927975  0.500000  0.500000  0.912480
    C   C117  0.948441  0.545421  0.187176  -0.477219
    C   C118  0.454579  0.948441  0.187176  -0.477209
    C   C119  0.051559  0.454579  0.187176  -0.477270
    C   C120  0.930104  0.574850  0.281056  0.356447
    C   C121  0.574850  0.069896  0.281056  0.356502
    C   C122  0.069896  0.425150  0.281056  0.356581
    C   C123  0.425150  0.930103  0.281056  0.356358
    C   C124  0.069896  0.574850  0.718944  0.356491
    C   C125  0.425150  0.069896  0.718944  0.356458
    C   C126  0.930104  0.425150  0.718944  0.356421
    C   C127  0.500000  0.072025  0.500000  0.912423
    C   C128  0.574850  0.930103  0.718944  0.356445
    C   C129  0.430104  0.074850  0.781056  0.356531
    C   C130  0.074850  0.569896  0.781056  0.356487
    C   C131  0.569897  0.925150  0.781056  0.356575
    C   C132  0.925150  0.430103  0.781056  0.356517
    C   C133  0.569896  0.074850  0.218944  0.356495
    C   C134  0.925150  0.569896  0.218944  0.356532
    C   C135  0.430104  0.925150  0.218944  0.356579
    C   C136  0.074850  0.430103  0.218944  0.356414
    C   C137  0.975007  0.523248  0.217999  0.126938
    C   C138  0.572025  0.000000  0.000000  0.912519
    C   C139  0.523248  0.024993  0.217999  0.126901
    C   C140  0.024993  0.476752  0.217999  0.126952
    C   C141  0.476752  0.975007  0.217999  0.126925
    C   C142  0.024993  0.523248  0.782001  0.126882
    C   C143  0.476752  0.024993  0.782001  0.126896
    C   C144  0.975007  0.476752  0.782001  0.126955
    C   C145  0.523248  0.975007  0.782001  0.126954
    C   C146  0.475007  0.023248  0.717999  0.126945
    C   C147  0.023248  0.524993  0.717999  0.126946
    C   C148  0.524993  0.976752  0.717999  0.126960
    C   C149  0.000000  0.427975  0.000000  0.912474
    C   C150  0.976752  0.475007  0.717999  0.126920
    C   C151  0.524993  0.023248  0.282001  0.126964
    C   C152  0.976752  0.524993  0.282001  0.126904
    C   C153  0.475007  0.976752  0.282001  0.126986
    C   C154  0.023248  0.475007  0.282001  0.126928
    C   C155  0.000000  0.500000  0.185472  -0.213328
    C   C156  0.500000  0.000000  0.185472  -0.213343
    C   C157  0.000000  0.500000  0.814528  -0.213293
    C   C158  0.500000  0.000000  0.814528  -0.213291
    C   C159  0.500000  0.000000  0.685472  -0.213376
    C   C160  0.427975  0.000000  0.000000  0.912507
    C   C161  0.000000  0.500000  0.685472  -0.213333
    C   C162  0.500000  0.000000  0.314528  -0.213367
    C   C163  0.000000  0.500000  0.314528  -0.213309
    C   C164  0.327745  0.511109  0.552126  0.385990
    C   C165  0.511109  0.672255  0.552126  0.386194
    C   C166  0.672255  0.488891  0.552126  0.386324
    C   C167  0.488891  0.327744  0.552125  0.386093
    C   C168  0.672255  0.511109  0.447874  0.386297
    C   C169  0.488891  0.672255  0.447874  0.386049
    C   C170  0.327745  0.488891  0.447874  0.385970
    C   C171  0.000000  0.572025  0.000000  0.912495
    C   C172  0.511109  0.327744  0.447874  0.386242
    C   C173  0.827745  0.011109  0.052125  0.385917
    C   C174  0.011109  0.172255  0.052125  0.385912
    C   C175  0.172256  0.988891  0.052125  0.385983
    C   C176  0.988891  0.827744  0.052125  0.385963
    C   C177  0.172256  0.011109  0.947874  0.385992
    C   C178  0.988891  0.172255  0.947874  0.385942
    C   C179  0.827745  0.988891  0.947874  0.385947
    C   C180  0.011109  0.827744  0.947874  0.385958
    C   C181  0.366862  0.511096  0.552177  0.451508
    C   C182  0.000000  0.500000  0.382824  0.876283
    C   C183  0.511096  0.633138  0.552177  0.451438
    C   C184  0.633138  0.488904  0.552177  0.451298
    C   C185  0.488904  0.366862  0.552177  0.451326
    C   C186  0.633138  0.511096  0.447823  0.451271
    C   C187  0.488904  0.633138  0.447823  0.451486
    C   C188  0.366862  0.488904  0.447823  0.451533
    C   C189  0.511096  0.366862  0.447823  0.451217
    C   C190  0.866862  0.011096  0.052177  0.451625
    C   C191  0.011096  0.133138  0.052177  0.451569
    C   C192  0.133138  0.988904  0.052177  0.451399
    Cu  Cu1   0.000000  0.463138  0.500000  0.947948
    Cu  Cu2   0.500000  0.500000  0.560231  0.954766
    Cu  Cu3   0.000000  0.000000  0.939769  0.954796
    Cu  Cu4   0.000000  0.000000  0.060231  0.954805
    Cu  Cu5   0.463138  0.000000  0.500000  0.947944
    Cu  Cu6   0.000000  0.536862  0.500000  0.947933
    Cu  Cu7   0.536862  0.000000  0.500000  0.947935
    Cu  Cu8   0.500000  0.963138  0.000000  0.947967
    Cu  Cu9   0.963138  0.500000  0.000000  0.947968
    Cu  Cu10  0.500000  0.036862  0.000000  0.947956
    Cu  Cu11  0.036862  0.500000  0.000000  0.947943
    Cu  Cu12  0.500000  0.500000  0.439769  0.954764
    H   H1    0.955564  0.554759  0.362052  0.217856
    H   H2    0.054759  0.544436  0.862052  0.217827
    H   H3    0.551772  0.621750  0.614460  0.289977
    H   H4    0.621063  0.493122  0.642623  0.305479
    H   H5    0.621750  0.448228  0.614460  0.289981
    H   H6    0.493122  0.378937  0.642623  0.305455
    H   H7    0.448228  0.378250  0.614460  0.289961
    H   H8    0.621063  0.506878  0.357377  0.305452
    H   H9    0.621750  0.551772  0.385540  0.289963
    H   H10   0.493122  0.621063  0.357377  0.305459
    H   H11   0.448228  0.621750  0.385540  0.289968
    H   H12   0.378937  0.493122  0.357377  0.305462
    H   H13   0.544436  0.945241  0.862052  0.217890
    H   H14   0.378250  0.448228  0.385540  0.289975
    H   H15   0.506878  0.378937  0.357377  0.305451
    H   H16   0.551772  0.378250  0.385540  0.289966
    H   H17   0.878937  0.006877  0.142623  0.305457
    H   H18   0.878250  0.051772  0.114459  0.289949
    H   H19   0.006878  0.121063  0.142623  0.305439
    H   H20   0.051772  0.121750  0.114459  0.289960
    H   H21   0.121063  0.993122  0.142623  0.305449
    H   H22   0.121750  0.948228  0.114460  0.289963
    H   H23   0.993122  0.878937  0.142623  0.305445
    H   H24   0.945241  0.455564  0.862052  0.217863
    H   H25   0.948228  0.878250  0.114460  0.289966
    H   H26   0.121063  0.006878  0.857377  0.305460
    H   H27   0.121750  0.051772  0.885540  0.289973
    H   H28   0.993122  0.121063  0.857377  0.305469
    H   H29   0.948228  0.121750  0.885540  0.289978
    H   H30   0.878937  0.993122  0.857377  0.305468
    H   H31   0.878250  0.948228  0.885540  0.289983
    H   H32   0.006877  0.878937  0.857377  0.305474
    H   H33   0.051772  0.878250  0.885541  0.289963
    H   H34   0.124717  0.539366  0.626648  0.248081
    H   H35   0.544436  0.054759  0.137948  0.217854
    H   H36   0.124254  0.574760  0.574114  0.247984
    H   H37   0.539366  0.875283  0.626648  0.248065
    H   H38   0.574761  0.875746  0.574114  0.248017
    H   H39   0.875283  0.460634  0.626648  0.248071
    H   H40   0.875746  0.425239  0.574114  0.247988
    H   H41   0.460634  0.124717  0.626648  0.248038
    H   H42   0.425240  0.124253  0.574114  0.247971
    H   H43   0.875283  0.539366  0.373352  0.248092
    H   H44   0.875746  0.574760  0.425886  0.247995
    H   H45   0.460634  0.875283  0.373352  0.248130
    H   H46   0.945241  0.544436  0.137948  0.217838
    H   H47   0.425240  0.875746  0.425886  0.247966
    H   H48   0.124717  0.460634  0.373352  0.248071
    H   H49   0.124254  0.425239  0.425886  0.248014
    H   H50   0.539366  0.124717  0.373352  0.248084
    H   H51   0.574760  0.124253  0.425886  0.247963
    H   H52   0.624717  0.039366  0.126648  0.248062
    H   H53   0.624254  0.074761  0.074115  0.248033
    H   H54   0.039366  0.375283  0.126648  0.248120
    H   H55   0.074760  0.375746  0.074114  0.247985
    H   H56   0.375283  0.960634  0.126648  0.248023
    H   H57   0.455564  0.945241  0.137948  0.217805
    H   H58   0.375747  0.925240  0.074114  0.247972
    H   H59   0.960634  0.624717  0.126648  0.248074
    H   H60   0.925240  0.624253  0.074114  0.247968
    H   H61   0.375283  0.039366  0.873352  0.248104
    H   H62   0.375746  0.074760  0.925886  0.247990
    H   H63   0.960634  0.375283  0.873352  0.248128
    H   H64   0.925240  0.375746  0.925886  0.247998
    H   H65   0.624717  0.960634  0.873352  0.248122
    H   H66   0.624254  0.925239  0.925885  0.248006
    H   H67   0.039366  0.624717  0.873352  0.248081
    H   H68   0.054759  0.455564  0.137948  0.217871
    H   H69   0.074760  0.624253  0.925886  0.247974
    H   H70   0.188718  0.541383  0.570831  0.160876
    H   H71   0.541383  0.811282  0.570831  0.160839
    H   H72   0.811282  0.458617  0.570831  0.160866
    H   H73   0.554759  0.044436  0.362052  0.217864
    H   H74   0.458617  0.188718  0.570831  0.160815
    H   H75   0.811282  0.541383  0.429169  0.160852
    H   H76   0.458617  0.811282  0.429169  0.160867
    H   H77   0.188718  0.458617  0.429169  0.160885
    H   H78   0.541383  0.188718  0.429169  0.160848
    H   H79   0.688718  0.041383  0.070831  0.160850
    H   H80   0.041383  0.311282  0.070831  0.160859
    H   H81   0.311282  0.958617  0.070831  0.160850
    H   H82   0.958617  0.688718  0.070831  0.160872
    H   H83   0.311282  0.041383  0.929169  0.160889
    H   H84   0.044436  0.445241  0.362052  0.217878
    H   H85   0.958617  0.311282  0.929169  0.160869
    H   H86   0.688718  0.958617  0.929169  0.160881
    H   H87   0.041383  0.688718  0.929169  0.160880
    H   H88   0.080247  0.393836  0.357210  0.322117
    H   H89   0.084112  0.370508  0.290388  0.319064
    H   H90   0.393836  0.919753  0.357210  0.322148
    H   H91   0.370508  0.915888  0.290387  0.319048
    H   H92   0.919753  0.606164  0.357210  0.322124
    H   H93   0.915888  0.629492  0.290388  0.319057
    H   H94   0.606164  0.080247  0.357210  0.322135
    H   H95   0.445241  0.955564  0.362052  0.217839
    H   H96   0.629492  0.084112  0.290387  0.319054
    H   H97   0.919753  0.393836  0.642790  0.322164
    H   H98   0.915888  0.370508  0.709612  0.319070
    H   H99   0.606164  0.919753  0.642790  0.322149
    H   H100  0.629492  0.915888  0.709612  0.319009
    H   H101  0.080247  0.606164  0.642790  0.322127
    H   H102  0.084112  0.629492  0.709612  0.319050
    H   H103  0.393836  0.080247  0.642790  0.322175
    H   H104  0.370508  0.084112  0.709612  0.319013
    H   H105  0.580247  0.893836  0.857210  0.322099
    H   H106  0.044436  0.554759  0.637948  0.217868
    H   H107  0.584112  0.870508  0.790388  0.319028
    H   H108  0.893836  0.419753  0.857210  0.322114
    H   H109  0.870508  0.415888  0.790388  0.319041
    H   H110  0.419753  0.106164  0.857210  0.322115
    H   H111  0.415888  0.129492  0.790387  0.319054
    H   H112  0.106164  0.580247  0.857210  0.322138
    H   H113  0.129492  0.584112  0.790388  0.319051
    H   H114  0.419753  0.893836  0.142790  0.322156
    H   H115  0.415888  0.870508  0.209612  0.319062
    H   H116  0.106164  0.419753  0.142790  0.322113
    H   H117  0.445241  0.044436  0.637948  0.217806
    H   H118  0.129492  0.415888  0.209612  0.319031
    H   H119  0.580247  0.106164  0.142790  0.322110
    H   H120  0.584112  0.129492  0.209612  0.319036
    H   H121  0.893836  0.580247  0.142790  0.322144
    H   H122  0.870508  0.584112  0.209612  0.319051
    H   H123  0.290779  0.546040  0.594501  0.378776
    H   H124  0.290615  0.500576  0.620735  0.375985
    H   H125  0.546040  0.709221  0.594501  0.378669
    H   H126  0.500576  0.709385  0.620735  0.375856
    H   H127  0.709221  0.453960  0.594501  0.378789
    H   H128  0.955564  0.445241  0.637948  0.217822
    H   H129  0.709385  0.499424  0.620735  0.375984
    H   H130  0.453960  0.290779  0.594501  0.378839
    H   H131  0.499424  0.290615  0.620735  0.375996
    H   H132  0.709221  0.546040  0.405499  0.378801
    H   H133  0.709385  0.500576  0.379265  0.376007
    H   H134  0.453960  0.709221  0.405499  0.378790
    H   H135  0.499424  0.709385  0.379265  0.376002
    H   H136  0.290779  0.453960  0.405499  0.378782
    H   H137  0.290615  0.499424  0.379265  0.375992
    H   H138  0.546040  0.290779  0.405499  0.378809
    H   H139  0.554759  0.955564  0.637948  0.217841
    H   H140  0.500576  0.290615  0.379265  0.376030
    H   H141  0.790779  0.046040  0.094501  0.378803
    H   H142  0.790615  0.000576  0.120735  0.375980
    H   H143  0.046040  0.209221  0.094501  0.378799
    H   H144  0.000576  0.209385  0.120735  0.375988
    H   H145  0.209221  0.953960  0.094501  0.378807
    H   H146  0.209385  0.999424  0.120735  0.375978
    H   H147  0.953960  0.790779  0.094501  0.378807
    H   H148  0.999424  0.790615  0.120735  0.375994
    H   H149  0.209221  0.046040  0.905499  0.378785
    H   H150  0.455564  0.054759  0.862052  0.217854
    H   H151  0.209385  0.000576  0.879265  0.376010
    H   H152  0.953960  0.209221  0.905499  0.378789
    H   H153  0.999424  0.209385  0.879265  0.375995
    H   H154  0.790779  0.953960  0.905499  0.378787
    H   H155  0.790615  0.999424  0.879265  0.376002
    H   H156  0.046040  0.790779  0.905499  0.378798
    H   H157  0.000576  0.790615  0.879265  0.376014
    H   H158  0.378937  0.506878  0.642623  0.305450
    H   H159  0.378250  0.551772  0.614460  0.289963
    H   H160  0.506878  0.621063  0.642623  0.305473
    N   N1    0.090436  0.396089  0.312221  -0.812212
    N   N2    0.896089  0.409564  0.812221  -0.812174
    N   N3    0.409564  0.103911  0.812221  -0.812206
    N   N4    0.103911  0.590436  0.812221  -0.812212
    N   N5    0.409564  0.896089  0.187779  -0.812209
    N   N6    0.103911  0.409564  0.187779  -0.812142
    N   N7    0.590436  0.103911  0.187779  -0.812164
    N   N8    0.896089  0.590436  0.187779  -0.812226
    N   N9    0.307768  0.522892  0.605989  -0.990579
    N   N10   0.522892  0.692231  0.605989  -0.990416
    N   N11   0.692232  0.477108  0.605989  -0.990682
    N   N12   0.396089  0.909564  0.312221  -0.812157
    N   N13   0.477108  0.307768  0.605989  -0.990662
    N   N14   0.692232  0.522892  0.394011  -0.990667
    N   N15   0.477108  0.692232  0.394011  -0.990619
    N   N16   0.307768  0.477108  0.394011  -0.990591
    N   N17   0.522892  0.307768  0.394011  -0.990676
    N   N18   0.807768  0.022892  0.105989  -0.990624
    N   N19   0.022892  0.192232  0.105989  -0.990616
    N   N20   0.192232  0.977108  0.105989  -0.990611
    N   N21   0.977108  0.807768  0.105989  -0.990618
    N   N22   0.192232  0.022892  0.894011  -0.990600
    N   N23   0.909564  0.603911  0.312221  -0.812203
    N   N24   0.977108  0.192232  0.894011  -0.990600
    N   N25   0.807768  0.977108  0.894011  -0.990603
    N   N26   0.022892  0.807768  0.894011  -0.990622
    N   N27   0.386696  0.523988  0.605436  -0.728649
    N   N28   0.523988  0.613304  0.605436  -0.728671
    N   N29   0.613304  0.476012  0.605436  -0.728668
    N   N30   0.476012  0.386696  0.605436  -0.728636
    N   N31   0.613304  0.523988  0.394564  -0.728618
    N   N32   0.476012  0.613304  0.394564  -0.728663
    N   N33   0.386696  0.476012  0.394564  -0.728684
    N   N34   0.603911  0.090436  0.312221  -0.812226
    N   N35   0.523988  0.386696  0.394564  -0.728614
    N   N36   0.886696  0.023988  0.105436  -0.728681
    N   N37   0.023988  0.113304  0.105436  -0.728654
    N   N38   0.113304  0.976012  0.105436  -0.728640
    N   N39   0.976012  0.886696  0.105436  -0.728639
    N   N40   0.113304  0.023988  0.894564  -0.728667
    N   N41   0.976012  0.113304  0.894564  -0.728700
    N   N42   0.886696  0.976012  0.894564  -0.728706
    N   N43   0.023988  0.886696  0.894564  -0.728709
    N   N44   0.115353  0.547080  0.582738  -0.549228
    N   N45   0.909564  0.396089  0.687779  -0.812193
    N   N46   0.547080  0.884647  0.582738  -0.549223
    N   N47   0.884647  0.452920  0.582738  -0.549228
    N   N48   0.452920  0.115353  0.582738  -0.549182
    N   N49   0.884647  0.547080  0.417262  -0.549254
    N   N50   0.452920  0.884647  0.417262  -0.549193
    N   N51   0.115353  0.452920  0.417262  -0.549246
    N   N52   0.547080  0.115353  0.417262  -0.549188
    N   N53   0.615353  0.047080  0.082738  -0.549245
    N   N54   0.047080  0.384647  0.082738  -0.549205
    N   N55   0.384647  0.952920  0.082738  -0.549158
    N   N56   0.603911  0.909564  0.687779  -0.812124
    N   N57   0.952920  0.615353  0.082738  -0.549172
    N   N58   0.384647  0.047080  0.917262  -0.549257
    N   N59   0.952920  0.384647  0.917262  -0.549228
    N   N60   0.615353  0.952920  0.917262  -0.549233
    N   N61   0.047080  0.615353  0.917262  -0.549200
    N   N62   0.090436  0.603911  0.687779  -0.812205
    N   N63   0.396089  0.090436  0.687779  -0.812176
    N   N64   0.590436  0.896089  0.812221  -0.812120
    O   O1    0.053955  0.468963  0.482416  -0.650709
    O   O2    0.968963  0.446045  0.982416  -0.650705
    O   O3    0.446045  0.031037  0.982416  -0.650696
    O   O4    0.031037  0.553955  0.982416  -0.650680
    O   O5    0.446045  0.968963  0.017584  -0.650706
    O   O6    0.031037  0.446045  0.017584  -0.650690
    O   O7    0.553955  0.031037  0.017584  -0.650718
    O   O8    0.968963  0.553955  0.017584  -0.650705
    O   O9    0.989128  0.468945  0.412106  -0.666947
    O   O10   0.468945  0.010872  0.412106  -0.666953
    O   O11   0.010872  0.531055  0.412106  -0.666939
    O   O12   0.468963  0.946045  0.482416  -0.650695
    O   O13   0.531055  0.989128  0.412106  -0.666948
    O   O14   0.010872  0.468945  0.587894  -0.666944
    O   O15   0.531055  0.010872  0.587894  -0.666970
    O   O16   0.989128  0.531055  0.587894  -0.666959
    O   O17   0.468945  0.989128  0.587894  -0.666979
    O   O18   0.489128  0.968945  0.912106  -0.666977
    O   O19   0.968945  0.510872  0.912106  -0.666981
    O   O20   0.510872  0.031055  0.912106  -0.666956
    O   O21   0.031055  0.489128  0.912106  -0.666952
    O   O22   0.510872  0.968945  0.087894  -0.666960
    O   O23   0.946045  0.531037  0.482416  -0.650685
    O   O24   0.031055  0.510872  0.087894  -0.666963
    O   O25   0.489128  0.031055  0.087894  -0.666967
    O   O26   0.968945  0.489128  0.087894  -0.666962
    O   O27   0.510448  0.553916  0.449192  -0.634595
    O   O28   0.553916  0.489552  0.449192  -0.634594
    O   O29   0.489552  0.446084  0.449192  -0.634573
    O   O30   0.446084  0.510448  0.449192  -0.634582
    O   O31   0.489552  0.553916  0.550808  -0.634593
    O   O32   0.446084  0.489552  0.550808  -0.634581
    O   O33   0.510448  0.446084  0.550808  -0.634588
    O   O34   0.531037  0.053955  0.482416  -0.650671
    O   O35   0.553916  0.510448  0.550808  -0.634590
    O   O36   0.010448  0.053916  0.949192  -0.634604
    O   O37   0.053916  0.989552  0.949192  -0.634603
    O   O38   0.989552  0.946084  0.949192  -0.634610
    O   O39   0.946084  0.010448  0.949192  -0.634602
    O   O40   0.989552  0.053916  0.050808  -0.634602
    O   O41   0.946084  0.989552  0.050808  -0.634615
    O   O42   0.010448  0.946084  0.050808  -0.634610
    O   O43   0.053916  0.010448  0.050808  -0.634605
    O   O44   0.946045  0.468963  0.517584  -0.650707
    O   O45   0.531037  0.946045  0.517584  -0.650701
    O   O46   0.053955  0.531037  0.517584  -0.650687
    O   O47   0.468963  0.053955  0.517584  -0.650669
    O   O48   0.553955  0.968963  0.982416  -0.650740
