# Generated by REPEAT Assigner based on pymatgen
data_DB0-m29_o91_o85_f0_pts.sym.25
_audit_creation_date              2022-05-24
_audit_creation_method            REPEAT_Assigner
_cell_length_a                    13.476291
_cell_length_b                    20.413234
_cell_length_c                    11.131959
_cell_angle_alpha                 110.049470
_cell_angle_beta                  85.757353
_cell_angle_gamma                 74.146322
_cell_volume                      2719.298349
_symmetry_space_group_name_H-M    P1
_symmetry_Int_Tables_number       1
loop_
    _symmetry_equiv_pos_site_id
    _symmetry_equiv_pos_as_xyz
    1  x,y,z
loop_
    _atom_site_type_symbol
    _atom_site_label
    _atom_site_fract_x
    _atom_site_fract_y
    _atom_site_fract_z
    _atom_type_partial_charge
    C   C1   0.183366  0.965874  0.132352  -0.115669
    H   H1   0.205729  0.947863  0.209952  0.167342
    C   C2   0.087795  0.964878  0.097459  -0.145181
    H   H2   0.041484  0.941911  0.144493  0.124263
    C   C3   0.052707  0.993438  0.006200  0.123122
    C   C4   0.120485  0.016588  0.942284  -0.153876
    H   H3   0.097044  0.038008  0.869222  0.133930
    C   C5   0.219987  0.012312  0.970115  -0.015902
    C   C6   0.248257  0.991805  0.072539  0.006803
    C   C7   0.925532  0.995601  0.854564  -0.091732
    H   H4   0.985433  0.989417  0.778066  0.125012
    C   C8   0.827070  0.999196  0.826575  -0.181772
    H   H5   0.812893  0.997012  0.731195  0.179552
    C   C9   0.748982  0.999688  0.914095  0.078637
    C   C10  0.768535  0.999420  0.035056  -0.036224
    C   C11  0.866179  0.000625  0.065587  -0.130948
    H   H6   0.878614  0.005266  0.162242  0.138330
    C   C12  0.946554  0.996867  0.975070  0.067891
    O   O1   0.592170  0.005099  0.114801  -0.477756
    C   C13  0.689055  0.998275  0.132748  0.538273
    O   O2   0.636256  0.854580  0.132728  -0.468231
    O   O3   0.715431  0.989581  0.238778  -0.477324
    O   O4   0.561301  0.927167  0.341095  -0.540535
    C   C14  0.620897  0.863015  0.255623  0.676644
    Fe  Fe1  0.504929  0.996628  0.256219  1.450978
    O   O5   0.392044  0.958796  0.179400  -0.622404
    O   O6   0.365752  0.062102  0.135818  -0.490888
    C   C15  0.340769  0.002969  0.126677  0.679874
    O   O7   0.466824  0.098449  0.392476  -0.621713
    O   O8   0.322175  0.068288  0.438700  -0.496408
    C   C16  0.374153  0.115734  0.462881  0.681656
    O   O9   0.529673  0.901437  0.601074  -0.648648
    O   O10  0.670019  0.936751  0.558409  -0.542597
    C   C17  0.622228  0.886829  0.532582  0.736284
    O   O11  0.598988  0.040813  0.822886  -0.544139
    O   O12  0.626975  0.933486  0.853785  -0.467120
    C   C18  0.651871  0.993284  0.868713  0.608097
    O   O13  0.265177  0.051244  0.797631  -0.479767
    O   O14  0.434945  0.073017  0.654639  -0.524769
    C   C19  0.391343  0.140819  0.738904  0.589832
    O   O15  0.397793  0.992884  0.875925  -0.514237
    C   C20  0.296764  0.022693  0.882699  0.564870
    O   O16  0.391243  0.154795  0.863114  -0.482480
    Fe  Fe2  0.488363  0.002926  0.739362  1.451278
    C   C21  0.826440  0.571635  0.387531  0.424537
    N   N1   0.846282  0.635935  0.413680  -0.119930
    C   C22  0.925489  0.648604  0.475829  0.431471
    C   C23  0.987716  0.595703  0.513589  -0.099248
    C   C24  0.968386  0.529865  0.487460  0.069511
    C   C25  0.887202  0.517673  0.424275  -0.081763
    C   C26  0.069526  0.607952  0.576459  -0.046092
    C   C27  0.131330  0.554503  0.612652  -0.051760
    C   C28  0.111732  0.488401  0.586452  -0.106762
    C   C29  0.030162  0.476400  0.523953  0.102600
    C   C30  0.010802  0.410587  0.497861  -0.083862
    C   C31  0.928769  0.398426  0.435385  -0.065371
    C   C32  0.867316  0.451706  0.398569  -0.063035
    C   C33  0.173634  0.433931  0.621204  0.447084
    N   N2   0.154060  0.369483  0.594605  -0.162859
    C   C34  0.073575  0.357418  0.534562  0.436961
    O   O17  0.745980  0.560698  0.327738  -0.493677
    O   O18  0.945523  0.712308  0.498137  -0.478002
    H   H7   0.086553  0.659103  0.598112  0.129594
    H   H8   0.194811  0.565461  0.661483  0.127896
    O   O19  0.255322  0.444401  0.678672  -0.472418
    O   O20  0.053052  0.293908  0.512737  -0.471442
    H   H9   0.911685  0.347298  0.413795  0.138969
    H   H10  0.804023  0.440670  0.349401  0.141095
    C   C35  0.270147  0.244286  0.534903  -0.276405
    H   H11  0.263581  0.233638  0.434257  0.178587
    C   C36  0.328034  0.187912  0.567465  0.094881
    C   C37  0.336230  0.200151  0.696922  -0.050607
    C   C38  0.287566  0.270139  0.790351  -0.085639
    H   H12  0.292194  0.281763  0.891648  0.139963
    C   C39  0.229478  0.326095  0.756769  -0.195757
    H   H13  0.189357  0.379572  0.831951  0.138130
    C   C40  0.219288  0.313126  0.629024  0.285012
    C   C41  0.728282  0.759576  0.465889  -0.318265
    H   H14  0.729370  0.770938  0.567952  0.177484
    C   C42  0.673218  0.814874  0.429011  0.110634
    C   C43  0.673160  0.802362  0.297485  -0.273610
    C   C44  0.725222  0.731497  0.205763  0.434074
    C   C45  0.780538  0.676824  0.244975  -0.418415
    H   H15  0.823704  0.622573  0.174040  0.181849
    C   C46  0.783719  0.691067  0.374542  0.359193
    N   N3   0.721952  0.713880  0.070761  -0.544711
    H   H16  0.645494  0.714835  0.058783  0.285068
    H   H17  0.771421  0.660345  0.017850  0.272683
