data_DB0-m3_o12_o29_f0_pcu.sym.28_repeat
_audit_creation_date              2024-02-20
_audit_creation_method            'Materials Studio'
_symmetry_space_group_name_H-M    'P1'
_symmetry_Int_Tables_number       1
_symmetry_cell_setting            triclinic
loop_
_symmetry_equiv_pos_as_xyz
  x,y,z
_cell_length_a                    9.9905
_cell_length_b                    11.2645
_cell_length_c                    27.7004
_cell_angle_alpha                 89.9775
_cell_angle_beta                  80.8111
_cell_angle_gamma                 92.4394
loop_
_atom_site_label
_atom_site_type_symbol
_atom_site_fract_x
_atom_site_fract_y
_atom_site_fract_z
_atom_site_U_iso_or_equiv
_atom_site_adp_type
_atom_site_occupancy
O1     O     0.42470   0.69122   0.50447   0.00000  Uiso   1.00
O2     O     0.57141   0.30918   0.49551   0.00000  Uiso   1.00
O3     O     0.65386   0.65863   0.49056   0.00000  Uiso   1.00
O4     O     0.34225   0.34177   0.50929   0.00000  Uiso   1.00
C1     C     0.55207   0.72988   0.49675   0.00000  Uiso   1.00
C2     C     0.44403   0.27052   0.50315   0.00000  Uiso   1.00
O5     O     0.38546   0.51621   0.57870   0.00000  Uiso   1.00
O6     O     0.61074   0.48396   0.42122   0.00000  Uiso   1.00
O7     O     0.61429   0.48384   0.56489   0.00000  Uiso   1.00
O8     O     0.38173   0.51679   0.43503   0.00000  Uiso   1.00
C3     C     0.50035   0.49999   0.59459   0.00000  Uiso   1.00
C4     C     0.49577   0.50038   0.40542   0.00000  Uiso   1.00
Zn1    Zn    0.34700   0.52177   0.50908   0.00000  Uiso   1.00
Zn2    Zn    0.64910   0.47863   0.49085   0.00000  Uiso   1.00
C5     C     0.52437   0.60042   0.82274   0.00000  Uiso   1.00
C6     C     0.45622   0.40387   0.17850   0.00000  Uiso   1.00
O9     O     0.54963   0.70186   0.79669   0.00000  Uiso   1.00
O10    O     0.41307   0.30654   0.20557   0.00000  Uiso   1.00
N1     N     0.50256   0.49791   0.79977   0.00000  Uiso   1.00
N2     N     0.49584   0.50269   0.20048   0.00000  Uiso   1.00
C7     C     0.48028   0.39466   0.82494   0.00000  Uiso   1.00
C8     C     0.53721   0.60217   0.17438   0.00000  Uiso   1.00
C9     C     0.59404   0.43391   0.71759   0.00000  Uiso   1.00
C10    C     0.41122   0.57447   0.28204   0.00000  Uiso   1.00
C11    C     0.59388   0.43386   0.66779   0.00000  Uiso   1.00
C12    C     0.41047   0.57394   0.33190   0.00000  Uiso   1.00
C13    C     0.40942   0.56529   0.67889   0.00000  Uiso   1.00
C14    C     0.57915   0.42736   0.32191   0.00000  Uiso   1.00
C15    C     0.41025   0.56415   0.72865   0.00000  Uiso   1.00
C16    C     0.57857   0.42812   0.27214   0.00000  Uiso   1.00
C17    C     0.50228   0.49864   0.74822   0.00000  Uiso   1.00
C18    C     0.49515   0.50176   0.25203   0.00000  Uiso   1.00
C19    C     0.50195   0.49731   0.89940   0.00000  Uiso   1.00
C20    C     0.49891   0.50318   0.10078   0.00000  Uiso   1.00
C21    C     0.52377   0.60142   0.87262   0.00000  Uiso   1.00
C22    C     0.45746   0.40283   0.12858   0.00000  Uiso   1.00
C23    C     0.54386   0.70695   0.89580   0.00000  Uiso   1.00
C24    C     0.41506   0.30184   0.10658   0.00000  Uiso   1.00
C25    C     0.48065   0.39228   0.87532   0.00000  Uiso   1.00
C26    C     0.53931   0.60441   0.12386   0.00000  Uiso   1.00
C27    C     0.50132   0.49978   0.64783   0.00000  Uiso   1.00
C28    C     0.49492   0.50045   0.35230   0.00000  Uiso   1.00
H1     H     0.33765   0.61486   0.75243   0.00000  Uiso   1.00
H2     H     0.64466   0.37101   0.24876   0.00000  Uiso   1.00
H3     H     0.55781   0.79027   0.87594   0.00000  Uiso   1.00
H4     H     0.37860   0.22294   0.12765   0.00000  Uiso   1.00
C29    C     0.53624   0.60420   0.02292   0.00000  Uiso   1.00
C30    C     0.47384   0.39463   0.97677   0.00000  Uiso   1.00
C31    C     0.46416   0.39765   0.02777   0.00000  Uiso   1.00
C32    C     0.52849   0.60463   0.97284   0.00000  Uiso   1.00
C33    C     0.49978   0.50172   0.05039   0.00000  Uiso   1.00
C34    C     0.50146   0.49883   0.94977   0.00000  Uiso   1.00
C35    C     0.58140   0.70394   0.04625   0.00000  Uiso   1.00
C36    C     0.45847   0.28903   0.95186   0.00000  Uiso   1.00
C37    C     0.58294   0.70475   0.09575   0.00000  Uiso   1.00
C38    C     0.46144   0.28722   0.90212   0.00000  Uiso   1.00
O11    O     0.57851   0.69774   0.19797   0.00000  Uiso   1.00
O12    O     0.45382   0.29525   0.80074   0.00000  Uiso   1.00
C39    C     0.54572   0.70896   0.94515   0.00000  Uiso   1.00
C40    C     0.41784   0.29905   0.05698   0.00000  Uiso   1.00
H5     H     0.34532   0.63215   0.26645   0.00000  Uiso   1.00
H6     H     0.66698   0.38273   0.73263   0.00000  Uiso   1.00
H7     H     0.62170   0.78374   0.02701   0.00000  Uiso   1.00
H8     H     0.44858   0.20342   0.96951   0.00000  Uiso   1.00
H9     H     0.55657   0.79585   0.96042   0.00000  Uiso   1.00
H10    H     0.37790   0.21804   0.04322   0.00000  Uiso   1.00
H11    H     0.61737   0.09863   0.49280   0.00000  Uiso   1.00
H12    H     0.37873   0.90177   0.50715   0.00000  Uiso   1.00
C41    C     0.58308   0.85869   0.49487   0.00000  Uiso   1.00
C42    C     0.41302   0.14171   0.50502   0.00000  Uiso   1.00
C43    C     0.48318   0.93543   0.50087   0.00000  Uiso   1.00
C44    C     0.51293   0.06497   0.49905   0.00000  Uiso   1.00
H13    H     0.11513   0.42728   0.46974   0.00000  Uiso   1.00
H14    H     0.88097   0.57315   0.53024   0.00000  Uiso   1.00
N3     N     0.84782   0.44986   0.47873   0.00000  Uiso   1.00
N4     N     0.14829   0.55054   0.52124   0.00000  Uiso   1.00
C45    C     0.92475   0.50929   0.50366   0.00000  Uiso   1.00
C46    C     0.07135   0.49111   0.49632   0.00000  Uiso   1.00
H15    H     0.10085   0.60983   0.54582   0.00000  Uiso   1.00
H16    H     0.89527   0.39057   0.45416   0.00000  Uiso   1.00
N5     N     0.31597   0.63768   0.66007   0.00000  Uiso   1.00
H17    H     0.21831   0.60966   0.67648   0.00000  Uiso   1.00
H18    H     0.33398   0.72495   0.67084   0.00000  Uiso   1.00
N6     N     0.66373   0.34767   0.34159   0.00000  Uiso   1.00
H19    H     0.76369   0.36748   0.32515   0.00000  Uiso   1.00
H20    H     0.63663   0.26175   0.33152   0.00000  Uiso   1.00
N7     N     0.27455   0.09909   0.51331   0.00000  Uiso   1.00
H21    H     0.22839   0.13281   0.54668   0.00000  Uiso   1.00
H22    H     0.22728   0.13280   0.48554   0.00000  Uiso   1.00
N8     N     0.72155   0.90131   0.48653   0.00000  Uiso   1.00
H23    H     0.76762   0.86760   0.45315   0.00000  Uiso   1.00
H24    H     0.76891   0.86760   0.51428   0.00000  Uiso   1.00
N9     N     0.32581   0.65295   0.36164   0.00000  Uiso   1.00
H25    H     0.35281   0.73918   0.34876   0.00000  Uiso   1.00
H26    H     0.22587   0.63333   0.35666   0.00000  Uiso   1.00
N10    N     0.68686   0.36204   0.63772   0.00000  Uiso   1.00
H27    H     0.66917   0.27452   0.65031   0.00000  Uiso   1.00
H28    H     0.78473   0.38989   0.64269   0.00000  Uiso   1.00
N11    N     0.63074   0.81080   0.11666   0.00000  Uiso   1.00
H29    H     0.73009   0.83000   0.09941   0.00000  Uiso   1.00
H30    H     0.57039   0.87952   0.10888   0.00000  Uiso   1.00
N12    N     0.44621   0.17496   0.87947   0.00000  Uiso   1.00
H31    H     0.35332   0.13541   0.89553   0.00000  Uiso   1.00
H32    H     0.52365   0.12213   0.88719   0.00000  Uiso   1.00
