# Generated by REPEAT Assigner based on pymatgen
data_DB0-m3_o1530_o155_f0_fsc.sym.53_sqe
_audit_creation_date              2022-05-24
_audit_creation_method            REPEAT_Assigner
_cell_length_a                    8.535541
_cell_length_b                    12.948677
_cell_length_c                    17.539191
_cell_angle_alpha                 90.941177
_cell_angle_beta                  90.081344
_cell_angle_gamma                 95.353560
_cell_volume                      1929.776100
_symmetry_space_group_name_H-M    P1
_symmetry_Int_Tables_number       1
loop_
    _symmetry_equiv_pos_site_id
    _symmetry_equiv_pos_as_xyz
    1  x,y,z
loop_
    _atom_site_type_symbol
    _atom_site_label
    _atom_site_fract_x
    _atom_site_fract_y
    _atom_site_fract_z
    _atom_type_partial_charge
    C   C1   0.011269  0.135669  0.994454  0.201527
    C   C2   0.876064  0.188216  0.992230  0.128728
    C   C3   0.729734  0.133886  0.998363  -0.183108
    C   C4   0.716608  0.027673  0.004280  -0.301670
    C   C5   0.848916  0.974195  0.003710  0.237618
    C   C6   0.997161  0.027216  0.998926  -0.014832
    C   C7   0.831321  0.867124  0.008070  -0.306596
    C   C8   0.961720  0.811602  0.009607  0.080345
    C   C9   0.109767  0.863558  0.003792  0.287279
    C   C10  0.127154  0.969817  0.996763  -0.346617
    C   C11  0.947128  0.704935  0.018062  -0.102628
    C   C12  0.079845  0.653639  0.025960  -0.197640
    C   C13  0.226697  0.704189  0.016012  0.019660
    C   C14  0.242039  0.809238  0.003518  -0.305016
    C   C15  0.157361  0.193610  0.994360  -0.328411
    C   C16  0.167589  0.298309  0.981650  -0.045191
    C   C17  0.033828  0.347225  0.971752  -0.127771
    C   C18  0.888579  0.294936  0.982469  -0.168679
    H   H1   0.623660  0.173290  0.997253  0.123001
    H   H2   0.601076  0.986239  0.008294  0.158709
    H   H3   0.068110  0.571176  0.034570  0.143360
    H   H4   0.357810  0.848813  0.995323  0.128570
    H   H5   0.245154  0.004311  0.989041  0.154782
    H   H6   0.714580  0.827599  0.012481  0.147671
    H   H7   0.266731  0.161439  0.004719  0.160779
    H   H8   0.043033  0.429486  0.962291  0.136199
    O   O1   0.741031  0.595053  0.073468  -0.707060
    O   O2   0.739821  0.619432  0.943520  -0.752545
    C   C19  0.797111  0.641198  0.012025  0.903891
    O   O3   0.713284  0.405011  0.926700  -0.669419
    O   O4   0.703329  0.380085  0.056541  -0.540977
    C   C20  0.755220  0.358167  0.988207  0.724749
    O   O5   0.374893  0.406350  0.925584  -0.763827
    O   O6   0.375948  0.382120  0.055806  -0.708704
    C   C21  0.317720  0.361436  0.987372  0.882094
    O   O7   0.402727  0.595924  0.072635  -0.684064
    O   O8   0.412576  0.620716  0.942541  -0.525913
    C   C22  0.360147  0.641875  0.010812  0.701766
    Zn  Zn1  0.560368  0.513381  0.915157  1.001458
    Zn  Zn2  0.555940  0.487743  0.084049  0.971746
    C   C23  0.555271  0.613431  0.775468  -0.160136
    N   N1   0.563158  0.525512  0.815515  0.087495
    C   C24  0.564874  0.433736  0.778481  -0.162680
    C   C25  0.559917  0.515257  0.657929  0.001136
    C   C26  0.556990  0.609304  0.695814  0.206301
    C   C27  0.558826  0.698086  0.653297  -0.251914
    C   C28  0.562612  0.427399  0.700225  0.154375
    H   H9   0.562880  0.774376  0.679052  0.179562
    C   C29  0.574566  0.591585  0.456736  0.050527
    C   C30  0.549286  0.405510  0.462737  -0.001395
    C   C31  0.563018  0.495228  0.420313  0.052547
    C   C32  0.599849  0.679641  0.412599  -0.195676
    C   C33  0.605464  0.673007  0.334458  -0.103110
    C   C34  0.580317  0.577105  0.298150  0.198843
    C   C35  0.564337  0.488595  0.340967  -0.044535
    C   C36  0.549904  0.393382  0.303608  0.266935
    C   C37  0.553737  0.387816  0.224212  -0.192080
    N   N2   0.553721  0.475666  0.183583  0.107548
    C   C38  0.566549  0.568646  0.219687  -0.232888
    C   C39  0.565204  0.598130  0.536312  0.013808
    C   C40  0.560426  0.508584  0.578655  0.042793
    C   C41  0.556844  0.412270  0.542300  0.059238
    C   C42  0.561165  0.692536  0.575021  -0.114842
    H   H10  0.626105  0.756014  0.436636  0.138566
    H   H11  0.555950  0.765180  0.546972  0.121193
    C   C43  0.565845  0.332556  0.664698  -0.173930
    H   H12  0.571557  0.263407  0.697909  0.131325
    C   C44  0.524611  0.310646  0.424348  -0.093422
    C   C45  0.525097  0.304751  0.346154  -0.291150
    C   C46  0.563465  0.324614  0.586630  -0.177138
    H   H13  0.496911  0.238380  0.452708  0.116449
    H   H14  0.497356  0.229191  0.320238  0.184935
    H   H15  0.573261  0.248312  0.563260  0.147646
    H   H16  0.564292  0.363144  0.810372  0.164030
    H   H17  0.564638  0.636724  0.185721  0.204551
    C   C47  0.647063  0.769895  0.293556  0.396966
    H   H18  0.619746  0.842901  0.319048  0.000073
    O   O9   0.730374  0.771239  0.237113  -0.394338
    C   C48  0.536820  0.711675  0.816030  0.428394
    H   H19  0.607983  0.734771  0.865454  0.019602
    O   O10  0.433039  0.764947  0.797479  -0.436266
    C   C49  0.567425  0.287869  0.184960  0.420625
    H   H20  0.508012  0.268707  0.131611  0.030943
    O   O11  0.655015  0.227399  0.210151  -0.414170
