# Generated by REPEAT Assigner based on pymatgen
data_DB0-m9_o7_o23_f0_sra.sym.11_sqe
_audit_creation_date              2022-05-24
_audit_creation_method            REPEAT_Assigner
_cell_length_a                    25.338244
_cell_length_b                    6.756511
_cell_length_c                    21.345987
_cell_angle_alpha                 90.000000
_cell_angle_beta                  96.005674
_cell_angle_gamma                 90.000000
_cell_volume                      3634.335828
_symmetry_space_group_name_H-M    P1
_symmetry_Int_Tables_number       1
loop_
    _symmetry_equiv_pos_site_id
    _symmetry_equiv_pos_as_xyz
    1  x,y,z
loop_
    _atom_site_type_symbol
    _atom_site_label
    _atom_site_fract_x
    _atom_site_fract_y
    _atom_site_fract_z
    _atom_type_partial_charge
    O  O1   0.554578  0.530395  0.449890  -0.537855
    O  O2   0.445422  0.030395  0.550110  -0.537782
    O  O3   0.441982  0.188126  0.432351  -0.550708
    O  O4   0.558018  0.688126  0.567649  -0.550680
    C  C1   0.420905  0.362961  0.421361  0.688072
    C  C2   0.579095  0.862961  0.578639  0.688023
    O  O5   0.550643  0.187953  0.437150  -0.570800
    O  O6   0.449357  0.687953  0.562850  -0.570957
    O  O7   0.560339  0.030139  0.555100  -0.551700
    O  O8   0.439661  0.530139  0.444900  -0.551752
    C  C3   0.570496  0.362664  0.428062  0.652173
    C  C4   0.429504  0.862664  0.571938  0.652373
    O  O9   0.502582  0.356165  0.539022  -0.489664
    O  O10  0.497418  0.856165  0.460979  -0.489642
    V  V1   0.499486  0.081320  0.492201  1.432120
    V  V2   0.500514  0.581320  0.507799  1.432257
    C  C5   0.167409  0.099242  0.816885  -0.250609
    C  C6   0.832591  0.599242  0.183115  -0.250908
    H  H1   0.180660  0.230159  0.793979  0.159845
    H  H2   0.819339  0.730159  0.206021  0.159938
    C  C7   0.127672  0.112950  0.855983  -0.138077
    C  C8   0.872328  0.612950  0.144017  -0.138046
    H  H3   0.109728  0.254719  0.863865  0.154075
    H  H4   0.890272  0.754719  0.136135  0.154113
    C  C9   0.111007  0.946070  0.885375  0.018303
    C  C10  0.888993  0.446070  0.114625  0.018249
    C  C11  0.133878  0.765068  0.875575  -0.050293
    C  C12  0.866122  0.265068  0.124425  -0.050111
    H  H5   0.120818  0.634400  0.898778  0.097676
    H  H6   0.879182  0.134400  0.101222  0.097625
    C  C13  0.173680  0.751344  0.836424  -0.293484
    C  C14  0.826320  0.251344  0.163576  -0.293703
    H  H7   0.191853  0.609813  0.828809  0.161147
    H  H8   0.808147  0.109813  0.171191  0.161181
    C  C15  0.190454  0.918629  0.807242  0.382031
    C  C16  0.809546  0.418629  0.192758  0.382371
    C  C17  0.232145  0.905844  0.767035  -0.242569
    C  C18  0.767855  0.405844  0.232966  -0.242736
    C  C19  0.267180  0.897253  0.733197  -0.066733
    C  C20  0.732820  0.397253  0.266804  -0.066617
    C  C21  0.327905  0.060867  0.668901  0.321516
    C  C22  0.672095  0.560867  0.331099  0.321518
    C  C23  0.367558  0.052737  0.629466  -0.224171
    C  C24  0.632442  0.552737  0.370534  -0.224222
    H  H9   0.382424  0.187530  0.610429  0.151960
    H  H10  0.617575  0.687530  0.389571  0.152012
    C  C25  0.388165  0.872322  0.614264  -0.059790
    C  C26  0.611835  0.372322  0.385737  -0.059628
    C  C27  0.369288  0.700205  0.638479  -0.092681
    C  C28  0.630712  0.200205  0.361521  -0.092711
    H  H11  0.385457  0.558888  0.626367  0.152665
    H  H12  0.614542  0.058888  0.373633  0.152624
    C  C29  0.329483  0.708320  0.677681  -0.293478
    C  C30  0.670517  0.208320  0.322319  -0.293448
    H  H13  0.314385  0.573484  0.696410  0.212697
    H  H14  0.685615  0.073484  0.303591  0.212696
    C  C31  0.308798  0.888640  0.692787  0.152267
    C  C32  0.691202  0.388640  0.307213  0.152192
    C  C33  0.753079  0.760206  0.810112  -0.149736
    C  C34  0.246920  0.260206  0.189888  -0.149727
    C  C35  0.761601  0.115651  0.787593  -0.245574
    C  C36  0.238399  0.615652  0.212407  -0.245545
    C  C37  0.712152  0.099806  0.740749  0.466797
    C  C38  0.287848  0.599806  0.259251  0.466762
    H  H15  0.668653  0.766873  0.783030  0.032817
    H  H16  0.331347  0.266873  0.216970  0.032820
    H  H17  0.739234  0.801052  0.855984  0.043826
    H  H18  0.260766  0.301052  0.144016  0.043831
    H  H19  0.788770  0.237693  0.778578  0.086064
    H  H20  0.211230  0.737693  0.221422  0.086054
    H  H21  0.748401  0.144165  0.834688  0.035270
    H  H22  0.251598  0.644164  0.165312  0.035273
    H  H23  0.677652  0.109547  0.768573  -0.045676
    H  H24  0.322348  0.609547  0.231427  -0.045675
    C  C39  0.624622  0.874440  0.624802  -0.090167
    C  C40  0.375378  0.374440  0.375198  -0.090133
    C  C41  0.790473  0.918405  0.790590  0.373696
    C  C42  0.209526  0.418405  0.209411  0.373579
    C  C43  0.705679  0.742838  0.760599  -0.129685
    C  C44  0.294321  0.242838  0.239401  -0.129735
    C  C45  0.709783  0.897134  0.709778  0.306462
    C  C46  0.290217  0.397134  0.290222  0.306626
    C  C47  0.759382  0.856083  0.677893  0.393488
    C  C48  0.240618  0.356083  0.322107  0.393637
    C  C49  0.807463  0.862621  0.726766  0.323311
    C  C50  0.192537  0.362621  0.273234  0.323254
    C  C51  0.662992  0.884741  0.663270  -0.299895
    C  C52  0.337007  0.384741  0.336730  -0.299981
    C  C53  0.837247  0.931392  0.837101  -0.268824
    C  C54  0.162753  0.431392  0.162899  -0.268730
    C  C55  0.875652  0.945134  0.875394  -0.140817
    C  C56  0.124348  0.445134  0.124606  -0.140890
    H  H25  0.825715  0.713330  0.730445  -0.061386
    H  H26  0.174285  0.213330  0.269555  -0.061357
    H  H27  0.774150  0.616249  0.814767  0.027731
    H  H28  0.225850  0.116249  0.185234  0.027730
    H  H29  0.704853  0.593139  0.739262  0.049144
    H  H30  0.295147  0.093139  0.260738  0.049166
    H  H31  0.763050  0.964390  0.639675  -0.003704
    H  H32  0.236950  0.464390  0.360325  -0.003769
    O  O11  0.060313  0.295838  0.052197  -0.550866
    O  O12  0.939687  0.795838  0.947803  -0.550818
    O  O13  0.950363  0.644070  0.067915  -0.509294
    O  O14  0.049637  0.144070  0.932085  -0.509250
    C  C57  0.930330  0.463126  0.072508  0.528373
    C  C58  0.069670  0.963126  0.927492  0.528313
    O  O15  0.058112  0.645585  0.072457  -0.539145
    O  O16  0.941888  0.145585  0.927543  -0.539114
    O  O17  0.054667  0.794109  0.952579  -0.515532
    O  O18  0.945333  0.294109  0.047421  -0.515578
    C  C59  0.078722  0.464247  0.078877  0.687521
    C  C60  0.921278  0.964247  0.921124  0.687435
    O  O19  0.997615  0.478292  0.961884  -0.471541
    O  O20  0.002385  0.978292  0.038116  -0.471468
    V  V3   0.000781  0.746598  0.011142  1.399467
    V  V4   0.999219  0.246598  0.988858  1.399667
    O  O21  0.706734  0.251727  0.695558  -0.527745
    C  C61  0.757063  0.317541  0.683903  0.317238
    H  H33  0.786391  0.197134  0.688687  -0.264838
    H  H34  0.769422  0.444075  0.715158  -0.006397
    H  H35  0.754957  0.369634  0.634468  0.045859
    O  O22  0.293266  0.751727  0.304442  -0.527764
    C  C62  0.242937  0.817541  0.316097  0.317295
    H  H36  0.213609  0.697134  0.311313  -0.264866
    H  H37  0.230578  0.944075  0.284842  -0.006389
    H  H38  0.245043  0.869634  0.365532  0.045871
    O  O23  0.844827  0.997341  0.709025  -0.240305
    C  C63  0.888166  0.881006  0.697342  -0.132581
    H  H39  0.875483  0.769349  0.660753  0.044516
    H  H40  0.904305  0.805778  0.741409  0.082708
    H  H41  0.919343  0.976407  0.680411  0.091214
    O  O24  0.155173  0.497341  0.290975  -0.240298
    C  C64  0.111834  0.381006  0.302658  -0.132552
    H  H42  0.124517  0.269350  0.339248  0.044496
    H  H43  0.095695  0.305778  0.258591  0.082698
    H  H44  0.080657  0.476407  0.319589  0.091211
    O  O25  0.755489  0.668142  0.650965  -0.315952
    C  C65  0.749793  0.703355  0.586247  -0.069002
    H  H45  0.786603  0.771713  0.572308  0.026440
    H  H46  0.715664  0.803927  0.574092  0.042281
    H  H47  0.742446  0.561436  0.560723  0.073340
    O  O26  0.244511  0.168142  0.349035  -0.316161
    C  C66  0.250207  0.203355  0.413753  -0.068699
    H  H48  0.213397  0.271713  0.427692  0.026406
    H  H49  0.284336  0.303927  0.425908  0.042206
    H  H50  0.257554  0.061436  0.439277  0.073253
    O  O27  0.307503  0.239395  0.684291  -0.385072
    C  C67  0.336454  0.290378  0.741147  0.117919
    H  H51  0.371852  0.377575  0.731713  0.009781
    H  H52  0.349167  0.153859  0.767359  0.001936
    H  H53  0.311157  0.379378  0.769847  0.032361
    O  O28  0.692497  0.739395  0.315709  -0.385057
    C  C68  0.663546  0.790378  0.258853  0.117868
    H  H54  0.628148  0.877575  0.268288  0.009794
    H  H55  0.650833  0.653859  0.232641  0.001952
    H  H56  0.688843  0.879378  0.230153  0.032369
