# Generated by REPEAT Assigner based on pymatgen
data_DB0-m3_o113_o23_f0_fsc.sym.19_sqe
_audit_creation_date              2022-05-24
_audit_creation_method            REPEAT_Assigner
_cell_length_a                    12.369445
_cell_length_b                    14.251169
_cell_length_c                    6.549631
_cell_angle_alpha                 90.000000
_cell_angle_beta                  80.113845
_cell_angle_gamma                 90.000000
_cell_volume                      1137.418502
_symmetry_space_group_name_H-M    P1
_symmetry_Int_Tables_number       1
loop_
    _symmetry_equiv_pos_site_id
    _symmetry_equiv_pos_as_xyz
    1  x,y,z
loop_
    _atom_site_type_symbol
    _atom_site_label
    _atom_site_fract_x
    _atom_site_fract_y
    _atom_site_fract_z
    _atom_type_partial_charge
    C   C1   0.246701  0.985915  0.186742  -0.028673
    C   C2   0.149974  0.966017  0.317269  -0.138664
    C   C3   0.051446  0.971172  0.247926  -0.222225
    C   C4   0.245453  0.007215  0.981582  -0.233847
    C   C5   0.146076  0.013796  0.912658  0.081558
    C   C6   0.048774  0.996883  0.045342  0.164875
    C   C7   0.950755  0.003475  0.970630  -0.188132
    C   C8   0.851115  0.989982  0.098861  -0.112962
    C   C9   0.754266  0.996818  0.023449  -0.173069
    C   C10  0.144298  0.035615  0.708284  0.008297
    N   N1   0.048355  0.040756  0.637903  -0.490437
    C   C11  0.952265  0.025350  0.764962  0.549714
    C   C12  0.855045  0.030893  0.688287  -0.395836
    C   C13  0.755534  0.016429  0.816741  0.050536
    H   H1   0.151196  0.947162  0.476511  0.142737
    H   H2   0.220516  0.048894  0.604160  0.179184
    H   H3   0.857015  0.045229  0.525643  0.173370
    H   H4   0.978238  0.954677  0.356034  0.137021
    H   H5   0.845629  0.977630  0.262264  0.138037
    O   O1   0.384468  0.913800  0.343685  -0.749689
    O   O2   0.381294  0.075261  0.317675  -0.725717
    C   C14  0.346221  0.991557  0.276726  0.867095
    O   O3   0.380471  0.086348  0.737699  -0.750634
    O   O4   0.386393  0.924836  0.762682  -0.739104
    C   C15  0.346206  0.006941  0.827810  0.901763
    O   O5   0.616435  0.089751  0.659691  -0.659800
    O   O6   0.619479  0.928566  0.685578  -0.693896
    C   C16  0.655576  0.011912  0.725433  0.781107
    O   O7   0.620160  0.917358  0.265542  -0.722182
    O   O8   0.614201  0.079111  0.240563  -0.708975
    C   C17  0.653538  0.996951  0.174890  0.877594
    Zn  Zn1  0.497609  0.106926  0.487039  1.073981
    Zn  Zn2  0.503149  0.896829  0.515652  1.113370
    C   C18  0.560334  0.452858  0.284610  -0.230588
    C   C19  0.561685  0.558930  0.297375  -0.128228
    C   C20  0.553374  0.442591  0.664726  -0.202866
    C   C21  0.557012  0.548641  0.676933  -0.326221
    H   H6   0.647636  0.584284  0.273061  0.040825
    H   H7   0.645577  0.425774  0.257429  0.040553
    H   H8   0.505397  0.414925  0.810968  0.090961
    H   H9   0.512053  0.571524  0.830055  0.140500
    N   N2   0.505463  0.773808  0.526213  0.025344
    N   N3   0.494805  0.229754  0.469444  0.034385
    C   C22  0.497980  0.413411  0.485356  0.601263
    C   C23  0.502156  0.590198  0.508084  0.564615
    C   C24  0.384220  0.556910  0.537017  -0.099213
    C   C25  0.381751  0.450930  0.520397  -0.154615
    C   C26  0.504340  0.692684  0.519922  -0.224114
    C   C27  0.495825  0.310904  0.474172  -0.236973
    H   H10  0.341339  0.430611  0.388373  0.054729
    H   H11  0.343179  0.588281  0.415489  0.049458
    H   H12  0.335277  0.421185  0.665870  0.057587
    H   H13  0.340649  0.578785  0.691976  0.039627
    H   H14  0.519174  0.431198  0.154484  0.067535
    H   H15  0.519721  0.588637  0.175349  0.030991
    C   C28  0.666684  0.403446  0.636737  0.611149
    O   O9   0.692437  0.350750  0.766940  -0.526887
    O   O10  0.740505  0.425748  0.467907  -0.042687
    C   C29  0.844493  0.389423  0.442779  -0.267535
    H   H16  0.892949  0.415634  0.295575  0.124798
    H   H17  0.840313  0.311736  0.438166  0.121428
    H   H18  0.884390  0.411497  0.574248  0.106445
    C   C30  0.672851  0.581581  0.652927  0.642901
    O   O11  0.703351  0.625292  0.792617  -0.528032
    O   O12  0.743739  0.563639  0.477322  -0.071059
    C   C31  0.850062  0.594293  0.455982  -0.251654
    H   H19  0.895512  0.572979  0.302074  0.125151
    H   H20  0.889672  0.562861  0.579381  0.102632
    H   H21  0.851068  0.671857  0.469226  0.111397
