data_DB0-m3_o115_o21_f0_fsc.sym.12_repeat
_audit_creation_date              2024-02-23
_audit_creation_method            'Materials Studio'
_symmetry_space_group_name_H-M    'P1'
_symmetry_Int_Tables_number       1
_symmetry_cell_setting            triclinic
loop_
_symmetry_equiv_pos_as_xyz
  x,y,z
_cell_length_a                    12.2897
_cell_length_b                    16.5402
_cell_length_c                    16.7233
_cell_angle_alpha                 90.0392
_cell_angle_beta                  81.2863
_cell_angle_gamma                 94.4423
loop_
_atom_site_label
_atom_site_type_symbol
_atom_site_fract_x
_atom_site_fract_y
_atom_site_fract_z
_atom_site_U_iso_or_equiv
_atom_site_adp_type
_atom_site_occupancy
H1     H     0.06234   0.07370   0.28645   0.00000  Uiso   1.00
H2     H     0.93767   0.92631   0.71356   0.00000  Uiso   1.00
C1     C     0.99626   0.74187   0.03472   0.00000  Uiso   1.00
C2     C     0.00374   0.25813   0.96528   0.00000  Uiso   1.00
C3     C     0.99888   0.74442   0.95233   0.00000  Uiso   1.00
C4     C     0.00112   0.25558   0.04767   0.00000  Uiso   1.00
C5     C     0.00145   0.82539   0.93091   0.00000  Uiso   1.00
C6     C     0.99855   0.17461   0.06909   0.00000  Uiso   1.00
N1     N     0.00086   0.87217   0.99692   0.00000  Uiso   1.00
N2     N     0.99914   0.12783   0.00308   0.00000  Uiso   1.00
C7     C     0.99791   0.82131   0.06029   0.00000  Uiso   1.00
C8     C     0.00209   0.17869   0.93971   0.00000  Uiso   1.00
C9     C     0.99986   0.85258   0.85556   0.00000  Uiso   1.00
C10    C     0.00014   0.14742   0.14444   0.00000  Uiso   1.00
C11    C     0.99182   0.93876   0.83404   0.00000  Uiso   1.00
C12    C     0.00818   0.06124   0.16596   0.00000  Uiso   1.00
C13    C     0.95989   0.96337   0.76265   0.00000  Uiso   1.00
C14    C     0.04011   0.03663   0.23735   0.00000  Uiso   1.00
C15    C     0.96014   0.04642   0.76496   0.00000  Uiso   1.00
C16    C     0.03986   0.95358   0.23504   0.00000  Uiso   1.00
C17    C     0.99276   0.07014   0.83737   0.00000  Uiso   1.00
C18    C     0.00724   0.92986   0.16264   0.00000  Uiso   1.00
N3     N     0.01420   0.00442   0.87861   0.00000  Uiso   1.00
N4     N     0.98580   0.99558   0.12139   0.00000  Uiso   1.00
C19    C     0.00128   0.15578   0.86293   0.00000  Uiso   1.00
C20    C     0.99873   0.84422   0.13707   0.00000  Uiso   1.00
H3     H     0.99353   0.68722   0.07064   0.00000  Uiso   1.00
H4     H     0.00647   0.31278   0.92936   0.00000  Uiso   1.00
H5     H     0.99717   0.69183   0.91400   0.00000  Uiso   1.00
H6     H     0.00283   0.30817   0.08600   0.00000  Uiso   1.00
H7     H     0.93761   0.08446   0.71854   0.00000  Uiso   1.00
H8     H     0.06239   0.91555   0.28146   0.00000  Uiso   1.00
H9     H     0.04876   0.00470   0.93154   0.00000  Uiso   1.00
H10    H     0.95124   0.99531   0.06846   0.00000  Uiso   1.00
C21    C     0.10143   0.23073   0.23567   0.00000  Uiso   1.00
C22    C     0.89857   0.76927   0.76433   0.00000  Uiso   1.00
H11    H     0.17542   0.20328   0.20944   0.00000  Uiso   1.00
H12    H     0.82458   0.79673   0.79056   0.00000  Uiso   1.00
C23    C     0.10445   0.28450   0.29870   0.00000  Uiso   1.00
C24    C     0.89555   0.71550   0.70130   0.00000  Uiso   1.00
C25    C     0.00832   0.31994   0.33164   0.00000  Uiso   1.00
C26    C     0.99168   0.68006   0.66836   0.00000  Uiso   1.00
C27    C     0.91050   0.29655   0.30317   0.00000  Uiso   1.00
C28    C     0.08950   0.70345   0.69683   0.00000  Uiso   1.00
H13    H     0.83442   0.32252   0.32699   0.00000  Uiso   1.00
H14    H     0.16558   0.67748   0.67301   0.00000  Uiso   1.00
C29    C     0.90784   0.24001   0.24298   0.00000  Uiso   1.00
C30    C     0.09216   0.75999   0.75702   0.00000  Uiso   1.00
H15    H     0.83075   0.22206   0.22183   0.00000  Uiso   1.00
H16    H     0.16925   0.77794   0.77818   0.00000  Uiso   1.00
C31    C     0.00332   0.20737   0.20877   0.00000  Uiso   1.00
C32    C     0.99668   0.79263   0.79123   0.00000  Uiso   1.00
C33    C     0.09866   0.75249   0.21162   0.00000  Uiso   1.00
C34    C     0.90134   0.24751   0.78839   0.00000  Uiso   1.00
H17    H     0.17506   0.77514   0.17500   0.00000  Uiso   1.00
H18    H     0.82494   0.22486   0.82500   0.00000  Uiso   1.00
C35    C     0.10010   0.69524   0.27146   0.00000  Uiso   1.00
C36    C     0.89990   0.30476   0.72854   0.00000  Uiso   1.00
H19    H     0.17817   0.67365   0.28045   0.00000  Uiso   1.00
H20    H     0.82183   0.32635   0.71955   0.00000  Uiso   1.00
C37    C     0.00274   0.66616   0.31886   0.00000  Uiso   1.00
C38    C     0.99726   0.33385   0.68114   0.00000  Uiso   1.00
C39    C     0.90420   0.69513   0.30557   0.00000  Uiso   1.00
C40    C     0.09580   0.30487   0.69443   0.00000  Uiso   1.00
H21    H     0.82692   0.67388   0.34184   0.00000  Uiso   1.00
H22    H     0.17308   0.32612   0.65816   0.00000  Uiso   1.00
C41    C     0.90322   0.75289   0.24626   0.00000  Uiso   1.00
C42    C     0.09678   0.24711   0.75374   0.00000  Uiso   1.00
H23    H     0.82604   0.77576   0.23686   0.00000  Uiso   1.00
H24    H     0.17396   0.22424   0.76314   0.00000  Uiso   1.00
C43    C     0.00025   0.78160   0.19901   0.00000  Uiso   1.00
C44    C     0.99975   0.21840   0.80099   0.00000  Uiso   1.00
O1     O     0.91047   0.40714   0.42616   0.00000  Uiso   1.00
O2     O     0.08953   0.59286   0.57384   0.00000  Uiso   1.00
O3     O     0.10004   0.41808   0.41053   0.00000  Uiso   1.00
O4     O     0.89996   0.58192   0.58946   0.00000  Uiso   1.00
C45    C     0.00671   0.38430   0.39280   0.00000  Uiso   1.00
C46    C     0.99329   0.61570   0.60720   0.00000  Uiso   1.00
O5     O     0.09848   0.58561   0.40065   0.00000  Uiso   1.00
O6     O     0.90152   0.41439   0.59935   0.00000  Uiso   1.00
O7     O     0.90836   0.57518   0.42190   0.00000  Uiso   1.00
O8     O     0.09164   0.42483   0.57810   0.00000  Uiso   1.00
C47    C     0.00344   0.60585   0.38328   0.00000  Uiso   1.00
C48    C     0.99656   0.39415   0.61672   0.00000  Uiso   1.00
Zn1    Zn    0.12283   0.50857   0.48844   0.00000  Uiso   1.00
Zn2    Zn    0.87717   0.49143   0.51156   0.00000  Uiso   1.00
N5     N     0.73230   0.48259   0.52367   0.00000  Uiso   1.00
N6     N     0.26770   0.51741   0.47633   0.00000  Uiso   1.00
C49    C     0.52014   0.47951   0.52793   0.00000  Uiso   1.00
C50    C     0.47986   0.52049   0.47207   0.00000  Uiso   1.00
C51    C     0.36245   0.51925   0.47380   0.00000  Uiso   1.00
C52    C     0.63755   0.48076   0.52620   0.00000  Uiso   1.00
H25    H     0.53543   0.55471   0.42541   0.00000  Uiso   1.00
H26    H     0.46457   0.44529   0.57459   0.00000  Uiso   1.00
N7     N     0.20560   0.29872   0.33052   0.00000  Uiso   1.00
O9     O     0.20662   0.28463   0.40692   0.00000  Uiso   1.00
O10    O     0.29834   0.30148   0.28109   0.00000  Uiso   1.00
N8     N     0.79440   0.70128   0.66948   0.00000  Uiso   1.00
O11    O     0.79338   0.71538   0.59308   0.00000  Uiso   1.00
O12    O     0.70166   0.69852   0.71891   0.00000  Uiso   1.00
