# Generated by REPEAT Assigner based on pymatgen
data_DB0-m3_o17_o109_f0_fsc.sym.16
_audit_creation_date              2022-05-24
_audit_creation_method            REPEAT_Assigner
_cell_length_a                    10.881484
_cell_length_b                    10.874034
_cell_length_c                    13.504231
_cell_angle_alpha                 90.000000
_cell_angle_beta                  90.000000
_cell_angle_gamma                 90.000000
_cell_volume                      1597.896623
_symmetry_space_group_name_H-M    P1
_symmetry_Int_Tables_number       1
loop_
    _symmetry_equiv_pos_site_id
    _symmetry_equiv_pos_as_xyz
    1  x,y,z
loop_
    _atom_site_type_symbol
    _atom_site_label
    _atom_site_fract_x
    _atom_site_fract_y
    _atom_site_fract_z
    _atom_type_partial_charge
    C   C1   0.259185  0.782105  0.979077  -0.006606
    C   C2   0.743692  0.217726  0.021643  -0.017730
    C   C3   0.259185  0.217895  0.979078  -0.006644
    C   C4   0.743692  0.782273  0.021645  -0.017761
    C   C5   0.316917  0.892073  0.964990  -0.028777
    C   C6   0.687218  0.108165  0.041268  0.029516
    C   C7   0.316917  0.107927  0.964991  -0.028865
    C   C8   0.687218  0.891834  0.041269  0.029576
    C   C9   0.252413  0.000000  0.970428  -0.067867
    C   C10  0.751290  0.000000  0.033716  -0.141800
    C   C11  0.134064  0.779374  0.994168  -0.214864
    C   C12  0.868012  0.220195  0.002792  -0.163150
    C   C13  0.134064  0.220627  0.994169  -0.214825
    C   C14  0.868012  0.779805  0.002792  -0.163123
    C   C15  0.065037  0.888192  0.992918  0.043095
    C   C16  0.937402  0.111719  0.004863  -0.014157
    C   C17  0.065038  0.111808  0.992920  0.043090
    C   C18  0.937402  0.888281  0.004862  -0.014164
    C   C19  0.126672  0.000000  0.984857  0.077008
    C   C20  0.876160  0.000000  0.014863  0.151914
    Zn  Zn1  0.517738  0.500000  0.888702  0.975177
    Zn  Zn2  0.485145  0.500000  0.111480  1.002273
    H   H1   0.486366  0.807259  0.415490  0.146244
    H   H2   0.516068  0.192709  0.584425  0.138834
    H   H3   0.486367  0.192740  0.415488  0.146239
    H   H4   0.516065  0.807291  0.584426  0.138827
    C   C21  0.472441  0.392238  0.294430  0.036921
    C   C22  0.530259  0.607661  0.705598  -0.014871
    C   C23  0.472445  0.607762  0.294430  0.036845
    C   C24  0.530262  0.392339  0.705597  -0.014920
    N   N1   0.469812  0.500000  0.242089  -0.116923
    N   N2   0.533190  0.500000  0.758067  -0.121783
    C   C25  0.485874  0.608445  0.397223  0.009613
    C   C26  0.516645  0.391620  0.602799  0.078540
    C   C27  0.485872  0.391555  0.397222  0.009578
    C   C28  0.516644  0.608379  0.602799  0.078499
    C   C29  0.494123  0.499999  0.448719  0.135854
    C   C30  0.508446  0.499999  0.551283  0.045878
    C   C31  0.492657  0.717896  0.449690  -0.152238
    C   C32  0.509704  0.282121  0.550331  -0.154565
    C   C33  0.492656  0.282102  0.449689  -0.152220
    C   C34  0.509702  0.717878  0.550332  -0.154529
    H   H5   0.095101  0.690522  0.009580  0.120917
    H   H6   0.906154  0.308575  0.984498  0.117347
    H   H7   0.095100  0.309479  0.009579  0.120907
    H   H8   0.906154  0.691424  0.984499  0.117339
    H   H9   0.415262  0.893608  0.955775  0.048380
    H   H10  0.589638  0.106682  0.055006  0.054184
    H   H11  0.415262  0.106393  0.955772  0.048452
    H   H12  0.589639  0.893318  0.055007  0.054198
    O   O1   0.361181  0.629760  0.074966  -0.619367
    O   O2   0.641756  0.370272  0.925298  -0.613255
    O   O3   0.613647  0.368353  0.094918  -0.675062
    O   O4   0.389263  0.631741  0.905204  -0.648732
    O   O5   0.389263  0.368259  0.905204  -0.648776
    O   O6   0.613646  0.631646  0.094918  -0.675042
    O   O7   0.641756  0.629728  0.925297  -0.613268
    O   O8   0.361182  0.370237  0.074966  -0.619363
    C   C35  0.335446  0.671801  0.986175  0.720782
    C   C36  0.667204  0.327938  0.014083  0.726278
    C   C37  0.335447  0.328197  0.986175  0.720827
    C   C38  0.667203  0.672061  0.014083  0.726275
    C   C39  0.458148  0.272528  0.245783  0.744825
    O   O9   0.547586  0.206710  0.233480  -0.503945
    O   O10  0.340957  0.223310  0.233933  -0.599096
    H   H13  0.346836  0.136309  0.207748  0.387766
    C   C40  0.543608  0.727490  0.753919  0.801267
    O   O11  0.646050  0.770536  0.765930  -0.528842
    O   O12  0.441613  0.803702  0.763252  -0.592537
    H   H14  0.469015  0.888758  0.783802  0.373470
    C   C41  0.458159  0.727473  0.245782  0.744942
    O   O13  0.547600  0.793289  0.233484  -0.504020
    O   O14  0.340971  0.776695  0.233927  -0.599124
    H   H15  0.346854  0.863698  0.207746  0.387759
    C   C42  0.543615  0.272511  0.753919  0.801240
    O   O15  0.646058  0.229470  0.765930  -0.528813
    O   O16  0.441623  0.196295  0.763252  -0.592444
    H   H16  0.469029  0.111240  0.783802  0.373389
