# Generated by REPEAT Assigner based on pymatgen
data_DB0-m3_o4_o6_f0_nbo.sym.27
_audit_creation_date              2022-05-24
_audit_creation_method            REPEAT_Assigner
_cell_length_a                    30.937851
_cell_length_b                    31.006988
_cell_length_c                    22.339028
_cell_angle_alpha                 90.000000
_cell_angle_beta                  46.167895
_cell_angle_gamma                 90.000000
_cell_volume                      15458.716639
_symmetry_space_group_name_H-M    P1
_symmetry_Int_Tables_number       1
loop_
    _symmetry_equiv_pos_site_id
    _symmetry_equiv_pos_as_xyz
    1  x,y,z
loop_
    _atom_site_type_symbol
    _atom_site_label
    _atom_site_fract_x
    _atom_site_fract_y
    _atom_site_fract_z
    _atom_type_partial_charge
    O   O1    0.183321  0.232884  0.492926  -0.690996
    O   O2    0.816366  0.232893  0.507560  -0.691464
    O   O3    0.683321  0.732884  0.492926  -0.691006
    O   O4    0.316366  0.732893  0.507560  -0.691469
    O   O5    0.227746  0.180394  0.508872  -0.651072
    O   O6    0.771915  0.180393  0.491676  -0.651921
    O   O7    0.727746  0.680394  0.508872  -0.651066
    O   O8    0.271915  0.680393  0.491676  -0.651913
    C   C1    0.191415  0.192468  0.500718  0.688027
    C   C2    0.808267  0.192474  0.499787  0.690673
    C   C3    0.691415  0.692468  0.500718  0.688055
    C   C4    0.308267  0.692474  0.499787  0.690666
    O   O9    0.291835  0.277167  0.371224  -0.613885
    O   O10   0.707858  0.277175  0.629301  -0.613252
    O   O11   0.791835  0.777167  0.371224  -0.613881
    O   O12   0.207858  0.777175  0.629301  -0.613256
    O   O13   0.337434  0.223277  0.382478  -0.633777
    O   O14   0.662236  0.223275  0.618108  -0.633357
    O   O15   0.837434  0.723277  0.382478  -0.633770
    O   O16   0.162236  0.723275  0.618108  -0.633353
    C   C5    0.334743  0.249002  0.338433  0.594259
    C   C6    0.664949  0.249007  0.662123  0.592061
    C   C7    0.834743  0.749002  0.338433  0.594155
    C   C8    0.164949  0.749007  0.662123  0.592059
    Zn  Zn1   0.219509  0.287179  0.493494  1.293955
    Zn  Zn2   0.780157  0.287182  0.507018  1.293382
    Zn  Zn3   0.719509  0.787179  0.493494  1.293972
    Zn  Zn4   0.280157  0.787182  0.507018  1.293396
    Zn  Zn5   0.281768  0.218419  0.507265  1.290649
    Zn  Zn6   0.717864  0.218410  0.493329  1.290595
    Zn  Zn7   0.781768  0.718419  0.507265  1.290641
    Zn  Zn8   0.217864  0.718410  0.493329  1.290582
    O   O17   0.273570  0.325229  0.491830  -0.650204
    O   O18   0.726067  0.325224  0.508727  -0.649937
    O   O19   0.773570  0.825229  0.491830  -0.650221
    O   O20   0.226067  0.825224  0.508727  -0.649946
    O   O21   0.317908  0.272703  0.507876  -0.683033
    O   O22   0.681702  0.272688  0.492745  -0.683019
    O   O23   0.817908  0.772703  0.507876  -0.683030
    O   O24   0.181702  0.772688  0.492745  -0.683016
    O   O25   0.163865  0.282337  0.618272  -0.689086
    O   O26   0.835763  0.282331  0.382248  -0.688395
    O   O27   0.663865  0.782337  0.618272  -0.689089
    O   O28   0.335763  0.782331  0.382248  -0.688401
    O   O29   0.209415  0.228421  0.629554  -0.667834
    O   O30   0.790188  0.228407  0.371026  -0.667423
    O   O31   0.709415  0.728421  0.629554  -0.667833
    O   O32   0.290188  0.728407  0.371026  -0.667416
    C   C9    0.309845  0.313106  0.500099  0.680638
    C   C10   0.689771  0.313094  0.500500  0.682050
    C   C11   0.809845  0.813106  0.500099  0.680676
    C   C12   0.189771  0.813094  0.500500  0.682051
    C   C13   0.166500  0.256606  0.662361  0.757810
    C   C14   0.833105  0.256594  0.338188  0.755629
    C   C15   0.666500  0.756606  0.662361  0.757814
    C   C16   0.333105  0.756594  0.338188  0.755640
    C   C17   0.519789  0.205245  0.957307  -0.199591
    C   C18   0.479681  0.205242  0.043273  -0.200043
    C   C19   0.019789  0.705245  0.957307  -0.199828
    C   C20   0.979681  0.705242  0.043273  -0.199762
    C   C21   0.539888  0.244055  0.914732  0.484892
    C   C22   0.459879  0.244049  0.085824  0.484198
    C   C23   0.039888  0.744055  0.914732  0.485052
    C   C24   0.959879  0.744049  0.085824  0.484004
    C   C25   0.520231  0.282778  0.957364  -0.195416
    C   C26   0.479843  0.282776  0.043167  -0.195043
    C   C27   0.020231  0.782778  0.957364  -0.195537
    C   C28   0.979843  0.782776  0.043167  -0.194872
    C   C29   0.582647  0.244502  0.825608  -0.428563
    C   C30   0.417094  0.244496  0.174950  -0.427997
    C   C31   0.082647  0.744502  0.825608  -0.428598
    C   C32   0.917094  0.744496  0.174950  -0.428166
    C   C33   0.380236  0.245924  0.249675  0.223322
    C   C34   0.619483  0.245930  0.750884  0.224816
    C   C35   0.880236  0.745924  0.249675  0.223530
    C   C36   0.119483  0.745930  0.750884  0.224826
    C   C37   0.146054  0.162189  0.452221  0.116502
    C   C38   0.853644  0.162204  0.548264  0.116593
    C   C39   0.646054  0.662189  0.452221  0.116516
    C   C40   0.353644  0.662204  0.548264  0.116597
    C   C41   0.158306  0.159080  0.500465  -0.048060
    C   C42   0.841390  0.159092  0.500024  -0.050400
    C   C43   0.658306  0.659080  0.500465  -0.048096
    C   C44   0.341390  0.659092  0.500024  -0.050403
    C   C45   0.138152  0.122301  0.548883  -0.211515
    C   C46   0.861545  0.122313  0.451604  -0.209440
    C   C47   0.638152  0.622301  0.548883  -0.211493
    C   C48   0.361545  0.622313  0.451604  -0.209431
    H   H1    0.146202  0.118176  0.588528  0.160148
    H   H2    0.853491  0.118186  0.411964  0.159764
    H   H3    0.646202  0.618176  0.588528  0.160139
    H   H4    0.353491  0.618186  0.411964  0.159758
    C   C49   0.105363  0.091190  0.549395  -0.148636
    C   C50   0.894336  0.091204  0.451091  -0.150738
    C   C51   0.605363  0.591190  0.549395  -0.148649
    C   C52   0.394336  0.591204  0.451091  -0.150750
    H   H5    0.088784  0.063238  0.589008  0.148465
    H   H6    0.910912  0.063251  0.411483  0.149027
    H   H7    0.588784  0.563238  0.589008  0.148470
    H   H8    0.410912  0.563251  0.411483  0.149033
    C   C53   0.095178  0.095336  0.498153  -0.093109
    C   C54   0.904520  0.095351  0.502335  -0.092024
    C   C55   0.595178  0.595336  0.498153  -0.093093
    C   C56   0.404520  0.595351  0.502335  -0.092012
    C   C57   0.117635  0.131466  0.449420  0.138085
    C   C58   0.882064  0.131481  0.551065  0.138353
    C   C59   0.617635  0.631466  0.449420  0.138075
    C   C60   0.382064  0.631481  0.551065  0.138346
    C   C61   0.120392  0.154347  0.388602  -0.187318
    C   C62   0.879298  0.154360  0.611892  -0.187657
    C   C63   0.620392  0.654347  0.388602  -0.187331
    C   C64   0.379298  0.654360  0.611892  -0.187679
    C   C65   0.154381  0.190325  0.391224  -0.168638
    C   C66   0.845308  0.190337  0.609271  -0.167461
    C   C67   0.654381  0.690325  0.391224  -0.168631
    C   C68   0.345308  0.690337  0.609271  -0.167443
    H   H9    0.149040  0.137355  0.328131  0.089967
    H   H10   0.850649  0.137366  0.672361  0.089808
    H   H11   0.649040  0.637355  0.328131  0.089970
    H   H12   0.350649  0.637366  0.672361  0.089814
    H   H13   0.075483  0.164662  0.415968  0.086301
    H   H14   0.924204  0.164679  0.584534  0.086358
    H   H15   0.575483  0.664662  0.415968  0.086305
    H   H16   0.424204  0.664679  0.584534  0.086364
    H   H17   0.202153  0.193253  0.332372  0.076884
    H   H18   0.797534  0.193261  0.668120  0.076574
    H   H19   0.702153  0.693253  0.332372  0.076886
    H   H20   0.297534  0.693261  0.668120  0.076572
    H   H21   0.128621  0.220799  0.419470  0.087232
    H   H22   0.871064  0.220813  0.581032  0.086854
    H   H23   0.628621  0.720799  0.419470  0.087230
    H   H24   0.371064  0.720813  0.581032  0.086850
    H   H25   0.107589  0.264200  0.919464  0.152515
    H   H26   0.891946  0.263009  0.081084  0.152968
    H   H27   0.607589  0.764200  0.919464  0.152501
    H   H28   0.391946  0.763009  0.081084  0.152914
    C   C69   0.018997  0.264288  0.040522  -0.216053
    C   C70   0.980531  0.263631  0.960027  -0.212619
    C   C71   0.518997  0.764288  0.040522  -0.216017
    C   C72   0.480531  0.763631  0.960027  -0.212620
    H   H29   0.034084  0.264184  0.072031  0.157585
    H   H30   0.965451  0.263010  0.928519  0.156873
    H   H31   0.534084  0.764184  0.072031  0.157575
    H   H32   0.465451  0.763010  0.928519  0.156871
    C   C73   0.958561  0.263774  0.085794  0.347125
    C   C74   0.040970  0.263788  0.914755  0.343880
    C   C75   0.458561  0.763774  0.085794  0.347039
    C   C76   0.540970  0.763788  0.914755  0.343761
    C   C77   0.939342  0.263629  0.045544  -0.203652
    C   C78   0.060186  0.264298  0.955005  -0.200852
    C   C79   0.439342  0.763629  0.045544  -0.203541
    C   C80   0.560186  0.764298  0.955005  -0.200822
    C   C81   0.915520  0.262058  0.174736  -0.221854
    C   C82   0.084037  0.262072  0.825812  -0.220725
    C   C83   0.415520  0.762058  0.174736  -0.221800
    C   C84   0.584037  0.762072  0.825812  -0.220593
    C   C85   0.121042  0.259950  0.751149  -0.073274
    C   C86   0.878538  0.259937  0.249398  -0.072196
    C   C87   0.621042  0.759950  0.751149  -0.073341
    C   C88   0.378538  0.759937  0.249398  -0.072225
    C   C89   0.365091  0.382031  0.452490  0.114668
    C   C90   0.634572  0.382038  0.548049  0.116558
    C   C91   0.865091  0.882031  0.452490  0.114693
    C   C92   0.134572  0.882038  0.548049  0.116554
    C   C93   0.342168  0.346294  0.502260  -0.051548
    C   C94   0.657438  0.346277  0.498348  -0.053940
    C   C95   0.842168  0.846294  0.502260  -0.051588
    C   C96   0.157438  0.846277  0.498348  -0.053937
    C   C97   0.351189  0.343088  0.554961  -0.172006
    C   C98   0.648361  0.343045  0.445711  -0.171121
    C   C99   0.851189  0.843088  0.554961  -0.171987
    C   C100  0.148361  0.843045  0.445711  -0.171120
    H   H33   0.333663  0.315732  0.596117  0.156341
    H   H34   0.665842  0.315669  0.404608  0.156089
    H   H35   0.833663  0.815732  0.596117  0.156334
    H   H36   0.165842  0.815669  0.404608  0.156091
    C   C101  0.381329  0.375609  0.557059  -0.208677
    C   C102  0.618227  0.375567  0.443602  -0.208744
    C   C103  0.881329  0.875609  0.557059  -0.208689
    C   C104  0.118227  0.875567  0.443602  -0.208753
    H   H37   0.387457  0.372797  0.599019  0.161106
    H   H38   0.612058  0.372735  0.401689  0.161000
    H   H39   0.887457  0.872797  0.599019  0.161111
    H   H40   0.112058  0.872735  0.401689  0.161006
    C   C105  0.405385  0.410524  0.503440  -0.033814
    C   C106  0.594232  0.410508  0.497149  -0.032213
    C   C107  0.905385  0.910524  0.503440  -0.033803
    C   C108  0.094232  0.910508  0.497149  -0.032203
    C   C109  0.396420  0.411749  0.451404  0.099606
    C   C110  0.603248  0.411757  0.549128  0.098011
    C   C111  0.896420  0.911749  0.451404  0.099592
    C   C112  0.103248  0.911757  0.549128  0.098006
    C   C113  0.408565  0.437978  0.385619  -0.186647
    C   C114  0.591182  0.438024  0.614820  -0.184074
    C   C115  0.908565  0.937978  0.385619  -0.186666
    C   C116  0.091182  0.938024  0.614820  -0.184099
    C   C117  0.372030  0.402801  0.386469  -0.164913
    C   C118  0.627711  0.402846  0.613978  -0.167810
    C   C119  0.872030  0.902801  0.386469  -0.164901
    C   C120  0.127711  0.902846  0.613978  -0.167784
    H   H41   0.385666  0.469704  0.409037  0.096830
    H   H42   0.614114  0.469736  0.591313  0.096391
    H   H43   0.885666  0.969704  0.409037  0.096836
    H   H44   0.114114  0.969736  0.591313  0.096398
    H   H45   0.456764  0.438251  0.327342  0.090034
    H   H46   0.542995  0.438331  0.673130  0.089508
    H   H47   0.956764  0.938251  0.327342  0.090038
    H   H48   0.042995  0.938331  0.673130  0.089512
    H   H49   0.328864  0.414918  0.409942  0.077747
    H   H50   0.670908  0.414949  0.590422  0.078191
    H   H51   0.828864  0.914918  0.409942  0.077743
    H   H52   0.170908  0.914949  0.590422  0.078186
    H   H53   0.399923  0.383296  0.328815  0.084873
    H   H54   0.599827  0.383374  0.671672  0.085540
    H   H55   0.899923  0.883296  0.328815  0.084871
    H   H56   0.099827  0.883374  0.671672  0.085535
    O   O33   0.578801  0.457277  0.428673  -0.703015
    O   O34   0.420837  0.457296  0.571891  -0.703376
    O   O35   0.078801  0.957277  0.428673  -0.703004
    O   O36   0.920837  0.957296  0.571891  -0.703366
    O   O37   0.512077  0.459066  0.571728  -0.680807
    O   O38   0.487562  0.459063  0.428834  -0.681322
    O   O39   0.012077  0.959066  0.571728  -0.680803
    O   O40   0.987562  0.959063  0.428834  -0.681319
    C   C121  0.560103  0.443971  0.499194  0.716901
    C   C122  0.439529  0.443981  0.501377  0.718864
    C   C123  0.060103  0.943971  0.499194  0.716890
    C   C124  0.939529  0.943981  0.501377  0.718857
    O   O41   0.078889  0.050002  0.428754  -0.707701
    O   O42   0.920791  0.050020  0.571756  -0.706724
    O   O43   0.578889  0.550002  0.428754  -0.707696
    O   O44   0.420791  0.550020  0.571756  -0.706721
    O   O45   0.012048  0.048192  0.571803  -0.703466
    O   O46   0.987632  0.048190  0.428709  -0.702269
    O   O47   0.512048  0.548192  0.571803  -0.703453
    O   O48   0.487632  0.548190  0.428709  -0.702257
    C   C125  0.060120  0.063241  0.499405  0.742586
    C   C126  0.939566  0.063251  0.501098  0.740407
    C   C127  0.560120  0.563241  0.499405  0.742573
    C   C128  0.439566  0.563251  0.501098  0.740400
    Zn  Zn9   0.045208  0.003709  0.406488  1.309885
    Zn  Zn10  0.954451  0.003723  0.594049  1.309715
    Zn  Zn11  0.545208  0.503709  0.406488  1.309882
    Zn  Zn12  0.454451  0.503723  0.594049  1.309711
    N   N1    0.456408  0.165513  0.088258  0.690098
    O   O49   0.456054  0.157882  0.145852  -0.333333
    O   O50   0.436588  0.136259  0.070537  -0.323970
    N   N2    0.542751  0.165503  0.912349  0.689411
    O   O51   0.543039  0.158071  0.854766  -0.333134
    O   O52   0.562345  0.136041  0.930086  -0.323970
    N   N3    0.956408  0.665513  0.088258  0.690069
    O   O53   0.956054  0.657882  0.145852  -0.333328
    O   O54   0.936588  0.636259  0.070537  -0.323980
    N   N4    0.042751  0.665503  0.912349  0.689466
    O   O55   0.043039  0.658071  0.854766  -0.333143
    O   O56   0.062345  0.636041  0.930086  -0.323976
    N   N5    0.539561  0.322570  0.912940  0.679917
    O   O57   0.500424  0.351847  0.935997  -0.318997
    O   O58   0.596387  0.330864  0.852504  -0.333891
    N   N6    0.460822  0.322553  0.087565  0.681792
    O   O59   0.500188  0.351619  0.064491  -0.319411
    O   O60   0.404062  0.331059  0.147987  -0.334479
    N   N7    0.039561  0.822570  0.912940  0.679926
    O   O61   0.000424  0.851847  0.935997  -0.318996
    O   O62   0.096387  0.830864  0.852504  -0.333892
    N   N8    0.960822  0.822553  0.087565  0.681765
    O   O63   0.000188  0.851619  0.064491  -0.319415
    O   O64   0.904062  0.831059  0.147987  -0.334462
