# Generated by REPEAT Assigner based on pymatgen
data_DB0-m3_o15_o20_f0_nbo.sym.14
_audit_creation_date              2022-05-24
_audit_creation_method            REPEAT_Assigner
_cell_length_a                    21.941727
_cell_length_b                    21.941896
_cell_length_c                    29.067325
_cell_angle_alpha                 90.000000
_cell_angle_beta                  90.000000
_cell_angle_gamma                 90.000000
_cell_volume                      13994.262134
_symmetry_space_group_name_H-M    P1
_symmetry_Int_Tables_number       1
loop_
    _symmetry_equiv_pos_site_id
    _symmetry_equiv_pos_as_xyz
    1  x,y,z
loop_
    _atom_site_type_symbol
    _atom_site_label
    _atom_site_fract_x
    _atom_site_fract_y
    _atom_site_fract_z
    _atom_type_partial_charge
    O   O1    0.553681  0.090946  0.497976  -0.649656
    O   O2    0.909081  0.553838  0.499222  -0.648980
    O   O3    0.446097  0.908978  0.499637  -0.649065
    O   O4    0.091030  0.446191  0.498366  -0.648720
    O   O5    0.551025  0.909354  0.500742  -0.663454
    O   O6    0.909412  0.448911  0.500021  -0.662581
    O   O7    0.448836  0.090587  0.501692  -0.664120
    O   O8    0.090659  0.551016  0.502395  -0.664426
    O   O9    0.051029  0.590645  0.999253  -0.663497
    O   O10   0.409415  0.051088  0.999975  -0.662561
    O   O11   0.948839  0.409412  0.998302  -0.664102
    O   O12   0.590662  0.948982  0.997598  -0.664302
    O   O13   0.053684  0.409053  0.002019  -0.649713
    O   O14   0.409084  0.946160  0.000773  -0.648857
    O   O15   0.946101  0.591021  0.000356  -0.649032
    O   O16   0.591033  0.053807  0.001628  -0.648599
    C   C1    0.501176  0.119568  0.499811  0.646170
    C   C2    0.880412  0.501300  0.499521  0.640660
    C   C3    0.498646  0.880335  0.500281  0.642781
    C   C4    0.119644  0.498678  0.500548  0.644509
    C   C5    0.998650  0.619664  0.999713  0.642829
    C   C6    0.380415  0.998698  0.000475  0.640680
    C   C7    0.001179  0.380431  0.000184  0.646273
    C   C8    0.619646  0.001320  0.999445  0.644452
    O   O17   0.554078  0.999666  0.431521  -0.636713
    O   O18   0.000612  0.551469  0.431527  -0.648553
    O   O19   0.448843  0.999778  0.431375  -0.647412
    O   O20   0.000465  0.446235  0.431338  -0.636900
    O   O21   0.550915  0.002973  0.568633  -0.649537
    O   O22   0.002302  0.448569  0.568475  -0.648919
    O   O23   0.445796  0.997479  0.568500  -0.638634
    O   O24   0.996834  0.553690  0.568642  -0.638516
    O   O25   0.050920  0.497026  0.931362  -0.649564
    O   O26   0.502303  0.051430  0.931520  -0.648890
    O   O27   0.945800  0.502519  0.931494  -0.638621
    O   O28   0.496835  0.946308  0.931352  -0.638480
    O   O29   0.054080  0.500333  0.068474  -0.636690
    O   O30   0.500617  0.948528  0.068467  -0.648422
    O   O31   0.948845  0.500221  0.068619  -0.647371
    O   O32   0.500469  0.053763  0.068657  -0.636783
    C   C9    0.501525  0.999658  0.410086  0.706401
    C   C10   0.000693  0.498908  0.410070  0.707250
    C   C11   0.498290  0.000349  0.589922  0.711240
    C   C12   0.999469  0.501076  0.589913  0.709440
    C   C13   0.998295  0.499650  0.910073  0.711372
    C   C14   0.499470  0.998923  0.910081  0.709551
    C   C15   0.001526  0.500341  0.089909  0.706217
    C   C16   0.500697  0.001089  0.089924  0.706738
    Zn  Zn1   0.568888  0.999945  0.500305  1.276208
    Zn  Zn2   0.000139  0.568970  0.499962  1.277320
    Zn  Zn3   0.430930  0.000036  0.499750  1.276620
    Zn  Zn4   0.999999  0.431009  0.500070  1.275598
    Zn  Zn5   0.068891  0.500054  0.999691  1.276253
    Zn  Zn6   0.500002  0.068989  0.999926  1.275506
    Zn  Zn7   0.930933  0.499963  0.000243  1.276564
    Zn  Zn8   0.500142  0.931028  0.000032  1.277122
    C   C17   0.501625  0.999723  0.360745  -0.074671
    C   C18   0.000986  0.499087  0.360731  -0.072803
    C   C19   0.498211  0.000297  0.639262  -0.076507
    C   C20   0.999145  0.500896  0.639253  -0.072213
    C   C21   0.998217  0.499701  0.860733  -0.076779
    C   C22   0.499144  0.999104  0.860742  -0.072458
    C   C23   0.001625  0.500276  0.139249  -0.074470
    C   C24   0.500991  0.000909  0.139264  -0.072367
    C   C25   0.501626  0.999877  0.319298  -0.023173
    C   C26   0.001202  0.499306  0.319284  -0.026500
    C   C27   0.498252  0.000146  0.680709  -0.022222
    C   C28   0.998880  0.500673  0.680699  -0.027584
    C   C29   0.998258  0.499853  0.819286  -0.021867
    C   C30   0.498877  0.999327  0.819295  -0.027353
    C   C31   0.001625  0.500121  0.180697  -0.023381
    C   C32   0.501206  0.000690  0.180710  -0.026834
    C   C33   0.501543  0.000137  0.270729  0.023925
    C   C34   0.001410  0.499606  0.270716  0.027611
    C   C35   0.498402  0.999885  0.729277  0.023473
    C   C36   0.998600  0.500371  0.729267  0.028772
    C   C37   0.998408  0.500115  0.770718  0.023161
    C   C38   0.498596  0.999629  0.770728  0.028545
    C   C39   0.001540  0.499860  0.229265  0.024160
    C   C40   0.501414  0.000391  0.229278  0.027869
    H   H1    0.655674  0.198575  0.604197  0.069774
    H   H2    0.801257  0.653525  0.605802  0.068787
    H   H3    0.346210  0.802393  0.606882  0.069611
    H   H4    0.197393  0.343953  0.605275  0.070667
    H   H5    0.651631  0.802217  0.394215  0.069657
    H   H6    0.803451  0.348604  0.392729  0.070067
    H   H7    0.346294  0.196394  0.394805  0.071032
    H   H8    0.197678  0.653856  0.396324  0.069791
    H   H9    0.151628  0.697783  0.105784  0.069628
    H   H10   0.303455  0.151384  0.107276  0.070027
    H   H11   0.846290  0.303605  0.105185  0.070944
    H   H12   0.697682  0.846133  0.103661  0.069813
    H   H13   0.155685  0.301422  0.895805  0.069650
    H   H14   0.301260  0.846482  0.894187  0.068741
    H   H15   0.846221  0.697603  0.893105  0.069584
    H   H16   0.697395  0.156054  0.894726  0.070752
    C   C41   0.421544  0.189137  0.440858  -0.247376
    C   C42   0.810663  0.423089  0.439489  -0.248590
    C   C43   0.577055  0.809946  0.440846  -0.253634
    C   C44   0.189882  0.578485  0.442215  -0.252012
    C   C45   0.420735  0.810097  0.560203  -0.255425
    C   C46   0.809490  0.579102  0.559080  -0.255795
    C   C47   0.580416  0.190310  0.558246  -0.253817
    C   C48   0.189676  0.419292  0.559348  -0.252350
    C   C49   0.920742  0.689900  0.939788  -0.255519
    C   C50   0.309493  0.920901  0.940913  -0.256089
    C   C51   0.080423  0.309688  0.941752  -0.254146
    C   C52   0.689679  0.080711  0.940649  -0.251984
    C   C53   0.921544  0.310862  0.059135  -0.247526
    C   C54   0.310667  0.076904  0.060511  -0.248626
    C   C55   0.077055  0.690054  0.059150  -0.253726
    C   C56   0.689886  0.921509  0.057775  -0.251996
    C   C57   0.376306  0.220323  0.418109  0.008956
    C   C58   0.779579  0.377986  0.416518  0.008607
    C   C59   0.622172  0.778599  0.418094  0.013920
    C   C60   0.221341  0.623756  0.419718  0.014225
    C   C61   0.375836  0.778703  0.583162  0.013437
    C   C62   0.777840  0.623957  0.581886  0.015419
    C   C63   0.625460  0.222049  0.580779  0.015458
    C   C64   0.221149  0.374219  0.582058  0.010821
    C   C65   0.875845  0.721294  0.916827  0.013683
    C   C66   0.277843  0.876048  0.918105  0.015658
    C   C67   0.125469  0.277948  0.919222  0.015897
    C   C68   0.721152  0.125787  0.917941  0.010474
    C   C69   0.876304  0.279676  0.081883  0.009257
    C   C70   0.279582  0.122004  0.083485  0.008710
    C   C71   0.122171  0.721400  0.081903  0.013965
    C   C72   0.721345  0.876235  0.080269  0.014080
    C   C73   0.368513  0.281458  0.425674  -0.033743
    C   C74   0.718658  0.369441  0.424560  -0.029845
    C   C75   0.630609  0.717740  0.426451  -0.035090
    C   C76   0.282408  0.631455  0.427639  -0.036143
    C   C77   0.367810  0.717695  0.575201  -0.034086
    C   C78   0.716928  0.632005  0.573534  -0.031470
    C   C79   0.632800  0.283159  0.572853  -0.036089
    C   C80   0.282362  0.366914  0.574565  -0.031778
    C   C81   0.867818  0.782302  0.924787  -0.034596
    C   C82   0.216931  0.867998  0.926456  -0.031811
    C   C83   0.132809  0.216839  0.927149  -0.036297
    C   C84   0.782365  0.133091  0.925434  -0.031700
    C   C85   0.868512  0.218541  0.074317  -0.034154
    C   C86   0.218661  0.130550  0.075444  -0.030031
    C   C87   0.130609  0.782259  0.073546  -0.034975
    C   C88   0.782412  0.868537  0.072346  -0.035863
    C   C89   0.408747  0.312354  0.453274  -0.111634
    C   C90   0.687775  0.408983  0.452730  -0.113808
    C   C91   0.590971  0.687172  0.454734  -0.112656
    C   C92   0.312978  0.591113  0.455351  -0.110110
    C   C93   0.407659  0.687070  0.547118  -0.111376
    C   C94   0.686627  0.592206  0.545217  -0.116305
    C   C95   0.592318  0.313478  0.545099  -0.114796
    C   C96   0.313016  0.407439  0.547054  -0.113506
    C   C97   0.907665  0.812928  0.952871  -0.110754
    C   C98   0.186630  0.907795  0.954776  -0.115825
    C   C99   0.092325  0.186521  0.954901  -0.114676
    C   C100  0.813019  0.092563  0.952943  -0.113337
    C   C101  0.908747  0.187644  0.046719  -0.111354
    C   C102  0.187779  0.091011  0.047271  -0.113793
    C   C103  0.090972  0.812827  0.045261  -0.112813
    C   C104  0.812981  0.908881  0.044637  -0.110509
    C   C105  0.456399  0.281850  0.474881  0.046346
    C   C106  0.718075  0.456742  0.474378  0.043886
    C   C107  0.543242  0.717733  0.476215  0.047385
    C   C108  0.282205  0.543459  0.476742  0.037205
    C   C109  0.455201  0.717709  0.525468  0.048520
    C   C110  0.717508  0.544715  0.523695  0.046425
    C   C111  0.544870  0.282414  0.523686  0.049490
    C   C112  0.282203  0.454911  0.525472  0.044780
    C   C113  0.955205  0.782289  0.974524  0.047685
    C   C114  0.217511  0.955285  0.976299  0.045896
    C   C115  0.044876  0.217585  0.976312  0.048895
    C   C116  0.782206  0.045089  0.974523  0.044648
    C   C117  0.956401  0.218148  0.025113  0.046003
    C   C118  0.218078  0.043253  0.025621  0.043640
    C   C119  0.043244  0.782266  0.023779  0.046710
    C   C120  0.782208  0.956537  0.023248  0.037366
    C   C121  0.459610  0.218870  0.471982  0.147080
    C   C122  0.781022  0.460317  0.471234  0.149751
    C   C123  0.539728  0.780647  0.472710  0.152414
    C   C124  0.219259  0.540309  0.473458  0.153813
    C   C125  0.458271  0.780687  0.528541  0.149557
    C   C126  0.780448  0.541647  0.527167  0.150010
    C   C127  0.542100  0.219449  0.526977  0.144356
    C   C128  0.219197  0.457685  0.528341  0.146200
    C   C129  0.958277  0.719311  0.971451  0.150000
    C   C130  0.280451  0.958353  0.972828  0.150388
    C   C131  0.042105  0.280550  0.973020  0.144788
    C   C132  0.719200  0.042316  0.971654  0.146071
    C   C133  0.959611  0.281128  0.028012  0.147264
    C   C134  0.281025  0.039679  0.028764  0.149919
    C   C135  0.039730  0.719352  0.027284  0.152937
    C   C136  0.719262  0.959687  0.026533  0.153920
    C   C137  0.500517  0.313789  0.499192  -0.126942
    C   C138  0.686052  0.500596  0.498960  -0.127575
    C   C139  0.499337  0.685985  0.500954  -0.133219
    C   C140  0.313858  0.499267  0.501196  -0.118203
    C   C141  0.999340  0.814014  0.999039  -0.132225
    C   C142  0.186054  0.999402  0.001036  -0.127004
    C   C143  0.000521  0.186209  0.000804  -0.126324
    C   C144  0.813861  0.000731  0.998797  -0.118115
    C   C145  0.500947  0.186944  0.499598  -0.105665
    C   C146  0.812992  0.501096  0.499294  -0.107257
    C   C147  0.498879  0.812919  0.500509  -0.109398
    C   C148  0.187016  0.498897  0.500793  -0.107337
    C   C149  0.998882  0.687080  0.999485  -0.109782
    C   C150  0.312995  0.998902  0.000702  -0.107527
    C   C151  0.000950  0.313055  0.000397  -0.105901
    C   C152  0.687019  0.001100  0.999200  -0.107493
    H   H17   0.426264  0.141531  0.432577  0.177803
    H   H18   0.858097  0.428434  0.430866  0.179960
    H   H19   0.571785  0.857301  0.431958  0.180747
    H   H20   0.142358  0.573837  0.433646  0.179001
    H   H21   0.425669  0.857591  0.568769  0.183137
    H   H22   0.856874  0.574130  0.567973  0.182830
    H   H23   0.576055  0.142754  0.566799  0.181544
    H   H24   0.142007  0.423610  0.567550  0.181234
    H   H25   0.925677  0.642406  0.931223  0.183110
    H   H26   0.356877  0.925873  0.932021  0.182905
    H   H27   0.076063  0.357244  0.933198  0.181587
    H   H28   0.642010  0.076393  0.932446  0.181128
    H   H29   0.926263  0.358468  0.067416  0.177839
    H   H30   0.358101  0.071558  0.069133  0.179993
    H   H31   0.071785  0.642698  0.068038  0.180772
    H   H32   0.642362  0.926156  0.066345  0.179026
    H   H33   0.400765  0.360500  0.457612  0.153608
    H   H34   0.639824  0.400344  0.457493  0.154099
    H   H35   0.599516  0.639245  0.459709  0.154270
    H   H36   0.361091  0.599027  0.459949  0.153977
    H   H37   0.399430  0.639035  0.542428  0.153754
    H   H38   0.638644  0.600438  0.540248  0.155555
    H   H39   0.599960  0.361632  0.540481  0.155073
    H   H40   0.361230  0.399828  0.542767  0.153874
    H   H41   0.899436  0.860962  0.957561  0.153630
    H   H42   0.138647  0.899563  0.959745  0.155499
    H   H43   0.099967  0.138366  0.959520  0.155147
    H   H44   0.861233  0.100174  0.957230  0.153709
    H   H45   0.900767  0.139498  0.042381  0.153664
    H   H46   0.139827  0.099651  0.042509  0.154251
    H   H47   0.099518  0.860754  0.040286  0.154372
    H   H48   0.861095  0.900969  0.040038  0.154127
    O   O33   0.590702  0.500046  0.538660  -0.663736
    O   O34   0.499719  0.590671  0.540787  -0.651557
    O   O35   0.409100  0.501702  0.540905  -0.652151
    O   O36   0.498019  0.409065  0.538782  -0.664968
    O   O37   0.590654  0.500206  0.459239  -0.652006
    O   O38   0.502313  0.408971  0.459383  -0.653554
    O   O39   0.409068  0.497283  0.461511  -0.665817
    O   O40   0.499434  0.590562  0.461362  -0.664702
    O   O41   0.090656  0.999791  0.040756  -0.652244
    O   O42   0.002316  0.091026  0.040612  -0.653796
    O   O43   0.909070  0.002715  0.038483  -0.666137
    O   O44   0.999435  0.909436  0.038632  -0.664591
    O   O45   0.090706  0.999954  0.961335  -0.663818
    O   O46   0.999722  0.909328  0.959207  -0.651335
    O   O47   0.909104  0.998298  0.959088  -0.652049
    O   O48   0.998023  0.090934  0.961213  -0.664801
    C   C153  0.619159  0.500233  0.498935  0.654492
    C   C154  0.499488  0.619095  0.501056  0.655550
    C   C155  0.380666  0.499352  0.501225  0.652794
    C   C156  0.500216  0.380599  0.499098  0.655930
    C   C157  0.119162  0.999765  0.001061  0.654300
    C   C158  0.000219  0.119400  0.000898  0.655669
    C   C159  0.880669  0.000647  0.998768  0.652875
    C   C160  0.999490  0.880904  0.998937  0.654944
    Zn  Zn9   0.500152  0.499622  0.552212  1.277635
    Zn  Zn10  0.499575  0.499977  0.447945  1.280120
    Zn  Zn11  0.999577  0.000021  0.052050  1.280635
    Zn  Zn12  0.000156  0.000377  0.947782  1.277463
    Br  Br1   0.303646  0.324331  0.396484  -0.062046
    Br  Br2   0.675985  0.304602  0.395169  -0.063196
    Br  Br3   0.695433  0.674693  0.397351  -0.063431
    Br  Br4   0.325663  0.696346  0.398802  -0.062782
    Br  Br5   0.303266  0.674563  0.604581  -0.063045
    Br  Br6   0.673444  0.696482  0.602703  -0.064547
    Br  Br7   0.697388  0.326811  0.601739  -0.062900
    Br  Br8   0.325655  0.302293  0.603713  -0.063072
    Br  Br9   0.803277  0.825434  0.895403  -0.062986
    Br  Br10  0.173448  0.803525  0.897283  -0.064466
    Br  Br11  0.197400  0.173187  0.898266  -0.062880
    Br  Br12  0.825659  0.197714  0.896290  -0.063057
    Br  Br13  0.803643  0.175668  0.103505  -0.061904
    Br  Br14  0.175989  0.195385  0.104839  -0.063105
    Br  Br15  0.195431  0.825307  0.102647  -0.063456
    Br  Br16  0.825668  0.803642  0.101179  -0.062857
