# Generated by REPEAT Assigner based on pymatgen
data_DB0-m15_o26_o77_f0_fsc
_audit_creation_date              2022-05-24
_audit_creation_method            REPEAT_Assigner
_cell_length_a                    6.700068
_cell_length_b                    14.766042
_cell_length_c                    16.105948
_cell_angle_alpha                 90.347383
_cell_angle_beta                  85.239594
_cell_angle_gamma                 98.133512
_cell_volume                      1571.922046
_symmetry_space_group_name_H-M    P1
_symmetry_Int_Tables_number       1
loop_
    _symmetry_equiv_pos_site_id
    _symmetry_equiv_pos_as_xyz
    1  x,y,z
loop_
    _atom_site_type_symbol
    _atom_site_label
    _atom_site_fract_x
    _atom_site_fract_y
    _atom_site_fract_z
    _atom_type_partial_charge
    Co  Co1  0.023378  0.997880  0.915185  0.827634
    Co  Co2  0.972930  0.001891  0.080986  0.837310
    O   O1   0.779165  0.900264  0.925961  -0.561171
    O   O2   0.262240  0.095317  0.929079  -0.579596
    O   O3   0.843061  0.096179  0.920829  -0.654360
    O   O4   0.198971  0.900743  0.933316  -0.684486
    O   O5   0.215303  0.100388  0.070580  -0.584006
    O   O6   0.734586  0.904615  0.067523  -0.572807
    O   O7   0.794810  0.098203  0.062389  -0.683661
    O   O8   0.153928  0.903254  0.074965  -0.661998
    C   C1   0.677108  0.871578  0.996138  0.705867
    C   C2   0.317423  0.129368  0.000604  0.721674
    C   C3   0.758887  0.127949  0.989111  0.806561
    C   C4   0.234859  0.870475  0.006271  0.868735
    N   N1   0.053720  0.994534  0.781410  0.039694
    C   C5   0.893124  0.957445  0.741596  -0.072153
    C   C6   0.897764  0.961278  0.655992  -0.147980
    C   C7   0.068699  0.003652  0.610569  0.205238
    C   C8   0.233480  0.039384  0.652306  -0.194581
    C   C9   0.223437  0.034719  0.738206  -0.037978
    C   C10  0.098451  0.038541  0.340184  -0.138552
    C   C11  0.103107  0.042367  0.254580  -0.090011
    C   C12  0.772831  0.965053  0.257962  -0.035001
    C   C13  0.762771  0.960396  0.343862  -0.195474
    C   C14  0.927528  0.996149  0.385603  0.204298
    C   C15  0.078504  0.012853  0.519501  -0.212579
    C   C16  0.917716  0.986951  0.476672  -0.206804
    N   N2   0.942539  0.005254  0.214761  0.039174
    H   H1   0.757292  0.926148  0.777222  0.127013
    H   H2   0.238933  0.073676  0.218958  0.141336
    H   H3   0.645659  0.934602  0.225272  0.125625
    H   H4   0.775300  0.957427  0.508506  0.144333
    H   H5   0.368955  0.072867  0.617882  0.113870
    H   H6   0.230254  0.068243  0.370041  0.104535
    H   H7   0.350631  0.065151  0.770892  0.130568
    H   H8   0.220922  0.042373  0.487666  0.148625
    H   H9   0.765939  0.931595  0.626139  0.110388
    H   H10  0.627306  0.926898  0.378283  0.115706
    C   C17  0.518465  0.377406  0.994518  0.028514
    C   C18  0.390018  0.295834  0.007404  0.225106
    C   C19  0.186135  0.296229  0.026838  -0.293298
    C   C20  0.108856  0.377788  0.033208  -0.246518
    C   C21  0.235387  0.459445  0.020433  0.294066
    C   C22  0.440928  0.459937  0.002039  0.011832
    C   C23  0.155213  0.540660  0.026372  -0.445827
    C   C24  0.280135  0.622976  0.015317  0.258589
    C   C25  0.484839  0.623886  0.999167  0.178114
    C   C26  0.565361  0.543177  0.992362  -0.327224
    C   C27  0.201094  0.704373  0.020037  -0.258936
    C   C28  0.327050  0.786883  0.009934  -0.078439
    C   C29  0.533776  0.787488  0.996680  -0.057101
    C   C30  0.611170  0.705844  0.990555  -0.242697
    C   C31  0.721576  0.374699  0.972508  -0.118337
    C   C32  0.795146  0.292326  0.968268  -0.214961
    C   C33  0.668094  0.211570  0.984316  0.014093
    C   C34  0.463178  0.212961  0.000381  -0.222227
    H   H11  0.087447  0.232191  0.038142  0.220032
    H   H12  0.948930  0.377734  0.049092  0.161431
    H   H13  0.039339  0.703578  0.030242  0.153314
    H   H14  0.772813  0.706204  0.980453  0.145948
    H   H15  0.726719  0.547950  0.980314  0.161391
    H   H16  0.994163  0.539659  0.039908  0.166567
    H   H17  0.827341  0.435519  0.958449  0.116104
    H   H18  0.954839  0.291308  0.952934  0.165476
