# Generated by REPEAT Assigner based on pymatgen
data_DB0-m3_o16_o27_f0_pcu.sym.97
_audit_creation_date              2022-05-24
_audit_creation_method            REPEAT_Assigner
_cell_length_a                    12.589412
_cell_length_b                    13.732337
_cell_length_c                    19.386913
_cell_angle_alpha                 89.999263
_cell_angle_beta                  102.165178
_cell_angle_gamma                 86.643151
_cell_volume                      3270.501285
_symmetry_space_group_name_H-M    P1
_symmetry_Int_Tables_number       1
loop_
    _symmetry_equiv_pos_site_id
    _symmetry_equiv_pos_as_xyz
    1  x,y,z
loop_
    _atom_site_type_symbol
    _atom_site_label
    _atom_site_fract_x
    _atom_site_fract_y
    _atom_site_fract_z
    _atom_type_partial_charge
    O   O1   0.374531  0.612043  0.496714  -0.616183
    O   O2   0.555997  0.642610  0.521529  -0.648515
    C   C1   0.452545  0.673338  0.508688  0.730622
    O   O3   0.416848  0.461189  0.599570  -0.668168
    O   O4   0.599073  0.491145  0.622269  -0.570521
    C   C2   0.509657  0.473653  0.643457  0.679486
    Zn  Zn1  0.382211  0.464442  0.492636  1.023840
    Zn  Zn2  0.622303  0.504305  0.522506  1.015850
    O   O5   0.448270  0.326016  0.495160  -0.627637
    O   O6   0.630127  0.356736  0.517386  -0.721019
    O   O7   0.405827  0.476469  0.392852  -0.664902
    O   O8   0.586558  0.509999  0.415597  -0.631237
    C   C3   0.551470  0.296483  0.505617  0.749791
    C   C4   0.494677  0.495405  0.371400  0.772486
    C   C5   0.420394  0.456237  0.744557  -0.178094
    H   H1   0.344943  0.441809  0.708749  0.112552
    C   C6   0.422771  0.458879  0.815963  0.105680
    H   H2   0.348792  0.445582  0.833349  0.039005
    C   C7   0.517304  0.478218  0.863904  -0.593044
    C   C8   0.610451  0.494889  0.838460  0.674839
    C   C9   0.607657  0.490643  0.766933  -0.363214
    H   H3   0.680933  0.503578  0.748536  0.106690
    C   C10  0.512767  0.472358  0.719570  0.050440
    N   N1   0.607178  0.489614  0.989021  -0.222875
    N   N2   0.603966  0.494736  0.056611  -0.413290
    C   C11  0.508560  0.492856  0.077210  0.999251
    N   N3   0.416612  0.483841  0.028205  -0.355105
    N   N4   0.419876  0.478791  0.960544  -0.348870
    C   C12  0.515184  0.482210  0.939840  0.865800
    C   C13  0.413966  0.466255  0.174088  -0.112011
    H   H4   0.347285  0.438844  0.136003  0.048355
    C   C14  0.408588  0.465013  0.244524  0.369873
    C   C15  0.493773  0.498344  0.295117  -0.137294
    C   C16  0.582666  0.532699  0.273305  -0.325943
    H   H5   0.649646  0.559922  0.311244  0.118852
    C   C17  0.587915  0.534108  0.202907  0.544304
    C   C18  0.504148  0.498151  0.152604  -0.555352
    C   C19  0.697184  0.065861  0.467835  -0.222608
    H   H6   0.732863  0.215075  0.472164  0.112494
    H   H7   0.714210  0.883540  0.435336  0.153018
    H   H8   0.770462  0.043917  0.449752  0.100451
    C   C20  0.579990  0.192127  0.499689  -0.060069
    C   C21  0.325443  0.807596  0.533410  0.363386
    C   C22  0.302925  0.903042  0.548384  -0.278985
    C   C23  0.371701  0.973473  0.540432  -0.118795
    C   C24  0.463584  0.951099  0.513119  -0.046112
    C   C25  0.488336  0.853404  0.498539  0.197857
    C   C26  0.531605  0.024128  0.500630  0.087352
    C   C27  0.624900  0.997494  0.476600  0.224622
    C   C28  0.645190  0.902714  0.458582  -0.274913
    C   C29  0.576406  0.832094  0.467280  -0.181147
    C   C30  0.508376  0.123576  0.509714  -0.176274
    C   C31  0.676162  0.162608  0.480772  -0.099814
    C   C32  0.421947  0.779665  0.512401  -0.283662
    H   H9   0.434616  0.151622  0.523785  0.093651
    H   H10  0.348515  0.045122  0.556250  0.150307
    H   H11  0.230355  0.923348  0.567794  0.113679
    H   H12  0.592926  0.761294  0.446828  0.141958
    C   C33  0.081442  0.354871  0.404660  -0.219114
    H   H13  0.245812  0.340665  0.393448  0.146080
    H   H14  0.875087  0.327467  0.379766  0.142880
    H   H15  0.054455  0.304222  0.362826  0.129515
    N   N5   0.223317  0.439092  0.472909  -0.059874
    C   C34  0.810070  0.590448  0.595713  0.046913
    C   C35  0.917254  0.609266  0.619612  -0.114197
    C   C36  0.995829  0.566886  0.587919  -0.074257
    C   C37  0.966675  0.505911  0.530700  0.023600
    C   C38  0.856958  0.486227  0.509554  0.179697
    C   C39  0.043551  0.463000  0.494626  -0.010125
    C   C40  0.008787  0.398908  0.440602  0.243237
    C   C41  0.901491  0.377925  0.421831  -0.225313
    C   C42  0.826484  0.421505  0.455547  -0.143229
    C   C43  0.154043  0.482352  0.509685  -0.036696
    C   C44  0.188883  0.375502  0.421640  -0.037662
    N   N6   0.780628  0.529037  0.541960  -0.166236
    H   H16  0.187804  0.532500  0.549769  0.121118
    H   H17  0.749372  0.623702  0.621676  0.112871
    H   H18  0.078323  0.583506  0.610085  0.122331
    H   H19  0.940018  0.657247  0.663791  0.101453
    H   H20  0.743843  0.402869  0.438658  0.191738
    N   N7   0.249860  0.739660  0.542720  -0.520424
    C   C45  0.152713  0.751775  0.490541  0.485954
    C   C46  0.053765  0.766104  0.510226  -0.315128
    C   C47  0.958784  0.776217  0.459624  -0.050846
    C   C48  0.962025  0.773156  0.389087  -0.168276
    C   C49  0.060518  0.759817  0.369090  -0.090697
    C   C50  0.155722  0.749092  0.419598  -0.292838
    H   H21  0.233881  0.744044  0.592554  0.258051
    H   H22  0.049634  0.769738  0.565284  0.113481
    H   H23  0.881705  0.786298  0.475487  0.109412
    H   H24  0.887371  0.781175  0.349540  0.080331
    H   H25  0.063122  0.757214  0.313730  0.125632
    H   H26  0.231991  0.737299  0.402830  0.136873
    N   N8   0.709404  0.515451  0.884175  -0.866192
    C   C51  0.737158  0.613252  0.879120  0.655718
    C   C52  0.843689  0.632883  0.879168  -0.382085
    C   C53  0.872061  0.727822  0.874912  -0.019418
    C   C54  0.794505  0.803771  0.871109  -0.225686
    C   C55  0.688541  0.784819  0.871949  -0.045269
    C   C56  0.659716  0.689980  0.876125  -0.347315
    H   H27  0.771964  0.467260  0.877383  0.352237
    H   H28  0.905750  0.574234  0.882388  0.135429
    H   H29  0.955362  0.742683  0.874682  0.098180
    H   H30  0.816891  0.878180  0.867900  0.114237
    H   H31  0.627897  0.844482  0.869645  0.104380
    H   H32  0.576461  0.677446  0.878017  0.143724
    N   N9   0.315882  0.428801  0.263435  -0.574662
    C   C57  0.307628  0.327422  0.252203  0.555673
    C   C58  0.208037  0.291903  0.222159  -0.324111
    C   C59  0.198769  0.193196  0.211641  -0.048686
    C   C60  0.288598  0.129311  0.231533  -0.222665
    C   C61  0.387711  0.164087  0.262367  -0.025558
    C   C62  0.397424  0.262765  0.272935  -0.335790
    H   H33  0.245816  0.467565  0.238695  0.275063
    H   H34  0.136562  0.340915  0.206501  0.115548
    H   H35  0.120826  0.165879  0.187866  0.104170
    H   H36  0.281177  0.051925  0.223375  0.114336
    H   H37  0.457955  0.113843  0.278629  0.102709
    H   H38  0.475609  0.287896  0.298464  0.133949
    N   N10  0.680703  0.570182  0.183894  -0.680417
    C   C63  0.679147  0.673280  0.178796  0.572169
    C   C64  0.776152  0.718832  0.196469  -0.364578
    C   C65  0.777458  0.818786  0.190629  0.042831
    C   C66  0.681950  0.874105  0.166810  -0.255890
    C   C67  0.585108  0.829340  0.148409  -0.018727
    C   C68  0.583302  0.729349  0.154034  -0.354654
    H   H39  0.751746  0.542084  0.215837  0.298584
    H   H40  0.852063  0.676560  0.214862  0.134828
    H   H41  0.853637  0.853762  0.204695  0.081670
    H   H42  0.683054  0.952465  0.162170  0.114035
    H   H43  0.510247  0.872700  0.129089  0.103358
    H   H44  0.505994  0.697060  0.137757  0.141783
