data_DB0-m29_o96_o470_f0_pts.sym.49_repeat
_audit_creation_date              2024-02-24
_audit_creation_method            'Materials Studio'
_symmetry_space_group_name_H-M    'P1'
_symmetry_Int_Tables_number       1
_symmetry_cell_setting            triclinic
loop_
_symmetry_equiv_pos_as_xyz
  x,y,z
_cell_length_a                    17.3126
_cell_length_b                    12.2991
_cell_length_c                    18.9873
_cell_angle_alpha                 77.9581
_cell_angle_beta                  90.6129
_cell_angle_gamma                 114.4734
loop_
_atom_site_label
_atom_site_type_symbol
_atom_site_fract_x
_atom_site_fract_y
_atom_site_fract_z
_atom_site_U_iso_or_equiv
_atom_site_adp_type
_atom_site_occupancy
C1     C     0.21484   0.99047   0.11580   0.00000  Uiso   1.00
C2     C     0.15755   0.95689   0.17339   0.00000  Uiso   1.00
C3     C     0.08270   0.95478   0.14676   0.00000  Uiso   1.00
N1     N     0.09156   0.98207   0.07384   0.00000  Uiso   1.00
C4     C     0.17251   0.00341   0.05463   0.00000  Uiso   1.00
C5     C     0.01400   0.93735   0.18708   0.00000  Uiso   1.00
C6     C     0.93859   0.95120   0.15798   0.00000  Uiso   1.00
C7     C     0.88647   0.98512   0.19394   0.00000  Uiso   1.00
C8     C     0.82112   0.98101   0.15298   0.00000  Uiso   1.00
C9     C     0.83510   0.94646   0.09102   0.00000  Uiso   1.00
N2     N     0.90657   0.92658   0.09513   0.00000  Uiso   1.00
C10    C     0.78295   0.93935   0.02882   0.00000  Uiso   1.00
C11    C     0.81548   0.96342   0.96083   0.00000  Uiso   1.00
C12    C     0.77333   0.97621   0.89951   0.00000  Uiso   1.00
C13    C     0.83147   0.01303   0.84213   0.00000  Uiso   1.00
C14    C     0.90661   0.01745   0.86883   0.00000  Uiso   1.00
N3     N     0.89719   0.98796   0.94179   0.00000  Uiso   1.00
C15    C     0.97632   0.04025   0.82800   0.00000  Uiso   1.00
C16    C     0.05220   0.02715   0.85590   0.00000  Uiso   1.00
C17    C     0.10632   0.99997   0.81752   0.00000  Uiso   1.00
C18    C     0.16994   0.99842   0.85957   0.00000  Uiso   1.00
C19    C     0.15322   0.02385   0.92401   0.00000  Uiso   1.00
N4     N     0.08157   0.04320   0.92075   0.00000  Uiso   1.00
C20    C     0.20455   0.02650   0.98661   0.00000  Uiso   1.00
H1     H     0.01621   0.92290   0.24505   0.00000  Uiso   1.00
H2     H     0.71833   0.92849   0.03803   0.00000  Uiso   1.00
H3     H     0.97454   0.05799   0.77001   0.00000  Uiso   1.00
H4     H     0.26879   0.03591   0.97733   0.00000  Uiso   1.00
H5     H     0.93009   0.89189   0.05921   0.00000  Uiso   1.00
H6     H     0.05630   0.07285   0.95837   0.00000  Uiso   1.00
C21    C     0.10233   0.97541   0.75001   0.00000  Uiso   1.00
C22    C     0.16683   0.95177   0.72452   0.00000  Uiso   1.00
C23    C     0.23389   0.95296   0.76615   0.00000  Uiso   1.00
C24    C     0.23525   0.97501   0.83534   0.00000  Uiso   1.00
C25    C     0.29810   0.00767   0.12472   0.00000  Uiso   1.00
C26    C     0.32050   0.98457   0.19485   0.00000  Uiso   1.00
C27    C     0.25995   0.94435   0.25328   0.00000  Uiso   1.00
C28    C     0.17811   0.93226   0.24308   0.00000  Uiso   1.00
C29    C     0.89558   0.02453   0.25710   0.00000  Uiso   1.00
C30    C     0.83406   0.05632   0.28068   0.00000  Uiso   1.00
C31    C     0.76135   0.04087   0.24250   0.00000  Uiso   1.00
C32    C     0.75661   0.00722   0.17620   0.00000  Uiso   1.00
C33    C     0.69003   0.95832   0.89008   0.00000  Uiso   1.00
C34    C     0.66878   0.98353   0.81973   0.00000  Uiso   1.00
C35    C     0.72994   0.02537   0.76169   0.00000  Uiso   1.00
C36    C     0.81173   0.03869   0.77233   0.00000  Uiso   1.00
H7     H     0.05106   0.97489   0.71698   0.00000  Uiso   1.00
H8     H     0.28661   0.97620   0.86843   0.00000  Uiso   1.00
H9     H     0.34476   0.03863   0.07921   0.00000  Uiso   1.00
H10    H     0.27713   0.92728   0.30803   0.00000  Uiso   1.00
H11    H     0.13273   0.90400   0.28918   0.00000  Uiso   1.00
H12    H     0.95139   0.03606   0.28621   0.00000  Uiso   1.00
H13    H     0.70211   0.99646   0.14540   0.00000  Uiso   1.00
H14    H     0.64284   0.92663   0.93527   0.00000  Uiso   1.00
H15    H     0.71362   0.04402   0.70677   0.00000  Uiso   1.00
H16    H     0.85765   0.06922   0.72638   0.00000  Uiso   1.00
H17    H     0.16480   0.93452   0.67088   0.00000  Uiso   1.00
O1     O     0.62215   0.04890   0.23961   0.00000  Uiso   1.00
C37    C     0.68629   0.04517   0.27628   0.00000  Uiso   1.00
O2     O     0.46021   0.76278   0.34904   0.00000  Uiso   1.00
O3     O     0.67743   0.02852   0.34673   0.00000  Uiso   1.00
O4     O     0.51192   0.91704   0.40874   0.00000  Uiso   1.00
C38    C     0.48179   0.79963   0.40924   0.00000  Uiso   1.00
Fe1    Fe    0.53219   0.02682   0.31181   0.00000  Uiso   1.00
O5     O     0.41967   0.94738   0.27186   0.00000  Uiso   1.00
O6     O     0.47210   0.10508   0.17263   0.00000  Uiso   1.00
C39    C     0.40826   0.00826   0.21027   0.00000  Uiso   1.00
O7     O     0.57161   0.19754   0.32742   0.00000  Uiso   1.00
O8     O     0.43006   0.14603   0.32993   0.00000  Uiso   1.00
C40    C     0.50640   0.22075   0.34183   0.00000  Uiso   1.00
C41    C     0.47093   0.71407   0.47952   0.00000  Uiso   1.00
C42    C     0.46235   0.75726   0.53932   0.00000  Uiso   1.00
C43    C     0.46756   0.69925   0.60792   0.00000  Uiso   1.00
C44    C     0.47909   0.59331   0.61821   0.00000  Uiso   1.00
C45    C     0.48207   0.54326   0.55990   0.00000  Uiso   1.00
C46    C     0.47913   0.60292   0.49002   0.00000  Uiso   1.00
C47    C     0.49179   0.43515   0.57251   0.00000  Uiso   1.00
C48    C     0.49448   0.37951   0.51660   0.00000  Uiso   1.00
C49    C     0.49587   0.44187   0.44644   0.00000  Uiso   1.00
C50    C     0.48913   0.55240   0.43353   0.00000  Uiso   1.00
C51    C     0.49734   0.26483   0.52807   0.00000  Uiso   1.00
C52    C     0.50904   0.22271   0.46867   0.00000  Uiso   1.00
C53    C     0.51160   0.28550   0.39943   0.00000  Uiso   1.00
C54    C     0.50276   0.39378   0.38812   0.00000  Uiso   1.00
H18    H     0.45702   0.84318   0.53286   0.00000  Uiso   1.00
H19    H     0.48628   0.55018   0.67207   0.00000  Uiso   1.00
H20    H     0.51020   0.13415   0.47488   0.00000  Uiso   1.00
H21    H     0.50074   0.44019   0.33359   0.00000  Uiso   1.00
H22    H     0.49164   0.59620   0.37800   0.00000  Uiso   1.00
H23    H     0.49974   0.39852   0.62716   0.00000  Uiso   1.00
O9     O     0.57488   0.03228   0.74236   0.00000  Uiso   1.00
O10    O     0.51628   0.86841   0.83785   0.00000  Uiso   1.00
C55    C     0.58241   0.96508   0.80303   0.00000  Uiso   1.00
O11    O     0.41630   0.79514   0.68128   0.00000  Uiso   1.00
O12    O     0.55640   0.83649   0.67580   0.00000  Uiso   1.00
C56    C     0.47822   0.76660   0.66496   0.00000  Uiso   1.00
O13    O     0.44683   0.18925   0.65632   0.00000  Uiso   1.00
O14    O     0.37410   0.95361   0.76716   0.00000  Uiso   1.00
C57    C     0.30484   0.93875   0.73372   0.00000  Uiso   1.00
O15    O     0.49344   0.07873   0.60152   0.00000  Uiso   1.00
C58    C     0.48230   0.17861   0.59903   0.00000  Uiso   1.00
O16    O     0.30368   0.92626   0.66670   0.00000  Uiso   1.00
Fe2    Fe    0.46376   0.96594   0.69805   0.00000  Uiso   1.00
C59    C     0.85073   0.11204   0.34376   0.00000  Uiso   1.00
C60    C     0.85166   0.22635   0.33891   0.00000  Uiso   1.00
C61    C     0.86964   0.28022   0.39748   0.00000  Uiso   1.00
C62    C     0.88753   0.22054   0.46113   0.00000  Uiso   1.00
C63    C     0.90695   0.27756   0.52482   0.00000  Uiso   1.00
C64    C     0.88787   0.10736   0.46576   0.00000  Uiso   1.00
C65    C     0.87004   0.05352   0.40718   0.00000  Uiso   1.00
H24    H     0.83882   0.27446   0.28898   0.00000  Uiso   1.00
H25    H     0.86984   0.36944   0.39289   0.00000  Uiso   1.00
H26    H     0.90409   0.36791   0.51207   0.00000  Uiso   1.00
H27    H     0.97173   0.29017   0.53980   0.00000  Uiso   1.00
H28    H     0.85978   0.21667   0.57095   0.00000  Uiso   1.00
H29    H     0.90219   0.06060   0.51544   0.00000  Uiso   1.00
H30    H     0.87016   0.96452   0.41161   0.00000  Uiso   1.00
