# Generated by REPEAT Assigner based on pymatgen
data_DB0-m29_o81_o91_f0_pts.sym.86
_audit_creation_date              2022-05-24
_audit_creation_method            REPEAT_Assigner
_cell_length_a                    15.671726
_cell_length_b                    21.262884
_cell_length_c                    11.015830
_cell_angle_alpha                 112.504151
_cell_angle_beta                  87.959395
_cell_angle_gamma                 110.865685
_cell_volume                      3147.193588
_symmetry_space_group_name_H-M    P1
_symmetry_Int_Tables_number       1
loop_
    _symmetry_equiv_pos_site_id
    _symmetry_equiv_pos_as_xyz
    1  x,y,z
loop_
    _atom_site_type_symbol
    _atom_site_label
    _atom_site_fract_x
    _atom_site_fract_y
    _atom_site_fract_z
    _atom_type_partial_charge
    C   C1   0.886707  0.018944  0.857161  -0.231703
    C   C2   0.287152  0.002437  0.902780  0.031437
    C   C3   0.203585  0.002664  0.867215  -0.182498
    C   C4   0.133335  0.995030  0.945802  0.154946
    C   C5   0.051924  0.998200  0.910455  -0.217765
    C   C6   0.981051  0.993967  0.990792  -0.012432
    C   C7   0.804644  0.021198  0.825318  -0.055883
    C   C8   0.730931  0.003122  0.893066  -0.039893
    C   C9   0.898296  0.999619  0.960712  0.162038
    C   C10  0.826583  0.988247  0.038465  0.089664
    C   C11  0.741141  0.987950  0.002527  -0.070322
    C   C12  0.299357  0.993070  0.018702  -0.086622
    C   C13  0.227021  0.982507  0.093863  -0.174766
    C   C14  0.144823  0.984789  0.058667  0.189083
    C   C15  0.074498  0.978212  0.137212  -0.268486
    C   C16  0.993369  0.982871  0.103654  0.222102
    C   C17  0.925206  0.977472  0.185330  -0.206886
    C   C18  0.842876  0.980061  0.153680  -0.118863
    H   H1   0.940076  0.034222  0.798416  0.138361
    H   H2   0.192867  0.009500  0.777444  0.147766
    H   H3   0.046717  0.003003  0.817747  0.160924
    H   H4   0.797721  0.034030  0.741168  0.163545
    H   H5   0.236690  0.976479  0.184896  0.190188
    H   H6   0.083294  0.970206  0.226431  0.153597
    H   H7   0.935724  0.970748  0.275371  0.154340
    H   H8   0.794041  0.977692  0.224513  0.144612
    O   O1   0.611985  0.015144  0.104878  -0.550768
    C   C19  0.662900  0.974913  0.080896  0.536074
    O   O2   0.441923  0.838737  0.092275  -0.450644
    O   O3   0.641784  0.921812  0.122805  -0.465144
    O   O4   0.504723  0.921772  0.299952  -0.589688
    C   C20  0.466998  0.853172  0.215392  0.647835
    Fe  Fe1  0.519516  0.996289  0.226629  1.473293
    O   O5   0.395063  0.957493  0.125585  -0.617741
    O   O6   0.460869  0.061536  0.088840  -0.502349
    C   C21  0.389215  0.002080  0.072961  0.836279
    O   O7   0.562904  0.094121  0.379910  -0.641635
    O   O8   0.410148  0.074278  0.366404  -0.566283
    C   C22  0.494262  0.114970  0.424267  0.695152
    O   O9   0.456641  0.904985  0.537850  -0.613664
    O   O10  0.603514  0.909349  0.549172  -0.501588
    C   C23  0.518640  0.876270  0.491738  0.620718
    O   O11  0.640662  0.035657  0.773514  -0.666563
    O   O12  0.567082  0.942087  0.836979  -0.481987
    C   C24  0.642332  0.996149  0.839791  0.782428
    O   O13  0.349098  0.028923  0.716607  -0.517596
    O   O14  0.528656  0.078011  0.615289  -0.522627
    C   C25  0.534584  0.141932  0.704861  0.549176
    O   O15  0.428696  0.991058  0.822897  -0.553389
    C   C26  0.358692  0.009464  0.813308  0.584244
    O   O16  0.531145  0.149897  0.828875  -0.417645
    Fe  Fe2  0.512807  0.003256  0.688252  1.470027
    C   C27  0.407062  0.561002  0.324815  0.448599
    N   N1   0.481797  0.621689  0.342462  -0.158851
    C   C28  0.563568  0.631147  0.397104  0.445920
    C   C29  0.571525  0.579630  0.438725  -0.086381
    C   C30  0.495673  0.517949  0.422757  0.091364
    C   C31  0.413091  0.508079  0.364309  -0.101155
    C   C32  0.654609  0.589729  0.497279  -0.057275
    C   C33  0.661151  0.538611  0.540576  -0.040885
    C   C34  0.584719  0.476892  0.525274  -0.125689
    C   C35  0.502294  0.466629  0.465751  0.098615
    C   C36  0.426486  0.404863  0.449670  -0.075536
    C   C37  0.343535  0.394596  0.390431  -0.057309
    C   C38  0.336814  0.446068  0.348168  -0.062717
    C   C39  0.590243  0.424992  0.567969  0.451301
    N   N2   0.515475  0.364548  0.551185  -0.135037
    C   C40  0.434285  0.353842  0.492986  0.428171
    O   O17  0.325749  0.553342  0.273270  -0.471728
    O   O18  0.637888  0.690804  0.410123  -0.479177
    H   H9   0.715292  0.637647  0.511002  0.130420
    H   H10  0.726770  0.547979  0.586532  0.128146
    O   O19  0.670988  0.433605  0.622911  -0.465925
    O   O20  0.360345  0.293783  0.479113  -0.488655
    H   H11  0.282906  0.346612  0.376553  0.133348
    H   H12  0.271103  0.436868  0.302735  0.132591
    C   C41  0.504491  0.240015  0.497196  -0.246616
    H   H13  0.485568  0.227138  0.394629  0.184702
    C   C42  0.512583  0.186479  0.531822  0.084849
    C   C43  0.536157  0.201399  0.664009  -0.031425
    C   C44  0.556617  0.272951  0.757226  -0.030396
    C   C45  0.550572  0.326333  0.719615  -0.188169
    H   H14  0.566035  0.381236  0.793446  0.139671
    C   C46  0.523035  0.309812  0.590152  0.265985
    C   C47  0.498028  0.748363  0.408631  -0.259685
    H   H15  0.520696  0.758890  0.508476  0.166862
    C   C48  0.492045  0.804861  0.381736  0.133263
    C   C49  0.463242  0.792751  0.253679  -0.088124
    C   C50  0.436890  0.722191  0.156835  -0.090725
    H   H16  0.414408  0.710589  0.056353  0.136053
    C   C51  0.441565  0.665592  0.185584  -0.165741
    H   H17  0.422730  0.611407  0.107813  0.139420
    C   C52  0.473598  0.678816  0.311429  0.256351
    C   C53  0.586637  0.294705  0.893901  0.370954
    N   N3   0.610875  0.312418  0.004024  -0.431782
