data_DB0-m3_o115_o21_f0_fsc.sym.31_repeat
_audit_creation_date              2024-02-23
_audit_creation_method            'Materials Studio'
_symmetry_space_group_name_H-M    'P1'
_symmetry_Int_Tables_number       1
_symmetry_cell_setting            triclinic
loop_
_symmetry_equiv_pos_as_xyz
  x,y,z
_cell_length_a                    12.3306
_cell_length_b                    16.5285
_cell_length_c                    16.6892
_cell_angle_alpha                 90.0448
_cell_angle_beta                  81.2391
_cell_angle_gamma                 94.4603
loop_
_atom_site_label
_atom_site_type_symbol
_atom_site_fract_x
_atom_site_fract_y
_atom_site_fract_z
_atom_site_U_iso_or_equiv
_atom_site_adp_type
_atom_site_occupancy
H1     H     0.08453   0.08297   0.27299   0.00000  Uiso   1.00
H2     H     0.91470   0.91450   0.71814   0.00000  Uiso   1.00
C1     C     0.99923   0.74186   0.03653   0.00000  Uiso   1.00
C2     C     0.99977   0.25557   0.95467   0.00000  Uiso   1.00
C3     C     0.99909   0.74196   0.95421   0.00000  Uiso   1.00
C4     C     0.99990   0.25547   0.03699   0.00000  Uiso   1.00
C5     C     0.99856   0.82216   0.93096   0.00000  Uiso   1.00
C6     C     0.00048   0.17528   0.06023   0.00000  Uiso   1.00
N1     N     0.99954   0.87098   0.99558   0.00000  Uiso   1.00
N2     N     0.99952   0.12646   0.99561   0.00000  Uiso   1.00
C7     C     0.00025   0.82208   0.06003   0.00000  Uiso   1.00
C8     C     0.99878   0.17536   0.93117   0.00000  Uiso   1.00
C9     C     0.99413   0.84714   0.85527   0.00000  Uiso   1.00
C10    C     0.00494   0.15029   0.13591   0.00000  Uiso   1.00
C11    C     0.98303   0.93229   0.83269   0.00000  Uiso   1.00
C12    C     0.01612   0.06515   0.15848   0.00000  Uiso   1.00
C13    C     0.94282   0.95405   0.76361   0.00000  Uiso   1.00
C14    C     0.05640   0.04341   0.22753   0.00000  Uiso   1.00
C15    C     0.94298   0.03724   0.76364   0.00000  Uiso   1.00
C16    C     0.05625   0.96021   0.22751   0.00000  Uiso   1.00
C17    C     0.98332   0.06360   0.83270   0.00000  Uiso   1.00
C18    C     0.01586   0.93384   0.15847   0.00000  Uiso   1.00
N3     N     0.00952   0.99945   0.87395   0.00000  Uiso   1.00
N4     N     0.98961   0.99799   0.11723   0.00000  Uiso   1.00
C19    C     0.99445   0.15002   0.85538   0.00000  Uiso   1.00
C20    C     0.00463   0.84741   0.13581   0.00000  Uiso   1.00
H3     H     0.99972   0.68836   0.07364   0.00000  Uiso   1.00
H4     H     0.99929   0.30908   0.91756   0.00000  Uiso   1.00
H5     H     0.99810   0.68845   0.91696   0.00000  Uiso   1.00
H6     H     0.00088   0.30898   0.07424   0.00000  Uiso   1.00
H7     H     0.91493   0.07364   0.71826   0.00000  Uiso   1.00
H8     H     0.08431   0.92383   0.27289   0.00000  Uiso   1.00
H9     H     0.04940   0.00169   0.92454   0.00000  Uiso   1.00
H10    H     0.94967   0.99574   0.06668   0.00000  Uiso   1.00
C21    C     0.10466   0.24930   0.21506   0.00000  Uiso   1.00
C22    C     0.89433   0.74818   0.77610   0.00000  Uiso   1.00
H11    H     0.18144   0.23404   0.18013   0.00000  Uiso   1.00
H12    H     0.81757   0.76349   0.81101   0.00000  Uiso   1.00
C23    C     0.10510   0.30663   0.27520   0.00000  Uiso   1.00
C24    C     0.89386   0.69084   0.71597   0.00000  Uiso   1.00
C25    C     0.00699   0.32677   0.31970   0.00000  Uiso   1.00
C26    C     0.99196   0.67064   0.67150   0.00000  Uiso   1.00
C27    C     0.90880   0.28856   0.30372   0.00000  Uiso   1.00
C28    C     0.09017   0.70880   0.68751   0.00000  Uiso   1.00
H13    H     0.83094   0.30286   0.33763   0.00000  Uiso   1.00
H14    H     0.16802   0.69445   0.65363   0.00000  Uiso   1.00
C29    C     0.90878   0.23085   0.24414   0.00000  Uiso   1.00
C30    C     0.09023   0.76651   0.74708   0.00000  Uiso   1.00
H15    H     0.83180   0.20114   0.23207   0.00000  Uiso   1.00
H16    H     0.16723   0.79618   0.75917   0.00000  Uiso   1.00
C31    C     0.00646   0.21127   0.19957   0.00000  Uiso   1.00
C32    C     0.99256   0.78616   0.79163   0.00000  Uiso   1.00
C33    C     0.90886   0.75755   0.24574   0.00000  Uiso   1.00
C34    C     0.09001   0.23929   0.74491   0.00000  Uiso   1.00
H17    H     0.83207   0.77971   0.23499   0.00000  Uiso   1.00
H18    H     0.16673   0.21673   0.75525   0.00000  Uiso   1.00
C35    C     0.90891   0.69992   0.30533   0.00000  Uiso   1.00
C36    C     0.08990   0.29687   0.68529   0.00000  Uiso   1.00
H19    H     0.83128   0.67796   0.34044   0.00000  Uiso   1.00
H20    H     0.16736   0.31837   0.64968   0.00000  Uiso   1.00
C37    C     0.00680   0.67130   0.31969   0.00000  Uiso   1.00
C38    C     0.99210   0.32603   0.67147   0.00000  Uiso   1.00
C39    C     0.10461   0.70095   0.27346   0.00000  Uiso   1.00
C40    C     0.89441   0.29688   0.71818   0.00000  Uiso   1.00
H21    H     0.18214   0.67946   0.28326   0.00000  Uiso   1.00
H22    H     0.81694   0.31878   0.70877   0.00000  Uiso   1.00
C41    C     0.10411   0.75817   0.21332   0.00000  Uiso   1.00
C42    C     0.89496   0.23969   0.77834   0.00000  Uiso   1.00
H23    H     0.18066   0.78090   0.17712   0.00000  Uiso   1.00
H24    H     0.81852   0.21737   0.81493   0.00000  Uiso   1.00
C43    C     0.00619   0.78657   0.19941   0.00000  Uiso   1.00
C44    C     0.99282   0.21083   0.79178   0.00000  Uiso   1.00
H25    H     0.18285   0.33578   0.28630   0.00000  Uiso   1.00
H26    H     0.81610   0.66174   0.70485   0.00000  Uiso   1.00
O1     O     0.91065   0.41100   0.41757   0.00000  Uiso   1.00
O2     O     0.08824   0.58636   0.57367   0.00000  Uiso   1.00
O3     O     0.10009   0.41880   0.40247   0.00000  Uiso   1.00
O4     O     0.89889   0.57858   0.58874   0.00000  Uiso   1.00
C45    C     0.00612   0.38847   0.38296   0.00000  Uiso   1.00
C46    C     0.99281   0.60893   0.60826   0.00000  Uiso   1.00
O5     O     0.09988   0.58703   0.39967   0.00000  Uiso   1.00
O6     O     0.89909   0.41036   0.59156   0.00000  Uiso   1.00
O7     O     0.91015   0.57900   0.42043   0.00000  Uiso   1.00
O8     O     0.08874   0.41836   0.57078   0.00000  Uiso   1.00
C47    C     0.00584   0.60957   0.38303   0.00000  Uiso   1.00
C48    C     0.99308   0.38778   0.60817   0.00000  Uiso   1.00
Zn1    Zn    0.12205   0.50573   0.48452   0.00000  Uiso   1.00
Zn2    Zn    0.87688   0.49164   0.50671   0.00000  Uiso   1.00
N5     N     0.73254   0.48350   0.51764   0.00000  Uiso   1.00
N6     N     0.26638   0.51388   0.47373   0.00000  Uiso   1.00
C49    C     0.52068   0.47123   0.51970   0.00000  Uiso   1.00
C50    C     0.47580   0.52777   0.48100   0.00000  Uiso   1.00
C51    C     0.36001   0.51985   0.47586   0.00000  Uiso   1.00
C52    C     0.63814   0.47806   0.51912   0.00000  Uiso   1.00
N7     N     0.54124   0.59603   0.44487   0.00000  Uiso   1.00
C53    C     0.55385   0.65778   0.49648   0.00000  Uiso   1.00
O9     O     0.53987   0.64527   0.56946   0.00000  Uiso   1.00
C54    C     0.58361   0.74195   0.46435   0.00000  Uiso   1.00
H27    H     0.52310   0.61485   0.39000   0.00000  Uiso   1.00
H28    H     0.51867   0.76100   0.43079   0.00000  Uiso   1.00
H29    H     0.66327   0.74406   0.42307   0.00000  Uiso   1.00
H30    H     0.59113   0.78380   0.51552   0.00000  Uiso   1.00
N8     N     0.45526   0.40039   0.55079   0.00000  Uiso   1.00
C55    C     0.49024   0.35705   0.60924   0.00000  Uiso   1.00
O10    O     0.54814   0.38950   0.65504   0.00000  Uiso   1.00
C56    C     0.45036   0.26996   0.62223   0.00000  Uiso   1.00
H31    H     0.40995   0.36851   0.51254   0.00000  Uiso   1.00
H32    H     0.47776   0.23533   0.56685   0.00000  Uiso   1.00
H33    H     0.35923   0.26422   0.63571   0.00000  Uiso   1.00
H34    H     0.48462   0.24528   0.67401   0.00000  Uiso   1.00
