# Generated by REPEAT Assigner based on pymatgen
data_DB0-m2_o17_o23_f0_pcu.sym.113
_audit_creation_date              2022-05-24
_audit_creation_method            REPEAT_Assigner
_cell_length_a                    14.948636
_cell_length_b                    13.536903
_cell_length_c                    15.867855
_cell_angle_alpha                 90.000000
_cell_angle_beta                  89.988965
_cell_angle_gamma                 90.000000
_cell_volume                      3210.991177
_symmetry_space_group_name_H-M    P1
_symmetry_Int_Tables_number       1
loop_
    _symmetry_equiv_pos_site_id
    _symmetry_equiv_pos_as_xyz
    1  x,y,z
loop_
    _atom_site_type_symbol
    _atom_site_label
    _atom_site_fract_x
    _atom_site_fract_y
    _atom_site_fract_z
    _atom_type_partial_charge
    O   O1   0.371875  0.581541  0.502298  -0.613065
    O   O2   0.371086  0.411872  0.494575  -0.584000
    C   C1   0.329752  0.496835  0.498053  0.667163
    O   O3   0.498705  0.581809  0.376729  -0.600746
    O   O4   0.504146  0.411460  0.375319  -0.596774
    C   C2   0.501553  0.496964  0.336914  0.787302
    Cu  Cu1  0.501979  0.594571  0.499422  0.929615
    Cu  Cu2  0.500898  0.396782  0.497607  0.826535
    O   O5   0.631857  0.579498  0.501854  -0.619188
    O   O6   0.630966  0.409328  0.494650  -0.577712
    O   O7   0.499089  0.579502  0.621627  -0.650130
    O   O8   0.503998  0.409846  0.620239  -0.648421
    C   C3   0.673069  0.494088  0.497709  0.704175
    C   C4   0.501992  0.494433  0.660238  0.908336
    C   C5   0.453586  0.586623  0.046045  -0.196392
    C   C6   0.452931  0.406387  0.046701  -0.095135
    C   C7   0.450167  0.408989  0.950975  -0.156982
    C   C8   0.463812  0.592139  0.950972  -0.151794
    H   H1   0.396897  0.603247  0.922467  0.054126
    H   H2   0.379738  0.418192  0.930332  0.039854
    H   H3   0.381621  0.576054  0.060084  0.017512
    H   H4   0.383054  0.411542  0.069538  -0.001905
    H   H5   0.476651  0.339360  0.923895  0.072598
    H   H6   0.507413  0.654779  0.932691  0.063744
    C   C9   0.503053  0.494244  0.750685  -0.261970
    C   C10  0.504172  0.496497  0.078629  0.793486
    C   C11  0.504405  0.496166  0.919059  0.499481
    C   C12  0.599800  0.487619  0.950802  -0.126903
    C   C13  0.600324  0.496305  0.046000  -0.169411
    C   C14  0.503930  0.495290  0.826708  -0.249365
    C   C15  0.503817  0.497059  0.170721  -0.477528
    C   C16  0.502728  0.497429  0.246599  -0.135611
    H   H7   0.635650  0.564820  0.064597  0.058878
    H   H8   0.639056  0.434470  0.073591  0.064421
    H   H9   0.641587  0.547230  0.923512  0.043289
    H   H10  0.627955  0.415136  0.931846  0.037615
    C   C17  0.817576  0.420791  0.456212  -0.281689
    C   C18  0.770743  0.493437  0.498483  0.011127
    C   C19  0.816594  0.565848  0.541929  -0.224965
    C   C20  0.908782  0.564206  0.545073  0.138709
    C   C21  0.955476  0.492535  0.501816  -0.023675
    C   C22  0.909852  0.421269  0.456707  0.251084
    C   C23  0.953575  0.632847  0.593562  -0.121367
    C   C24  0.045957  0.630476  0.599559  -0.168886
    C   C25  0.093781  0.563314  0.549931  0.143081
    C   C26  0.047910  0.492860  0.503042  -0.011286
    C   C27  0.094254  0.422171  0.457673  0.214730
    C   C28  0.048618  0.351382  0.411972  -0.222224
    C   C29  0.956362  0.350556  0.411843  -0.245490
    C   C30  0.186629  0.566120  0.545124  -0.298342
    C   C31  0.232282  0.495901  0.499378  0.041930
    C   C32  0.186439  0.422445  0.457572  -0.255336
    H   H11  0.782388  0.364675  0.420929  0.141494
    H   H12  0.780348  0.621983  0.576357  0.136090
    H   H13  0.915699  0.686613  0.629134  0.139710
    H   H14  0.225397  0.622654  0.576204  0.164158
    H   H15  0.222781  0.367549  0.421375  0.133547
    H   H16  0.084968  0.296125  0.376448  0.150135
    H   H17  0.921196  0.294788  0.375550  0.147423
    C   C33  0.450786  0.791179  0.556310  -0.167483
    C   C34  0.447102  0.200942  0.552235  -0.155260
    N   N1   0.502614  0.742399  0.500230  -0.008572
    N   N2   0.499793  0.248969  0.496954  0.074490
    C   C35  0.551064  0.792194  0.443087  -0.109043
    C   C36  0.555042  0.199040  0.445405  -0.216968
    C   C37  0.551843  0.894086  0.443284  0.162412
    C   C38  0.554249  0.097404  0.444837  0.209094
    C   C39  0.500068  0.944926  0.500568  0.007881
    C   C40  0.500069  0.046588  0.500303  -0.003695
    C   C41  0.449607  0.893590  0.558340  0.121176
    C   C42  0.446855  0.098361  0.555774  0.100283
    C   C43  0.605069  0.944837  0.386863  -0.199245
    C   C44  0.607637  0.046555  0.388725  -0.205651
    C   C45  0.393810  0.047363  0.613191  -0.130239
    C   C46  0.397758  0.944893  0.616453  -0.120345
    H   H18  0.410254  0.748415  0.599174  0.195271
    H   H19  0.404042  0.244283  0.592394  0.163979
    H   H20  0.591927  0.752643  0.398412  0.133399
    H   H21  0.598367  0.238641  0.402647  0.176078
    H   H22  0.646364  0.905173  0.342452  0.148179
    H   H23  0.651459  0.086321  0.346561  0.144795
    C   C47  0.089387  0.694838  0.662831  0.513205
    H   H24  0.157985  0.683915  0.682477  -0.032212
    O   O9   0.045808  0.757414  0.699865  -0.470808
    C   C48  0.339291  0.101347  0.675080  0.513459
    H   H25  0.369673  0.156155  0.716057  -0.046764
    O   O10  0.258189  0.091718  0.675574  -0.408787
    C   C49  0.356448  0.892061  0.687477  0.403239
    H   H26  0.397363  0.845363  0.727557  -0.026243
    O   O11  0.275825  0.894480  0.698822  -0.350485
    C   C50  0.488555  0.310512  0.079937  0.422745
    H   H27  0.449375  0.269680  0.125718  -0.008280
    O   O12  0.558819  0.275790  0.054576  -0.453091
    C   C51  0.480341  0.681328  0.087990  0.500635
    H   H28  0.433295  0.717741  0.129742  -0.024895
    O   O13  0.552023  0.720564  0.073156  -0.467319
