# Generated by REPEAT Assigner based on pymatgen
data_DB0-m2_o14_o23_f0_nbo.sym.116
_audit_creation_date              2022-05-24
_audit_creation_method            REPEAT_Assigner
_cell_length_a                    21.644164
_cell_length_b                    21.655716
_cell_length_c                    22.015536
_cell_angle_alpha                 119.446879
_cell_angle_beta                  119.433235
_cell_angle_gamma                 90.011997
_cell_volume                      7417.783355
_symmetry_space_group_name_H-M    P1
_symmetry_Int_Tables_number       1
loop_
    _symmetry_equiv_pos_site_id
    _symmetry_equiv_pos_as_xyz
    1  x,y,z
loop_
    _atom_site_type_symbol
    _atom_site_label
    _atom_site_fract_x
    _atom_site_fract_y
    _atom_site_fract_z
    _atom_type_partial_charge
    O   O1   0.439083  0.080445  0.479640  -0.582409
    O   O2   0.559502  0.919415  0.516092  -0.582808
    O   O3   0.552831  0.087787  0.495169  -0.585731
    O   O4   0.445934  0.912277  0.500931  -0.583449
    C   C1   0.493999  0.110224  0.482362  0.694953
    C   C2   0.504799  0.889872  0.513826  0.689403
    O   O5   0.500639  0.064851  0.616224  -0.620382
    O   O6   0.497995  0.935224  0.379650  -0.625774
    O   O7   0.610991  0.072761  0.624096  -0.591877
    O   O8   0.387678  0.927074  0.371807  -0.589236
    C   C3   0.573767  0.090649  0.659281  0.811340
    C   C4   0.424876  0.909320  0.336590  0.815259
    Cu  Cu1  0.435459  0.998127  0.493098  0.980981
    Cu  Cu2  0.563191  0.001820  0.502785  0.986972
    C   C5   0.770058  0.636995  0.657183  -0.292914
    C   C6   0.230905  0.360671  0.343214  -0.268409
    C   C7   0.698541  0.451132  0.460466  -0.072813
    C   C8   0.299066  0.550136  0.533625  -0.087707
    C   C9   0.699017  0.512412  0.524932  -0.202818
    C   C10  0.299459  0.487699  0.471005  -0.191597
    H   H1   0.838602  0.743717  0.773311  0.105738
    H   H2   0.164339  0.251542  0.230380  0.104964
    C   C11  0.829630  0.569682  0.590228  0.170189
    C   C12  0.169658  0.429112  0.407129  0.188047
    H   H3   0.722775  0.645067  0.660442  0.168016
    H   H4   0.278853  0.352887  0.341296  0.163741
    C   C13  0.652556  0.268526  0.949366  -0.227931
    C   C14  0.350516  0.742945  0.046684  -0.125329
    C   C15  0.767456  0.277950  0.950729  -0.370014
    C   C16  0.238807  0.713380  0.044298  -0.366156
    C   C17  0.816686  0.319222  0.046275  0.420693
    C   C18  0.186613  0.672794  0.949237  0.503717
    H   H5   0.703995  0.373777  0.072819  0.029459
    H   H6   0.300674  0.633299  0.930366  0.014622
    H   H7   0.638329  0.306167  0.927605  0.069494
    H   H8   0.377045  0.710608  0.073059  0.031263
    H   H9   0.797774  0.245144  0.924864  0.044015
    H   H10  0.207282  0.736788  0.072954  0.067657
    H   H11  0.753113  0.314681  0.927972  0.114262
    H   H12  0.261971  0.674410  0.061244  0.069015
    H   H13  0.861754  0.293426  0.059264  -0.038516
    H   H14  0.135778  0.689953  0.935280  -0.013552
    C   C19  0.859999  0.383340  0.246432  -0.132352
    C   C20  0.138641  0.617071  0.749918  -0.156011
    C   C21  0.696750  0.224407  0.918081  0.719691
    C   C22  0.302218  0.776145  0.077728  0.641056
    C   C23  0.698576  0.313908  0.045181  0.010360
    C   C24  0.302131  0.691660  0.951052  -0.100578
    C   C25  0.774606  0.302149  0.078020  0.552933
    C   C26  0.223827  0.698111  0.918352  0.455224
    C   C27  0.760701  0.220054  0.045166  -0.133845
    C   C28  0.229855  0.779379  0.951159  -0.179233
    C   C29  0.717102  0.173880  0.949498  -0.189137
    C   C30  0.270456  0.824631  0.046282  -0.145508
    C   C31  0.820725  0.347202  0.170388  -0.398571
    C   C32  0.177857  0.653196  0.825971  -0.316600
    C   C33  0.651653  0.178141  0.825726  -0.332364
    C   C34  0.347077  0.822154  0.170101  -0.308236
    C   C35  0.615546  0.138844  0.749686  -0.175302
    C   C36  0.383093  0.861272  0.246155  -0.186727
    H   H15  0.665301  0.132539  0.922284  0.037131
    H   H16  0.316425  0.873665  0.075542  0.037121
    H   H17  0.751608  0.143522  0.929167  0.036343
    H   H18  0.230851  0.844526  0.063762  0.033810
    H   H19  0.728015  0.204207  0.064266  0.047886
    H   H20  0.261485  0.800517  0.934375  0.056968
    H   H21  0.599942  0.229332  0.923553  0.032886
    H   H22  0.394831  0.788510  0.067362  0.027485
    H   H23  0.668905  0.293970  0.064508  -0.010868
    H   H24  0.326878  0.708711  0.925739  0.043691
    H   H25  0.814476  0.208617  0.071433  0.023171
    H   H26  0.173248  0.785028  0.922656  0.052735
    H   H27  0.599576  0.240061  0.587866  0.137168
    H   H28  0.397132  0.761864  0.411654  0.133322
    C   C37  0.370092  0.104360  0.340862  -0.248271
    C   C38  0.631396  0.893580  0.652277  -0.245896
    H   H29  0.372022  0.052306  0.335621  0.145165
    H   H30  0.629833  0.946096  0.658622  0.143407
    C   C39  0.307293  0.102139  0.276890  -0.079130
    C   C40  0.695321  0.894189  0.713692  -0.077836
    H   H31  0.261929  0.050130  0.225284  0.101702
    H   H32  0.741874  0.945421  0.764314  0.104306
    C   C41  0.301969  0.166126  0.279068  -0.071678
    C   C42  0.700294  0.829547  0.710094  -0.076514
    H   H33  0.252043  0.164752  0.229520  0.103805
    H   H34  0.751110  0.829595  0.757424  0.103059
    C   C43  0.360380  0.231915  0.343604  -0.274034
    C   C44  0.640375  0.764832  0.646992  -0.268450
    H   H35  0.352356  0.279900  0.341882  0.161962
    H   H36  0.647916  0.716013  0.647027  0.157125
    C   C45  0.425582  0.235093  0.407642  0.210448
    C   C46  0.574130  0.763492  0.585951  0.200821
    C   C47  0.428736  0.170936  0.407894  0.190306
    C   C48  0.571246  0.827986  0.586444  0.196549
    C   C49  0.490963  0.173456  0.474140  -0.137462
    C   C50  0.507865  0.826669  0.522170  -0.143735
    C   C51  0.551011  0.238013  0.536490  -0.125180
    C   C52  0.446568  0.763097  0.461553  -0.118807
    H   H37  0.596603  0.351185  0.586505  0.127861
    H   H38  0.399783  0.650481  0.412684  0.125181
    C   C53  0.548652  0.301162  0.536109  -0.063996
    C   C54  0.448654  0.699777  0.461627  -0.079425
    C   C55  0.486614  0.301160  0.472768  -0.211477
    C   C56  0.511742  0.698646  0.522842  -0.191200
    C   C57  0.761528  0.448896  0.459715  -0.117370
    C   C58  0.236005  0.552310  0.534260  -0.110405
    C   C59  0.826451  0.508368  0.522774  -0.140995
    C   C60  0.171915  0.491684  0.472890  -0.136158
    H   H39  0.648226  0.403636  0.409294  0.127730
    H   H40  0.348795  0.598479  0.583418  0.129294
    O   O9   0.918684  0.560726  0.516686  -0.607267
    O   O10  0.080078  0.439699  0.479773  -0.561883
    O   O11  0.912582  0.447300  0.501767  -0.602031
    O   O12  0.085984  0.552954  0.494336  -0.611231
    C   C61  0.889507  0.505734  0.514231  0.734314
    C   C62  0.109008  0.494471  0.481759  0.680477
    O   O13  0.929012  0.498489  0.380156  -0.613619
    O   O14  0.069553  0.501892  0.616181  -0.611653
    O   O15  0.931584  0.388075  0.371730  -0.594486
    O   O16  0.067211  0.612296  0.624576  -0.606952
    C   C63  0.908318  0.425202  0.336830  0.785863
    C   C64  0.090356  0.575183  0.659504  0.803197
    Cu  Cu3  0.000709  0.563844  0.502623  1.006663
    Cu  Cu4  0.997969  0.436524  0.493691  0.981556
    O   O17  0.625628  0.539056  0.584403  -0.558348
    O   O18  0.372619  0.460481  0.411275  -0.585389
    O   O19  0.565539  0.473644  0.440346  -0.603773
    O   O20  0.432797  0.526820  0.555484  -0.595934
    C   C65  0.626999  0.509721  0.516979  0.706456
    C   C66  0.371370  0.490353  0.478855  0.721364
    O   O21  0.524950  0.434531  0.556469  -0.602620
    O   O22  0.472862  0.565410  0.439176  -0.600414
    O   O23  0.460390  0.373514  0.412310  -0.578355
    O   O24  0.538361  0.626515  0.583503  -0.573984
    C   C67  0.489276  0.372815  0.480119  0.728372
    C   C68  0.508945  0.627084  0.515532  0.716625
    Cu  Cu5  0.533684  0.535077  0.580895  0.945081
    Cu  Cu6  0.464592  0.464924  0.414846  0.953361
    C   C69  0.765733  0.572692  0.591180  0.222996
    C   C70  0.233753  0.426158  0.406644  0.199338
    H   H41  0.759058  0.400990  0.407470  0.126602
    H   H42  0.237865  0.601159  0.585233  0.133504
    C   C71  0.896704  0.627521  0.657734  -0.224290
    C   C72  0.103400  0.369875  0.340815  -0.249067
    H   H43  0.948420  0.625626  0.662071  0.166730
    H   H44  0.051330  0.371590  0.335636  0.147347
    C   C73  0.899903  0.689398  0.723305  -0.078749
    C   C74  0.101489  0.306736  0.277449  -0.073335
    H   H45  0.952313  0.734116  0.775309  0.097895
    H   H46  0.049728  0.260914  0.226420  0.101301
    C   C75  0.836409  0.694563  0.722325  -0.059741
    C   C76  0.165467  0.301690  0.279471  -0.079254
    N   N1   0.854822  0.398393  0.092737  -0.667554
    C   C77  0.821619  0.447784  0.079612  0.744314
    O   O25  0.754484  0.429507  0.029375  -0.581873
    C   C78  0.867983  0.526710  0.127507  -0.512777
    H   H47  0.912323  0.416104  0.131329  0.296688
    H   H48  0.927738  0.535920  0.171427  0.112765
    H   H49  0.847577  0.564886  0.164361  0.158732
    H   H50  0.862569  0.539299  0.082322  0.145524
    N   N2   0.169274  0.592751  0.909248  -0.731841
    C   C79  0.097713  0.548988  0.862671  0.775557
    O   O26  0.045747  0.574071  0.845574  -0.599009
    C   C80  0.081935  0.468186  0.829993  -0.421961
    H   H51  0.211021  0.569275  0.924636  0.313727
    H   H52  0.110696  0.462262  0.883754  0.087453
    H   H53  0.102453  0.440941  0.789007  0.112668
    H   H54  0.020749  0.441119  0.792764  0.132190
