# Generated by REPEAT Assigner based on pymatgen
data_DB0-m29_o81_o148_f0_pts.sym.30
_audit_creation_date              2022-05-24
_audit_creation_method            REPEAT_Assigner
_cell_length_a                    16.021922
_cell_length_b                    9.369003
_cell_length_c                    15.279105
_cell_angle_alpha                 87.588847
_cell_angle_beta                  85.425169
_cell_angle_gamma                 108.799943
_cell_volume                      2158.669860
_symmetry_space_group_name_H-M    P1
_symmetry_Int_Tables_number       1
loop_
    _symmetry_equiv_pos_site_id
    _symmetry_equiv_pos_as_xyz
    1  x,y,z
loop_
    _atom_site_type_symbol
    _atom_site_label
    _atom_site_fract_x
    _atom_site_fract_y
    _atom_site_fract_z
    _atom_type_partial_charge
    C   C1   0.896038  0.005399  0.874890  -0.182649
    C   C2   0.282868  0.965818  0.945497  0.051488
    C   C3   0.200875  0.953656  0.917204  -0.206848
    C   C4   0.134599  0.975935  0.973284  0.155414
    C   C5   0.055778  0.974525  0.941552  -0.225299
    C   C6   0.988914  0.002653  0.995311  0.028931
    C   C7   0.816373  0.006161  0.847146  -0.168541
    C   C8   0.746382  0.000172  0.906945  0.140161
    C   C9   0.909259  0.007249  0.963946  0.100784
    C   C10  0.841423  0.018595  0.023019  0.141655
    C   C11  0.758010  0.004003  0.995614  -0.148360
    C   C12  0.296338  0.995440  0.032431  -0.030390
    C   C13  0.229116  0.011781  0.089346  -0.204278
    C   C14  0.148312  0.004414  0.059367  0.167905
    C   C15  0.082311  0.030614  0.113613  -0.245979
    C   C16  0.002010  0.024946  0.083246  0.144608
    C   C17  0.936309  0.049157  0.139535  -0.179938
    C   C18  0.858160  0.048364  0.108926  -0.157512
    H   H1   0.946833  0.007915  0.823866  0.151964
    H   H2   0.189174  0.932807  0.849539  0.159429
    H   H3   0.048598  0.948489  0.874180  0.148534
    H   H4   0.807332  0.002626  0.777821  0.149476
    H   H5   0.095164  0.062553  0.179095  0.121365
    H   H6   0.811555  0.074917  0.154693  0.155981
    O   O1   0.618178  0.039614  0.041463  -0.515530
    C   C19  0.680907  0.984360  0.059856  0.582649
    O   O2   0.501001  0.695088  0.127008  -0.433782
    O   O3   0.672300  0.904546  0.134575  -0.499285
    O   O4   0.514591  0.847751  0.240012  -0.580517
    C   C20  0.504654  0.713882  0.211426  0.606720
    Fe  Fe1  0.524998  0.997891  0.141177  1.440791
    O   O5   0.408168  0.909585  0.092281  -0.610110
    O   O6   0.434718  0.161859  0.069043  -0.462904
    C   C21  0.382662  0.022339  0.065136  0.682563
    O   O7   0.554845  0.200785  0.191167  -0.649578
    O   O8   0.442654  0.065294  0.292785  -0.459902
    C   C22  0.501086  0.194670  0.261590  0.714086
    O   O9   0.473193  0.792345  0.752376  -0.549419
    O   O10  0.574552  0.906367  0.636869  -0.524071
    C   C23  0.516672  0.783889  0.677296  0.555908
    O   O11  0.641164  0.080828  0.830175  -0.597203
    O   O12  0.596106  0.843984  0.897280  -0.470272
    C   C24  0.658711  0.973991  0.876146  0.550610
    O   O13  0.340566  0.946789  0.797530  -0.556800
    O   O14  0.523432  0.145565  0.694423  -0.501719
    C   C25  0.488870  0.249193  0.719350  0.540587
    O   O15  0.435516  0.978657  0.902540  -0.494556
    C   C26  0.354862  0.958727  0.880714  0.582304
    O   O16  0.464871  0.251736  0.803189  -0.484917
    Fe  Fe2  0.517378  0.000914  0.794932  1.429999
    C   C27  0.491261  0.509819  0.693532  -0.187162
    C   C28  0.503025  0.637665  0.639846  0.133090
    C   C29  0.508347  0.630937  0.550161  -0.305819
    C   C30  0.487619  0.374673  0.657900  -0.003180
    C   C31  0.485991  0.365104  0.566799  -0.082895
    C   C32  0.495983  0.494018  0.512413  0.270446
    C   C33  0.495693  0.483060  0.421169  -0.164122
    C   C34  0.498889  0.603258  0.362380  -0.075283
    C   C35  0.503134  0.588574  0.272667  -0.042932
    C   C36  0.472392  0.228417  0.528985  0.194376
    N   N1   0.478044  0.223168  0.441318  -0.388119
    C   C37  0.491035  0.346515  0.387374  0.353019
    C   C38  0.499702  0.335042  0.297746  -0.072821
    C   C39  0.507184  0.456219  0.240515  -0.096133
    H   H7   0.455159  0.122579  0.567437  0.122910
    H   H8   0.492017  0.519778  0.763665  0.175071
    H   H9   0.512458  0.444327  0.170449  0.193584
    H   H10  0.521921  0.736337  0.512257  0.181977
    H   H11  0.494912  0.708618  0.383867  0.144561
    C   C40  0.245992  0.037160  0.181428  0.703296
    O   O17  0.300470  0.153825  0.199908  -0.486221
    C   C41  0.199112  0.917676  0.252483  -0.505473
    H   H12  0.151242  0.821538  0.223999  0.100654
    H   H13  0.163587  0.964858  0.302671  0.151897
    H   H14  0.248236  0.877496  0.284059  0.177304
    C   C42  0.944265  0.070494  0.233576  0.721920
    O   O18  0.931282  0.179923  0.264925  -0.509612
    C   C43  0.954545  0.948670  0.293569  -0.451522
    H   H15  0.960337  0.853778  0.255271  0.100939
    H   H16  0.895492  0.906356  0.342404  0.158144
    H   H17  0.014263  0.994771  0.328867  0.124552
