# Generated by REPEAT Assigner based on pymatgen
data_DB0-m3_o4_o7_f0_pcu.sym.1_sqe
_audit_creation_date              2022-05-24
_audit_creation_method            REPEAT_Assigner
_cell_length_a                    17.785952
_cell_length_b                    10.977796
_cell_length_c                    9.832696
_cell_angle_alpha                 90.004532
_cell_angle_beta                  89.991689
_cell_angle_gamma                 89.995709
_cell_volume                      1919.839276
_symmetry_space_group_name_H-M    P1
_symmetry_Int_Tables_number       1
loop_
    _symmetry_equiv_pos_site_id
    _symmetry_equiv_pos_as_xyz
    1  x,y,z
loop_
    _atom_site_type_symbol
    _atom_site_label
    _atom_site_fract_x
    _atom_site_fract_y
    _atom_site_fract_z
    _atom_type_partial_charge
    O   O1   0.498125  0.315350  0.618915  -0.699471
    O   O2   0.497556  0.315322  0.384080  -0.681499
    C   C1   0.497821  0.258393  0.501387  0.864866
    O   O3   0.386645  0.498333  0.617945  -0.647647
    O   O4   0.386472  0.498146  0.383139  -0.642620
    C   C2   0.351295  0.499196  0.500615  0.627461
    Zn  Zn1  0.498648  0.497063  0.655721  1.065177
    Zn  Zn2  0.498552  0.496661  0.346219  1.058309
    O   O5   0.499638  0.678549  0.617814  -0.690800
    O   O6   0.499088  0.678136  0.383131  -0.660027
    O   O7   0.610692  0.495720  0.618622  -0.632296
    O   O8   0.610515  0.495506  0.384169  -0.642134
    C   C3   0.499614  0.735189  0.500194  0.841337
    C   C4   0.645841  0.495375  0.501314  0.635013
    C   C5   0.845169  0.498239  0.622268  -0.210530
    H   H1   0.875616  0.498977  0.717407  0.136099
    C   C6   0.767646  0.496661  0.622639  -0.099377
    H   H2   0.738530  0.496282  0.719090  0.112604
    C   C7   0.728344  0.495882  0.501156  0.001444
    C   C8   0.767564  0.496475  0.379566  -0.107306
    H   H3   0.738373  0.495951  0.283205  0.116429
    C   C9   0.845094  0.498054  0.379740  -0.209735
    H   H4   0.875484  0.498647  0.284525  0.137021
    C   C10  0.883898  0.499071  0.500959  0.288470
    C   C11  0.964571  0.500924  0.500893  -0.154653
    C   C12  0.032316  0.502278  0.500873  -0.196670
    C   C13  0.151805  0.503907  0.622001  -0.186412
    H   H5   0.121424  0.504383  0.717227  0.131423
    C   C14  0.229340  0.503472  0.622151  -0.170684
    H   H6   0.258390  0.504527  0.718405  0.144701
    C   C15  0.268681  0.501897  0.500727  0.045142
    C   C16  0.229296  0.503344  0.379356  -0.167010
    H   H7   0.258299  0.504300  0.283027  0.142724
    C   C17  0.151767  0.503779  0.379623  -0.189444
    H   H8   0.121357  0.504155  0.284443  0.132541
    C   C18  0.112995  0.503399  0.500838  0.308553
    C   C19  0.508101  0.056840  0.615711  0.258862
    C   C20  0.497852  0.124884  0.499970  -0.321177
    C   C21  0.488306  0.060400  0.379485  -0.114854
    H   H9   0.480026  0.107798  0.284366  0.122670
    C   C22  0.488902  0.933385  0.378844  -0.044057
    H   H10  0.480946  0.886366  0.283367  0.087183
    C   C23  0.499098  0.868474  0.498730  -0.303643
    C   C24  0.508613  0.935793  0.614853  0.173193
    C   C25  0.524033  0.924186  0.762417  -0.133609
    C   C26  0.523575  0.066276  0.763604  -0.303009
    H   H11  0.476103  0.883763  0.818710  0.062974
    H   H12  0.580361  0.885014  0.783103  0.073122
    H   H13  0.475540  0.104001  0.821264  0.127126
    H   H14  0.579620  0.106129  0.785131  0.100576
    C   C27  0.449631  0.432043  0.067725  0.252584
    N   N1   0.498486  0.495618  0.142762  -0.176838
    C   C28  0.549532  0.561747  0.072309  0.021500
    H   H15  0.590847  0.615279  0.126388  0.136055
    C   C29  0.549452  0.562063  0.929791  -0.084867
    H   H16  0.590842  0.615557  0.875839  0.157449
    N   N2   0.498044  0.496820  0.859193  -0.096826
    C   C30  0.448979  0.433448  0.934165  0.139519
    C   C31  0.382702  0.352584  0.921230  -0.089320
    C   C32  0.383859  0.350210  0.080991  -0.211182
    H   H17  0.332952  0.400606  0.880132  0.086802
    H   H18  0.396374  0.263603  0.874730  0.061778
    H   H19  0.334530  0.396208  0.126441  0.104861
    H   H20  0.399120  0.259934  0.123343  0.112128
