# Generated by REPEAT Assigner based on pymatgen
data_DB0-m2_o11_o11_f0_pcu.sym.110
_audit_creation_date              2022-05-24
_audit_creation_method            REPEAT_Assigner
_cell_length_a                    15.549360
_cell_length_b                    15.705743
_cell_length_c                    9.630963
_cell_angle_alpha                 90.000000
_cell_angle_beta                  90.028667
_cell_angle_gamma                 90.000000
_cell_volume                      2352.018098
_symmetry_space_group_name_H-M    P1
_symmetry_Int_Tables_number       1
loop_
    _symmetry_equiv_pos_site_id
    _symmetry_equiv_pos_as_xyz
    1  x,y,z
loop_
    _atom_site_type_symbol
    _atom_site_label
    _atom_site_fract_x
    _atom_site_fract_y
    _atom_site_fract_z
    _atom_type_partial_charge
    O   O1   0.395735  0.898927  0.622971  -0.650356
    O   O2   0.412396  0.077245  0.619467  -0.413626
    O   O3   0.897002  0.399120  0.623161  -0.654913
    O   O4   0.913153  0.577483  0.620114  -0.421656
    O   O5   0.394087  0.900078  0.384480  -0.518432
    O   O6   0.408732  0.074643  0.380786  -0.552095
    O   O7   0.893701  0.399792  0.384847  -0.518696
    O   O8   0.908095  0.574407  0.380918  -0.560811
    C   C1   0.364988  0.872140  0.503325  0.655028
    C   C2   0.383669  0.106152  0.500877  0.535085
    C   C3   0.865429  0.372056  0.504206  0.661187
    C   C4   0.883707  0.606045  0.501489  0.549974
    Cu  Cu1  0.490147  0.980512  0.639844  0.802471
    Cu  Cu2  0.991228  0.480957  0.640103  0.798663
    Cu  Cu3  0.489354  0.979739  0.361838  0.942766
    Cu  Cu4  0.988815  0.479577  0.362135  0.948154
    O   O9   0.588104  0.056900  0.617036  -0.507115
    O   O10  0.571712  0.886610  0.620392  -0.647179
    O   O11  0.088941  0.557618  0.617325  -0.498656
    O   O12  0.072990  0.387271  0.620231  -0.648777
    O   O13  0.581164  0.064173  0.378514  -0.598038
    O   O14  0.574524  0.889289  0.381940  -0.678016
    O   O15  0.080507  0.564178  0.378736  -0.595381
    O   O16  0.074190  0.389323  0.382320  -0.683196
    C   C5   0.615200  0.086483  0.498107  0.771992
    C   C6   0.598180  0.856783  0.500594  0.829634
    C   C7   0.115140  0.586985  0.497735  0.762633
    C   C8   0.098726  0.357113  0.500496  0.841257
    C   C9   0.726289  0.788173  0.407831  0.035086
    C   C10  0.709701  0.193609  0.393148  0.000008
    C   C11  0.226562  0.288419  0.406794  0.047395
    C   C12  0.209133  0.694164  0.391186  0.000648
    C   C13  0.661141  0.787424  0.499223  -0.363300
    C   C14  0.686109  0.148029  0.503430  -0.408637
    C   C15  0.161644  0.287732  0.498583  -0.376582
    C   C16  0.186021  0.648579  0.501728  -0.407191
    H   H1   0.728137  0.839019  0.331799  0.088557
    H   H2   0.679912  0.180778  0.293623  0.121026
    H   H3   0.228261  0.339208  0.330649  0.085833
    H   H4   0.178991  0.681383  0.291911  0.122167
    H   H5   0.652504  0.736894  0.573623  0.127121
    H   H6   0.719425  0.155416  0.601280  0.129764
    H   H7   0.153163  0.237176  0.572991  0.129923
    H   H8   0.219803  0.656056  0.599167  0.129118
    C   C17  0.295903  0.223343  0.398304  0.058776
    C   C18  0.280354  0.756583  0.395447  0.288532
    C   C19  0.795743  0.723206  0.399447  0.073566
    C   C20  0.780902  0.256037  0.397528  0.289378
    C   C21  0.324147  0.179342  0.510018  -0.060918
    C   C22  0.291881  0.811851  0.502007  -0.065732
    C   C23  0.823770  0.678888  0.510987  -0.077072
    C   C24  0.792668  0.311301  0.504094  -0.067342
    C   C25  0.427724  0.007123  0.925117  0.402764
    C   C26  0.928913  0.507515  0.925250  0.403587
    N   N1   0.491321  0.982460  0.847921  -0.011872
    N   N2   0.992191  0.481904  0.848207  -0.013288
    C   C27  0.438821  0.024177  0.077331  0.047283
    C   C28  0.940328  0.524638  0.077355  0.038713
    N   N3   0.487098  0.977339  0.153990  -0.296710
    N   N4   0.987489  0.476870  0.154278  -0.298201
    H   H9   0.401280  0.073149  0.126864  0.120702
    H   H10  0.904035  0.574604  0.126642  0.129922
    H   H11  0.507391  0.921657  0.108423  0.246550
    H   H12  0.006581  0.420713  0.108897  0.247783
    N   N5   0.337464  0.214608  0.268443  -0.327331
    C   C29  0.416152  0.251231  0.263006  0.671551
    O   O17  0.458508  0.261283  0.368257  -0.358397
    C   C30  0.450934  0.282142  0.128185  -0.664124
    H   H13  0.300054  0.228699  0.183383  0.242915
    H   H14  0.409303  0.333749  0.087804  0.148986
    H   H15  0.453304  0.229010  0.052819  0.236414
    H   H16  0.516766  0.307461  0.144304  0.186405
    N   N6   0.339394  0.754262  0.284095  -0.579385
    C   C31  0.310724  0.794976  0.169830  0.757377
    O   O18  0.255317  0.849503  0.180451  -0.535680
    C   C32  0.346867  0.774256  0.030308  -0.508761
    H   H17  0.365386  0.695357  0.263566  0.286122
    H   H18  0.395162  0.722514  0.037631  0.127519
    H   H19  0.378335  0.831557  0.986780  0.099728
    H   H20  0.294106  0.754151  0.960201  0.142129
    N   N7   0.837699  0.714903  0.269827  -0.338447
    C   C33  0.916403  0.751536  0.265221  0.675469
    O   O19  0.958202  0.761836  0.370989  -0.361616
    C   C34  0.951924  0.782101  0.130669  -0.664629
    H   H21  0.800547  0.729044  0.184498  0.247254
    H   H22  0.910388  0.833431  0.089100  0.148228
    H   H23  0.955015  0.728723  0.055799  0.234617
    H   H24  0.017558  0.807702  0.147676  0.188959
    N   N8   0.839464  0.254110  0.285495  -0.580562
    C   C35  0.810146  0.294902  0.171731  0.759909
    O   O20  0.754340  0.348968  0.183156  -0.534343
    C   C36  0.846171  0.274967  0.031844  -0.509147
    H   H25  0.865708  0.195384  0.264442  0.286205
    H   H26  0.894872  0.223563  0.038424  0.127859
    H   H27  0.877094  0.332678  0.988747  0.098156
    H   H28  0.793433  0.254764  0.961797  0.141152
    N   N9   0.302043  0.205814  0.645779  -0.315081
    C   C37  0.321131  0.287100  0.680050  0.733418
    O   O21  0.372874  0.327380  0.611380  -0.591792
    C   C38  0.279181  0.328614  0.801554  -0.478521
    H   H29  0.253486  0.174693  0.697129  0.287507
    H   H30  0.232978  0.284781  0.852206  0.075672
    H   H31  0.244538  0.386131  0.765347  0.121646
    H   H32  0.329105  0.347943  0.877225  0.134706
    N   N10  0.234228  0.813116  0.615802  -0.370226
    C   C39  0.155520  0.845491  0.588400  0.758930
    O   O22  0.132488  0.857141  0.468878  -0.546912
    C   C40  0.096120  0.867946  0.704356  -0.580886
    H   H33  0.258773  0.828109  0.711870  0.260211
    H   H34  0.127247  0.856864  0.806357  0.083082
    H   H35  0.037712  0.827792  0.697274  0.257364
    H   H36  0.077426  0.935836  0.695465  0.133927
    N   N11  0.801023  0.704638  0.646827  -0.303473
    C   C41  0.819673  0.785812  0.682372  0.733404
    O   O23  0.871391  0.826680  0.614590  -0.590376
    C   C42  0.777214  0.826504  0.804156  -0.487556
    H   H37  0.752443  0.673036  0.697332  0.285052
    H   H38  0.730630  0.782418  0.853290  0.078143
    H   H39  0.742900  0.884365  0.768627  0.122822
    H   H40  0.826788  0.845125  0.880899  0.138783
    N   N12  0.735628  0.312223  0.618697  -0.381034
    C   C43  0.656617  0.344262  0.592510  0.765392
    O   O24  0.632911  0.356006  0.473354  -0.546799
    C   C44  0.597702  0.366228  0.709379  -0.579661
    H   H41  0.760653  0.327328  0.714392  0.264256
    H   H42  0.629296  0.354776  0.810902  0.082522
    H   H43  0.539261  0.326079  0.702580  0.258292
    H   H44  0.578931  0.434140  0.701425  0.132923
    N   N13  0.343893  0.009189  0.867200  -0.562645
    C   C45  0.290848  0.070802  0.913840  0.596693
    O   O25  0.319239  0.140485  0.945386  -0.517626
    C   C46  0.196192  0.056306  0.915192  -0.346525
    H   H45  0.315200  0.950974  0.851881  0.309618
    H   H46  0.173856  0.041631  0.808563  0.103305
    H   H47  0.163347  0.114560  0.952878  0.104083
    H   H48  0.180746  0.002370  0.985212  0.121376
    N   N14  0.845049  0.510150  0.867454  -0.550483
    C   C47  0.791939  0.571284  0.915576  0.587295
    O   O26  0.820099  0.641038  0.947240  -0.517447
    C   C48  0.697363  0.556296  0.918018  -0.343314
    H   H49  0.816412  0.452043  0.850869  0.305589
    H   H50  0.674530  0.541995  0.811524  0.101873
    H   H51  0.664396  0.614190  0.956906  0.105445
    H   H52  0.682577  0.501942  0.987551  0.120194
    N   N15  0.571422  0.989632  0.907314  -0.640323
    C   C49  0.602964  0.069767  0.913615  0.894028
    O   O27  0.556089  0.130924  0.894823  -0.598962
    C   C50  0.696109  0.083964  0.942567  -0.615084
    H   H53  0.615192  0.944230  0.877151  0.370340
    H   H54  0.729470  0.022497  0.960048  0.124651
    H   H55  0.702776  0.123845  0.036918  0.155221
    H   H56  0.726026  0.117162  0.853312  0.176252
    N   N16  0.072325  0.487990  0.907850  -0.634887
    C   C51  0.105061  0.567674  0.913972  0.886933
    O   O28  0.059015  0.629522  0.895756  -0.596238
    C   C52  0.198510  0.580534  0.942121  -0.612792
    H   H57  0.115447  0.441925  0.877936  0.367818
    H   H58  0.230991  0.518621  0.959736  0.126361
    H   H59  0.206092  0.620527  0.036169  0.152936
    H   H60  0.228667  0.613080  0.852419  0.176790
