# Generated by REPEAT Assigner based on pymatgen
data_DB0-m29_o83_o430_f0_pts.sym.56
_audit_creation_date              2022-05-24
_audit_creation_method            REPEAT_Assigner
_cell_length_a                    15.815961
_cell_length_b                    16.491580
_cell_length_c                    13.202575
_cell_angle_alpha                 91.726329
_cell_angle_beta                  88.193611
_cell_angle_gamma                 112.429629
_cell_volume                      3180.923204
_symmetry_space_group_name_H-M    P1
_symmetry_Int_Tables_number       1
loop_
    _symmetry_equiv_pos_site_id
    _symmetry_equiv_pos_as_xyz
    1  x,y,z
loop_
    _atom_site_type_symbol
    _atom_site_label
    _atom_site_fract_x
    _atom_site_fract_y
    _atom_site_fract_z
    _atom_type_partial_charge
    C   C1   0.290618  0.005198  0.053540  -0.094049
    C   C2   0.276336  0.012494  0.951436  -0.008194
    C   C3   0.191452  0.009437  0.923141  -0.186021
    C   C4   0.218944  0.988400  0.121992  -0.080226
    C   C5   0.133784  0.984752  0.093733  -0.098593
    C   C6   0.120271  0.999556  0.993769  0.189015
    C   C7   0.036114  0.002990  0.966559  -0.007199
    C   C8   0.021357  0.023295  0.868732  -0.146101
    C   C9   0.938620  0.023873  0.842624  -0.171954
    C   C10  0.062411  0.965799  0.164833  0.118746
    C   C11  0.978869  0.964777  0.135914  -0.297169
    C   C12  0.965441  0.987400  0.038980  0.112819
    C   C13  0.881836  0.992860  0.012552  0.056253
    C   C14  0.869424  0.008857  0.913321  0.162896
    C   C15  0.787902  0.010912  0.882906  -0.188460
    C   C16  0.810843  0.985698  0.082359  -0.122659
    C   C17  0.728395  0.987967  0.052454  0.010888
    C   C18  0.716052  0.997715  0.950313  -0.071055
    H   H1   0.182623  0.012620  0.843534  0.122707
    H   H2   0.233525  0.982020  0.199747  0.139970
    H   H3   0.072170  0.040337  0.808843  0.154302
    H   H4   0.929235  0.038487  0.765506  0.130668
    H   H5   0.923790  0.944419  0.190382  0.214687
    H   H6   0.779376  0.020157  0.803763  0.185772
    H   H7   0.818568  0.982652  0.162377  0.084261
    O   O1   0.595572  0.016051  0.111810  -0.562168
    C   C19  0.659101  0.986076  0.131337  0.578755
    O   O2   0.467795  0.814876  0.234943  -0.490178
    O   O3   0.664854  0.960802  0.223262  -0.474912
    O   O4   0.490991  0.932764  0.341761  -0.604328
    C   C20  0.472010  0.848504  0.326892  0.633874
    Fe  Fe1  0.509639  0.011522  0.225730  1.493330
    O   O5   0.383626  0.966905  0.168580  -0.656708
    O   O6   0.451666  0.088047  0.073657  -0.486943
    C   C21  0.379614  0.017343  0.095173  0.802621
    O   O7   0.564997  0.134590  0.281695  -0.660829
    O   O8   0.415618  0.115838  0.294720  -0.564556
    C   C22  0.501380  0.162392  0.314951  0.729968
    O   O9   0.435674  0.890019  0.717708  -0.653714
    O   O10  0.575272  0.881236  0.720760  -0.533822
    C   C23  0.490486  0.849648  0.690664  0.701284
    O   O11  0.630178  0.040380  0.830837  -0.674556
    O   O12  0.552016  0.929614  0.937096  -0.487690
    C   C24  0.629072  0.992065  0.908581  0.807257
    O   O13  0.328174  0.021860  0.775437  -0.516545
    O   O14  0.530387  0.093137  0.664199  -0.585001
    C   C25  0.523735  0.169737  0.678134  0.555831
    O   O15  0.423693  0.012001  0.894158  -0.576892
    C   C26  0.346032  0.017607  0.871096  0.658983
    O   O16  0.504843  0.195134  0.768192  -0.489011
    Fe  Fe2  0.504246  0.010062  0.777032  1.494084
    H   H8   0.533631  0.116731  0.488158  0.143604
    C   C27  0.519282  0.217570  0.406120  0.062119
    C   C28  0.508715  0.296514  0.409265  -0.217921
    H   H9   0.495642  0.322226  0.339729  0.121020
    C   C29  0.511150  0.340185  0.501094  0.121254
    C   C30  0.518220  0.300750  0.590630  -0.217236
    H   H10  0.517375  0.332726  0.663066  0.136394
    C   C31  0.526563  0.220009  0.587000  0.109878
    C   C32  0.530175  0.180848  0.493972  -0.179885
    C   C33  0.448465  0.446286  0.575192  -0.144235
    H   H11  0.412238  0.399825  0.632844  0.130639
    C   C34  0.438232  0.525650  0.573605  -0.149600
    H   H12  0.394706  0.539321  0.630670  0.112948
    C   C35  0.481192  0.585806  0.499043  0.100325
    C   C36  0.534329  0.565080  0.425726  -0.139592
    H   H13  0.570854  0.611652  0.368300  0.136666
    C   C37  0.544530  0.485703  0.427285  -0.160803
    H   H14  0.588319  0.472192  0.370421  0.121718
    C   C38  0.501821  0.425676  0.502050  0.110506
    C   C39  0.467939  0.713128  0.412464  -0.161537
    H   H15  0.468082  0.681605  0.339572  0.124604
    C   C40  0.464346  0.795864  0.417301  0.012164
    C   C41  0.462129  0.834793  0.510865  -0.123575
    H   H16  0.461149  0.899876  0.517029  0.131913
    C   C42  0.470586  0.795860  0.598255  0.031845
    C   C43  0.477933  0.715462  0.593652  -0.183472
    H   H17  0.489979  0.688253  0.662625  0.123821
    C   C44  0.473610  0.672090  0.501289  0.098041
    C   C45  0.074750  0.944640  0.272443  0.301176
    O   O17  0.994615  0.924323  0.330904  -0.590318
    H   H18  0.128351  0.002272  0.308417  -0.010254
    H   H19  0.095496  0.887515  0.272608  0.028058
    H   H20  0.011530  0.967941  0.387473  0.370297
