# Generated by REPEAT Assigner based on pymatgen
data_DB0-m3_o16_o20_f0_pcu.sym.31
_audit_creation_date              2022-05-24
_audit_creation_method            REPEAT_Assigner
_cell_length_a                    12.564198
_cell_length_b                    13.747848
_cell_length_c                    14.526677
_cell_angle_alpha                 89.990543
_cell_angle_beta                  103.089302
_cell_angle_gamma                 86.653666
_cell_volume                      2439.611049
_symmetry_space_group_name_H-M    P1
_symmetry_Int_Tables_number       1
loop_
    _symmetry_equiv_pos_site_id
    _symmetry_equiv_pos_as_xyz
    1  x,y,z
loop_
    _atom_site_type_symbol
    _atom_site_label
    _atom_site_fract_x
    _atom_site_fract_y
    _atom_site_fract_z
    _atom_type_partial_charge
    O   O1   0.375130  0.623826  0.490111  -0.671607
    O   O2   0.558713  0.652482  0.526152  -0.629725
    C   C1   0.455005  0.683647  0.506489  0.704729
    O   O3   0.416381  0.474950  0.629443  -0.712139
    O   O4   0.600653  0.503573  0.663532  -0.677624
    C   C2   0.509579  0.487440  0.689396  0.990404
    Zn  Zn1  0.381702  0.476303  0.486281  1.054050
    Zn  Zn2  0.624224  0.513872  0.530492  1.030654
    O   O5   0.447073  0.337494  0.492544  -0.669686
    O   O6   0.630677  0.366365  0.526542  -0.710173
    O   O7   0.405612  0.486005  0.353326  -0.701132
    O   O8   0.588599  0.516872  0.387291  -0.700253
    C   C3   0.550738  0.307008  0.509356  0.745991
    C   C4   0.496075  0.503149  0.327294  0.967829
    C   C5   0.510143  0.488069  0.788304  -0.371980
    C   C6   0.508353  0.490198  0.870880  0.153936
    C   C7   0.504642  0.493820  0.967270  -0.056655
    C   C8   0.501062  0.497175  0.049424  -0.034530
    C   C9   0.497343  0.500722  0.145814  0.133103
    C   C10  0.495539  0.502729  0.228390  -0.343901
    C   C11  0.700789  0.077586  0.465096  -0.249556
    H   H1   0.736172  0.226308  0.474095  0.089922
    H   H2   0.724203  0.895710  0.424520  0.132140
    H   H3   0.776803  0.056243  0.445590  0.120398
    C   C12  0.579016  0.202714  0.501761  -0.069512
    C   C13  0.327984  0.813206  0.536985  -0.093124
    C   C14  0.297754  0.908376  0.550623  -0.119157
    C   C15  0.363689  0.981366  0.539145  -0.163911
    C   C16  0.460873  0.960824  0.510082  0.055175
    C   C17  0.490037  0.863587  0.493524  0.188766
    C   C18  0.530055  0.034697  0.497921  0.003203
    C   C19  0.627257  0.008903  0.471937  0.245417
    C   C20  0.651140  0.914462  0.449756  -0.236635
    C   C21  0.581960  0.843189  0.457408  -0.236209
    C   C22  0.505595  0.133829  0.510187  -0.146481
    C   C23  0.677939  0.173820  0.481658  -0.069086
    C   C24  0.424862  0.788937  0.510570  -0.147693
    H   H4   0.430125  0.161070  0.526126  0.113003
    H   H5   0.276065  0.757618  0.550790  0.112743
    H   H6   0.334969  0.053294  0.554428  0.127082
    H   H7   0.222624  0.925956  0.573069  0.102503
    H   H8   0.602147  0.772348  0.432565  0.163052
    C   C25  0.076999  0.373361  0.360377  -0.045569
    H   H9   0.242590  0.360345  0.347652  0.183906
    H   H10  0.866611  0.334085  0.342890  0.163635
    N   N1   0.221679  0.452170  0.457898  0.009904
    C   C26  0.814402  0.602440  0.626713  0.011892
    C   C27  0.920726  0.628392  0.651438  -0.111271
    C   C28  0.997101  0.588636  0.605841  -0.126726
    C   C29  0.966971  0.521227  0.534553  0.053922
    C   C30  0.857957  0.496864  0.512032  0.170916
    C   C31  0.041759  0.478021  0.484836  0.049125
    C   C32  0.004734  0.414117  0.411747  0.148171
    C   C33  0.897505  0.388590  0.393624  -0.205757
    C   C34  0.825952  0.429627  0.442632  -0.148493
    C   C35  0.153087  0.495895  0.506270  -0.159655
    C   C36  0.185706  0.391976  0.386593  -0.087574
    N   N2   0.783666  0.537614  0.557968  -0.104295
    H   H11  0.189062  0.543148  0.562086  0.185824
    H   H12  0.755002  0.635141  0.662560  0.136256
    H   H13  0.078178  0.613743  0.628214  0.139038
    H   H14  0.944337  0.680958  0.706536  0.127065
    H   H15  0.744230  0.406601  0.424983  0.213761
    C   C37  0.043252  0.312443  0.276583  0.621320
    O   O9   0.960022  0.334281  0.216908  -0.492146
    O   O10  0.113253  0.235698  0.259701  -0.578997
    H   H16  0.080702  0.203954  0.197658  0.422418
