# Generated by REPEAT Assigner based on pymatgen
data_DB0-m29_o99_o500_f0_pts.sym.88
_audit_creation_date              2022-05-24
_audit_creation_method            REPEAT_Assigner
_cell_length_a                    15.936006
_cell_length_b                    12.745220
_cell_length_c                    13.786155
_cell_angle_alpha                 68.630971
_cell_angle_beta                  97.532192
_cell_angle_gamma                 109.141222
_cell_volume                      2463.200828
_symmetry_space_group_name_H-M    P1
_symmetry_Int_Tables_number       1
loop_
    _symmetry_equiv_pos_site_id
    _symmetry_equiv_pos_as_xyz
    1  x,y,z
loop_
    _atom_site_type_symbol
    _atom_site_label
    _atom_site_fract_x
    _atom_site_fract_y
    _atom_site_fract_z
    _atom_type_partial_charge
    C   C1   0.208676  0.983240  0.850489  -0.192698
    H   H1   0.219424  0.980059  0.775948  0.179008
    C   C2   0.126440  0.981241  0.872099  -0.115917
    H   H2   0.072732  0.973560  0.815928  0.135964
    C   C3   0.112708  0.990838  0.964361  0.097077
    C   C4   0.180775  0.999326  0.037459  0.360663
    C   C5   0.264932  0.001076  0.016248  -0.126027
    C   C6   0.278390  0.996059  0.920281  0.003315
    C   C7   0.025943  0.988824  0.984911  -0.080463
    C   C8   0.953153  0.988024  0.001169  -0.133612
    C   C9   0.799691  0.985689  0.945740  0.283334
    C   C10  0.714676  0.979230  0.968305  -0.170538
    C   C11  0.699706  0.977603  0.066356  0.056074
    C   C12  0.768500  0.985691  0.137900  -0.205564
    H   H3   0.756535  0.983661  0.214035  0.177184
    C   C13  0.851020  0.988754  0.116011  -0.085270
    H   H4   0.903645  0.991333  0.173984  0.130914
    C   C14  0.866400  0.986664  0.021127  0.121110
    O   O1   0.530464  0.175162  0.663954  -0.583165
    C   C15  0.467675  0.181450  0.592090  0.550931
    O   O2   0.431535  0.109861  0.885339  -0.500460
    O   O3   0.393904  0.092843  0.608186  -0.556114
    O   O4   0.376221  0.947374  0.837145  -0.545583
    C   C16  0.366462  0.014782  0.884909  0.679745
    Fe  Fe1  0.493305  0.014558  0.769243  1.396981
    O   O5   0.576005  0.015489  0.892149  -0.476525
    O   O6   0.647027  0.944706  0.810223  -0.494148
    C   C17  0.642869  0.978163  0.888358  0.622186
    O   O7   0.494177  0.916243  0.684327  -0.509942
    O   O8   0.448856  0.752708  0.829203  -0.493860
    C   C18  0.470642  0.800932  0.730576  0.588174
    O   O9   0.485101  0.059330  0.301346  -0.574798
    O   O10  0.537634  0.219846  0.157407  -0.438842
    C   C19  0.514217  0.174630  0.255435  0.697705
    O   O11  0.399692  0.955554  0.096593  -0.511436
    O   O12  0.339819  0.050741  0.165596  -0.514247
    C   C20  0.337786  0.003803  0.094813  0.556725
    O   O13  0.588695  0.881841  0.374294  -0.562975
    O   O14  0.600518  0.027363  0.146366  -0.503833
    C   C21  0.611379  0.957827  0.101644  0.613639
    O   O15  0.449765  0.799722  0.324281  -0.629314
    C   C22  0.514778  0.793406  0.393202  0.611225
    O   O16  0.547583  0.860460  0.104420  -0.531827
    Fe  Fe2  0.484747  0.959520  0.217257  1.427961
    C   C23  0.491376  0.785148  0.564701  -0.182237
    C   C24  0.492465  0.723225  0.501906  0.032773
    C   C25  0.475778  0.601830  0.543197  0.137258
    C   C26  0.454576  0.544378  0.648086  -0.141133
    H   H5   0.437810  0.449350  0.682592  0.123673
    C   C27  0.452016  0.607431  0.710406  -0.124107
    C   C28  0.471148  0.728780  0.668691  0.030623
    C   C29  0.480876  0.536903  0.475755  -0.248355
    C   C30  0.505448  0.438356  0.512442  -0.109231
    H   H6   0.464875  0.571452  0.393852  0.199999
    H   H7   0.521433  0.403503  0.594300  0.167924
    C   C31  0.492873  0.252815  0.484319  0.041825
    C   C32  0.494200  0.192009  0.420587  -0.160514
    C   C33  0.516833  0.249146  0.317072  -0.077019
    C   C34  0.539322  0.371850  0.277324  0.273198
    C   C35  0.534798  0.433034  0.340623  -0.233381
    H   H8   0.553075  0.528318  0.308034  0.120426
    C   C36  0.511108  0.374277  0.444532  0.103630
    H   H9   0.505497  0.879797  0.529434  0.171661
    H   H10  0.435156  0.560884  0.791612  0.142463
    H   H11  0.478087  0.097083  0.455047  0.180685
    N   N1   0.564280  0.436042  0.172511  -0.519734
    C   C37  0.652198  0.465362  0.157188  0.773556
    O   O17  0.697556  0.411977  0.221518  -0.529715
    C   C38  0.694673  0.563078  0.061734  -0.474055
    H   H12  0.537696  0.504152  0.134609  0.329193
    H   H13  0.644495  0.600336  0.009744  0.110910
    H   H14  0.727140  0.528224  0.019163  0.173308
    H   H15  0.745511  0.633825  0.084594  0.093171
    N   N2   0.160635  0.996094  0.135604  -0.696760
    C   C39  0.164016  0.101157  0.140841  0.890655
    O   O18  0.166509  0.185727  0.061357  -0.555478
    C   C40  0.165239  0.114206  0.244143  -0.513890
    H   H16  0.178727  0.937327  0.202261  0.340003
    H   H17  0.224617  0.095393  0.289643  0.144291
    H   H18  0.104335  0.051398  0.287168  0.125896
    H   H19  0.167556  0.205891  0.232585  0.142633
    N   N3   0.819493  0.993023  0.846067  -0.430835
    C   C41  0.847894  0.104593  0.778226  0.751713
    O   O19  0.832885  0.185029  0.793669  -0.537252
    C   C42  0.897861  0.129841  0.684134  -0.495196
    H   H20  0.852803  0.937825  0.842198  0.258160
    H   H21  0.856315  0.077913  0.636195  0.142872
    H   H22  0.960054  0.105414  0.708150  0.114204
    H   H23  0.914485  0.225475  0.637684  0.159432
