# Generated by REPEAT Assigner based on pymatgen
data_DB0-m29_o81_o46_f0_pts.sym.76
_audit_creation_date              2022-05-24
_audit_creation_method            REPEAT_Assigner
_cell_length_a                    15.703930
_cell_length_b                    10.153235
_cell_length_c                    13.107469
_cell_angle_alpha                 83.038429
_cell_angle_beta                  87.040513
_cell_angle_gamma                 111.136544
_cell_volume                      1924.670274
_symmetry_space_group_name_H-M    P1
_symmetry_Int_Tables_number       1
loop_
    _symmetry_equiv_pos_site_id
    _symmetry_equiv_pos_as_xyz
    1  x,y,z
loop_
    _atom_site_type_symbol
    _atom_site_label
    _atom_site_fract_x
    _atom_site_fract_y
    _atom_site_fract_z
    _atom_type_partial_charge
    C   C1   0.869674  0.957228  0.862758  -0.266072
    C   C2   0.276693  0.969940  0.914264  0.056592
    C   C3   0.189016  0.949742  0.888795  -0.176103
    C   C4   0.123277  0.956614  0.959470  0.160098
    C   C5   0.038568  0.944539  0.929211  -0.230265
    C   C6   0.972358  0.961515  0.995757  0.030786
    C   C7   0.787825  0.955403  0.831891  0.210617
    C   C8   0.719126  0.955469  0.902447  -0.096269
    C   C9   0.887855  0.960891  0.964789  0.137686
    C   C10  0.821401  0.968873  0.036005  0.061068
    C   C11  0.735453  0.963005  0.005626  -0.078997
    C   C12  0.296794  0.991545  0.014943  -0.141752
    C   C13  0.228622  0.991624  0.086497  -0.161869
    C   C14  0.142676  0.977860  0.058079  0.172011
    C   C15  0.076286  0.987160  0.127042  -0.269075
    C   C16  0.991919  0.980118  0.095793  0.194888
    C   C17  0.927839  0.994406  0.164746  -0.180767
    C   C18  0.843630  0.988543  0.135788  -0.136568
    H   H1   0.917819  0.958464  0.801274  0.093203
    H   H2   0.171791  0.932833  0.811515  0.128576
    H   H3   0.027897  0.921242  0.852230  0.176834
    H   H4   0.244318  0.009330  0.164168  0.177146
    H   H5   0.091095  0.003467  0.205183  0.154381
    H   H6   0.943434  0.011121  0.242618  0.129326
    H   H7   0.798137  0.005089  0.192889  0.147994
    O   O1   0.614524  0.044258  0.063529  -0.566885
    C   C19  0.661880  0.961078  0.082099  0.568915
    O   O2   0.429839  0.701974  0.221571  -0.491425
    O   O3   0.640903  0.870593  0.168225  -0.500194
    O   O4   0.507065  0.883500  0.308531  -0.633204
    C   C20  0.464817  0.746369  0.305537  0.782181
    Fe  Fe1  0.522689  0.019416  0.180852  1.470008
    O   O5   0.398119  0.940054  0.130831  -0.663780
    O   O6   0.457027  0.137956  0.009369  -0.514400
    C   C21  0.388582  0.019851  0.048892  0.959012
    O   O7   0.567562  0.215412  0.221758  -0.671299
    O   O8   0.418419  0.191035  0.216965  -0.588128
    C   C22  0.500442  0.260154  0.242652  0.745793
    O   O9   0.435324  0.823611  0.670737  -0.542718
    O   O10  0.541129  0.735610  0.727576  -0.404025
    C   C23  0.474340  0.728971  0.670155  0.494278
    O   O11  0.633349  0.020653  0.773729  -0.598393
    O   O12  0.552968  0.867924  0.917489  -0.467973
    C   C24  0.631582  0.949889  0.864981  0.696881
    O   O13  0.319549  0.946951  0.739936  -0.476708
    O   O14  0.546563  0.159551  0.609698  -0.604291
    C   C25  0.501985  0.246706  0.609536  0.551344
    O   O15  0.429533  0.992238  0.850006  -0.573368
    C   C26  0.344143  0.967476  0.832658  0.582631
    O   O16  0.441336  0.230958  0.687149  -0.476332
    Fe  Fe2  0.510382  0.000645  0.726441  1.430822
    C   C27  0.455322  0.648753  0.401718  -0.292901
    C   C28  0.445434  0.703464  0.491045  -0.032620
    H   H8   0.433385  0.802179  0.485605  0.109105
    C   C29  0.462097  0.645605  0.584522  0.074064
    C   C30  0.483326  0.525125  0.590674  -0.078262
    H   H9   0.502337  0.488021  0.663323  0.119527
    C   C31  0.485078  0.459217  0.504009  -0.109154
    C   C32  0.473594  0.522978  0.407736  0.379669
    H   H10  0.470923  0.501688  0.244899  0.197473
    C   C33  0.482731  0.461352  0.320271  -0.346853
    C   C34  0.506521  0.342696  0.327945  0.104925
    H   H11  0.530177  0.183153  0.427062  0.150397
    C   C35  0.518720  0.282311  0.422498  -0.221724
    C   C36  0.504519  0.335160  0.511171  0.113723
    C   C37  0.775171  0.941038  0.723364  0.046082
    C   C38  0.803544  0.058976  0.645960  0.236329
    C   C39  0.843248  0.209103  0.668102  -0.278286
    C   C40  0.794625  0.038419  0.544225  -0.224541
    C   C41  0.759171  0.902530  0.519006  -0.151789
    C   C42  0.732965  0.785909  0.595471  -0.114873
    C   C43  0.741576  0.805309  0.697189  -0.170847
    H   H12  0.845414  0.216211  0.751531  0.059368
    H   H13  0.801135  0.268641  0.636517  0.087847
    H   H14  0.914108  0.260824  0.629107  0.059364
    H   H15  0.815880  0.129540  0.483702  0.128314
    H   H16  0.752609  0.887502  0.439134  0.134584
    H   H17  0.706073  0.679213  0.575687  0.109677
    H   H18  0.721975  0.713473  0.756944  0.109190
