# Generated by REPEAT Assigner based on pymatgen
data_DB0-m2_o29_o105_f0_fsc_sqe
_audit_creation_date              2022-05-24
_audit_creation_method            REPEAT_Assigner
_cell_length_a                    10.949105
_cell_length_b                    10.878745
_cell_length_c                    26.585462
_cell_angle_alpha                 90.000000
_cell_angle_beta                  90.000000
_cell_angle_gamma                 90.000000
_cell_volume                      3166.661360
_symmetry_space_group_name_H-M    P1
_symmetry_Int_Tables_number       1
loop_
    _symmetry_equiv_pos_site_id
    _symmetry_equiv_pos_as_xyz
    1  x,y,z
loop_
    _atom_site_type_symbol
    _atom_site_label
    _atom_site_fract_x
    _atom_site_fract_y
    _atom_site_fract_z
    _atom_type_partial_charge
    O   O1   0.138558  0.128156  0.962200  -0.668772
    O   O2   0.863115  0.873454  0.037513  -0.602113
    O   O3   0.889461  0.871337  0.952415  -0.675474
    O   O4   0.108329  0.133812  0.046975  -0.636096
    O   O5   0.110576  0.871774  0.047559  -0.674520
    O   O6   0.891214  0.133523  0.952878  -0.636770
    O   O7   0.861000  0.128019  0.037656  -0.668010
    O   O8   0.136810  0.873410  0.962457  -0.602642
    C   C1   0.165659  0.173337  0.006690  0.778339
    C   C2   0.834084  0.830068  0.992912  0.763305
    C   C3   0.166018  0.830386  0.007106  0.763077
    C   C4   0.833818  0.173061  0.993155  0.778205
    Cu  Cu1  0.013892  0.001601  0.949676  0.991214
    Cu  Cu2  0.985899  0.001744  0.050205  0.989717
    C   C5   0.034952  0.105157  0.683041  0.553668
    C   C6   0.975871  0.890165  0.316146  0.551182
    C   C7   0.027477  0.890606  0.683610  0.552777
    C   C8   0.962517  0.104421  0.316761  0.548326
    O   O9   0.043460  0.205908  0.706893  -0.519826
    O   O10  0.981995  0.790198  0.291633  -0.518285
    O   O11  0.024116  0.790433  0.708072  -0.517261
    O   O12  0.951620  0.204913  0.292895  -0.519573
    N   N1   0.033986  0.998198  0.708704  -0.295512
    N   N2   0.966426  0.997568  0.291100  -0.290612
    C   C9   0.938573  0.053261  0.788373  -0.234483
    C   C10  0.876197  0.945825  0.209258  -0.222902
    C   C11  0.124464  0.946919  0.790606  -0.225718
    C   C12  0.061276  0.053634  0.211466  -0.233107
    C   C13  0.937599  0.052561  0.840288  0.053527
    C   C14  0.881051  0.949223  0.157149  0.021997
    C   C15  0.119339  0.949923  0.842713  0.022230
    C   C16  0.062110  0.053096  0.159547  0.052569
    C   C17  0.032925  0.999680  0.762655  0.345102
    C   C18  0.967426  0.999174  0.237177  0.342145
    C   C19  0.019626  0.997208  0.604605  0.158893
    C   C20  0.980541  0.996816  0.395166  0.145968
    C   C21  0.027761  0.105862  0.630923  -0.184631
    C   C22  0.982820  0.888611  0.368322  -0.182921
    C   C23  0.020475  0.888948  0.631426  -0.189016
    C   C24  0.969437  0.105238  0.368871  -0.175643
    C   C25  0.029292  0.215130  0.605001  -0.033488
    C   C26  0.994773  0.779255  0.393731  -0.032748
    C   C27  0.011523  0.779327  0.605990  -0.027823
    C   C28  0.964781  0.214370  0.394808  -0.037728
    N   N3   0.026934  0.002321  0.868084  -0.083894
    N   N4   0.972963  0.002460  0.131771  -0.082997
    H   H1   0.192887  0.907575  0.863548  0.098223
    H   H2   0.139136  0.094930  0.140856  0.086647
    H   H3   0.860247  0.093837  0.858962  0.086376
    H   H4   0.807764  0.906371  0.136328  0.098180
    H   H5   0.201160  0.903662  0.772101  0.151155
    H   H6   0.136225  0.095385  0.231699  0.151678
    H   H7   0.863321  0.094411  0.768136  0.151900
    H   H8   0.799937  0.901847  0.227793  0.149794
    H   H9   0.038381  0.302010  0.624341  0.128757
    H   H10  0.998739  0.692711  0.373856  0.127646
    H   H11  0.010036  0.692684  0.625851  0.126473
    H   H12  0.953228  0.300959  0.375474  0.129009
    C   C29  0.990777  0.107514  0.473661  0.042486
    C   C30  0.004272  0.885928  0.526316  0.057784
    C   C31  0.998834  0.885892  0.473436  0.049956
    C   C32  0.006223  0.107690  0.526134  0.064439
    C   C33  0.989938  0.996706  0.447591  0.022713
    C   C34  0.010146  0.996911  0.552185  0.006995
    C   C35  0.974706  0.215777  0.446304  -0.196970
    C   C36  0.003283  0.777504  0.554398  -0.207269
    C   C37  0.002842  0.777577  0.445328  -0.200604
    C   C38  0.019279  0.216327  0.553509  -0.207418
    H   H13  0.966447  0.304997  0.463244  0.133006
    H   H14  0.993367  0.687699  0.538165  0.136110
    H   H15  0.015129  0.688038  0.461535  0.133735
    H   H16  0.024980  0.305774  0.536590  0.136080
    C   C39  0.242350  0.283853  0.010411  0.023754
    C   C40  0.757288  0.719635  0.989196  -0.013279
    C   C41  0.242685  0.719893  0.010967  -0.014666
    C   C42  0.757077  0.283563  0.989461  0.022059
    C   C43  0.186260  0.393533  0.020448  -0.231046
    C   C44  0.813184  0.609872  0.979106  -0.206740
    C   C45  0.186397  0.610149  0.020662  -0.205462
    C   C46  0.813059  0.393210  0.979220  -0.229623
    C   C47  0.250376  0.501825  0.017102  0.177381
    C   C48  0.749215  0.501588  0.982960  0.176383
    C   C49  0.366805  0.281444  0.001830  -0.240534
    C   C50  0.633107  0.722047  0.998424  -0.214037
    C   C51  0.367157  0.722278  0.002432  -0.209369
    C   C52  0.632795  0.281297  0.998498  -0.239846
    C   C53  0.436190  0.389955  0.003282  0.070540
    C   C54  0.563694  0.613542  0.997347  0.061044
    C   C55  0.436378  0.613631  0.003525  0.056179
    C   C56  0.563536  0.389895  0.997280  0.070595
    C   C57  0.375090  0.501806  0.008125  -0.005231
    C   C58  0.624726  0.501680  0.992430  -0.004218
    H   H17  0.405557  0.193186  0.992948  0.131535
    H   H18  0.594669  0.810312  0.007530  0.126927
    H   H19  0.405959  0.810643  0.993780  0.125368
    H   H20  0.594077  0.193125  0.007571  0.131608
    H   H21  0.088964  0.394948  0.027070  0.136642
    H   H22  0.910303  0.608414  0.972059  0.135478
    H   H23  0.089075  0.608815  0.027219  0.135173
    H   H24  0.910168  0.394559  0.972154  0.136828
