# Generated by REPEAT Assigner based on pymatgen
data_DB0-m9_o7_o23_f0_sra.sym.83
_audit_creation_date              2022-05-24
_audit_creation_method            REPEAT_Assigner
_cell_length_a                    25.282194
_cell_length_b                    6.752572
_cell_length_c                    21.368025
_cell_angle_alpha                 90.000000
_cell_angle_beta                  95.986137
_cell_angle_gamma                 90.000000
_cell_volume                      3628.054109
_symmetry_space_group_name_H-M    P1
_symmetry_Int_Tables_number       1
loop_
    _symmetry_equiv_pos_site_id
    _symmetry_equiv_pos_as_xyz
    1  x,y,z
loop_
    _atom_site_type_symbol
    _atom_site_label
    _atom_site_fract_x
    _atom_site_fract_y
    _atom_site_fract_z
    _atom_type_partial_charge
    O  O1   0.553877  0.505021  0.448861  -0.549782
    O  O2   0.446123  0.005021  0.551139  -0.549762
    O  O3   0.441073  0.162804  0.433424  -0.552932
    O  O4   0.558927  0.662804  0.566576  -0.552797
    C  C1   0.419747  0.337523  0.422889  0.708442
    C  C2   0.580252  0.837523  0.577111  0.708309
    O  O5   0.549823  0.162653  0.436049  -0.541010
    O  O6   0.450177  0.662653  0.563951  -0.540988
    O  O7   0.561185  0.004761  0.553876  -0.566144
    O  O8   0.438815  0.504761  0.446124  -0.566071
    C  C3   0.569533  0.337542  0.426652  0.596441
    C  C4   0.430467  0.837542  0.573348  0.596362
    O  O9   0.503112  0.330772  0.539045  -0.514416
    O  O10  0.496888  0.830772  0.460955  -0.514403
    V  V1   0.499421  0.055968  0.492169  1.466505
    V  V2   0.500579  0.555968  0.507831  1.466277
    C  C5   0.170022  0.091558  0.819197  -0.218029
    C  C6   0.829978  0.591558  0.180804  -0.217991
    H  H1   0.183817  0.221255  0.796080  0.139430
    H  H2   0.816183  0.721255  0.203920  0.139421
    C  C7   0.129970  0.108175  0.857864  -0.148781
    C  C8   0.870029  0.608175  0.142136  -0.148830
    H  H3   0.112310  0.250982  0.865217  0.160573
    H  H4   0.887689  0.750982  0.134783  0.160633
    C  C9   0.112578  0.942642  0.887379  0.029731
    C  C10  0.887422  0.442642  0.112621  0.029666
    C  C11  0.135047  0.760310  0.878223  -0.072855
    C  C12  0.864953  0.260310  0.121777  -0.072906
    H  H5   0.121365  0.630757  0.901515  0.097951
    H  H6   0.878634  0.130757  0.098485  0.097923
    C  C13  0.175134  0.743680  0.839523  -0.239215
    C  C14  0.824866  0.243680  0.160477  -0.239121
    H  H7   0.192927  0.601011  0.832325  0.144230
    H  H8   0.807072  0.101011  0.167675  0.144199
    C  C15  0.192602  0.909456  0.810145  0.326333
    C  C16  0.807397  0.409456  0.189855  0.326314
    C  C17  0.234381  0.893191  0.770116  -0.172762
    C  C18  0.765618  0.393191  0.229884  -0.172812
    C  C19  0.269422  0.881584  0.736308  -0.194655
    C  C20  0.730578  0.381584  0.263692  -0.194596
    C  C21  0.328835  0.040339  0.669361  -0.283213
    C  C22  0.671165  0.540339  0.330639  -0.283279
    H  H9   0.311768  0.182006  0.679576  0.157008
    H  H10  0.688232  0.682006  0.320424  0.157007
    C  C23  0.368235  0.029636  0.629610  -0.045599
    C  C24  0.631764  0.529636  0.370390  -0.045479
    H  H11  0.382125  0.162857  0.608525  0.143936
    H  H12  0.617875  0.662857  0.391475  0.143918
    C  C25  0.389654  0.848662  0.616378  -0.055434
    C  C26  0.610346  0.348662  0.383622  -0.055596
    C  C27  0.371958  0.678361  0.643024  -0.067099
    C  C28  0.628042  0.178361  0.356976  -0.066872
    H  H13  0.388761  0.536558  0.632441  0.110743
    H  H14  0.611239  0.036557  0.367560  0.110679
    C  C29  0.332527  0.689070  0.682797  -0.237600
    C  C30  0.667473  0.189070  0.317203  -0.237845
    H  H15  0.318358  0.555714  0.703528  0.133522
    H  H16  0.681642  0.055714  0.296472  0.133596
    C  C31  0.310943  0.870049  0.695776  0.363022
    C  C32  0.689057  0.370049  0.304224  0.363095
    C  C33  0.751625  0.771136  0.811784  -0.056453
    C  C34  0.248375  0.271135  0.188216  -0.056839
    C  C35  0.767574  0.107607  0.773191  -0.000800
    C  C36  0.232426  0.607607  0.226809  -0.000901
    C  C37  0.715073  0.078524  0.733267  -0.127776
    C  C38  0.284927  0.578524  0.266733  -0.127463
    H  H17  0.669253  0.737053  0.776138  0.043507
    H  H18  0.330747  0.237053  0.223862  0.043546
    H  H19  0.733499  0.846055  0.850512  0.009577
    H  H20  0.266501  0.346055  0.149488  0.009688
    H  H21  0.794550  0.198090  0.747050  -0.027346
    H  H22  0.205450  0.698090  0.252950  -0.027387
    H  H23  0.760624  0.183598  0.817609  0.028608
    H  H24  0.239376  0.683598  0.182391  0.028638
    H  H25  0.681907  0.097064  0.762882  0.016487
    H  H26  0.318093  0.597064  0.237119  0.016489
    H  H27  0.711268  0.189682  0.694853  0.009798
    H  H28  0.288732  0.689682  0.305147  0.009723
    C  C39  0.626606  0.848469  0.622214  -0.101073
    C  C40  0.373393  0.348469  0.377786  -0.101414
    C  C41  0.792532  0.907134  0.787505  0.432010
    C  C42  0.207468  0.407134  0.212495  0.432046
    C  C43  0.708893  0.724730  0.758614  -0.159678
    C  C44  0.291107  0.224730  0.241386  -0.159422
    C  C45  0.712925  0.871494  0.705656  0.636241
    C  C46  0.287075  0.371494  0.294344  0.634988
    C  C47  0.764132  0.834977  0.675397  -0.139029
    C  C48  0.235868  0.334977  0.324603  -0.137712
    C  C49  0.809663  0.820736  0.727512  -0.105295
    C  C50  0.190336  0.320737  0.272488  -0.105323
    C  C51  0.665738  0.857630  0.659725  -0.382333
    C  C52  0.334262  0.357630  0.340275  -0.381684
    C  C53  0.838697  0.927030  0.834758  -0.307417
    C  C54  0.161303  0.427030  0.165242  -0.307359
    C  C55  0.876681  0.943391  0.873639  -0.136863
    C  C56  0.123318  0.443391  0.126361  -0.136880
    H  H29  0.820171  0.663090  0.736352  0.045699
    H  H30  0.179829  0.163090  0.263648  0.045659
    H  H31  0.844649  0.902305  0.713547  0.055479
    H  H32  0.155351  0.402305  0.286453  0.055414
    H  H33  0.770929  0.631605  0.829444  0.014501
    H  H34  0.229071  0.131605  0.170556  0.014597
    H  H35  0.714325  0.572127  0.741356  0.016356
    H  H36  0.285675  0.072127  0.258644  0.016278
    H  H37  0.771099  0.963963  0.645430  0.078186
    H  H38  0.228901  0.463963  0.354570  0.077986
    O  O11  0.060004  0.294667  0.052861  -0.536541
    O  O12  0.939996  0.794667  0.947139  -0.536584
    O  O13  0.949301  0.642834  0.067131  -0.509963
    O  O14  0.050699  0.142834  0.932870  -0.509799
    C  C57  0.929252  0.461505  0.071191  0.525537
    C  C58  0.070748  0.961505  0.928809  0.525381
    O  O15  0.057394  0.644392  0.073375  -0.528699
    O  O16  0.942606  0.144392  0.926625  -0.528710
    O  O17  0.055309  0.792856  0.953744  -0.508016
    O  O18  0.944691  0.292856  0.046256  -0.507920
    C  C59  0.078112  0.463053  0.079928  0.675630
    C  C60  0.921888  0.963053  0.920072  0.675663
    O  O19  0.998143  0.477263  0.961780  -0.467746
    O  O20  0.001856  0.977263  0.038220  -0.467752
    V  V3   0.000560  0.745416  0.011305  1.382234
    V  V4   0.999439  0.245416  0.988695  1.382179
    C  C61  0.763428  0.643856  0.636914  0.120752
    C  C62  0.722372  0.645349  0.579760  -0.154802
    C  C63  0.733371  0.812668  0.535761  0.195460
    C  C64  0.787809  0.783331  0.513560  -0.111677
    C  C65  0.829940  0.776735  0.569430  0.168119
    C  C66  0.817663  0.611980  0.613988  -0.206424
    H  H39  0.755073  0.517281  0.667386  0.023085
    H  H40  0.681653  0.655800  0.593614  0.042798
    H  H41  0.725368  0.503399  0.554266  0.016512
    H  H42  0.731532  0.957269  0.559887  -0.045827
    H  H43  0.702951  0.810503  0.494439  -0.054617
    H  H44  0.796432  0.907258  0.482107  -0.007776
    H  H45  0.788291  0.641772  0.487309  0.027554
    H  H46  0.831614  0.921016  0.594210  -0.051878
    H  H47  0.869180  0.748016  0.552383  -0.026955
    H  H48  0.848886  0.608367  0.654397  0.012006
    H  H49  0.817632  0.468431  0.588772  0.060686
    C  C67  0.236572  0.143856  0.363086  0.120306
    C  C68  0.277628  0.145349  0.420240  -0.154517
    C  C69  0.266629  0.312668  0.464239  0.195369
    C  C70  0.212191  0.283331  0.486440  -0.111607
    C  C71  0.170060  0.276735  0.430570  0.168346
    C  C72  0.182337  0.111980  0.386012  -0.206637
    H  H50  0.244926  0.017281  0.332614  0.023209
    H  H51  0.318347  0.155800  0.406386  0.042676
    H  H52  0.274632  0.003398  0.445734  0.016479
    H  H53  0.268468  0.457269  0.440113  -0.045870
    H  H54  0.297049  0.310503  0.505561  -0.054607
    H  H55  0.203568  0.407258  0.517893  -0.007797
    H  H56  0.211709  0.141772  0.512691  0.027518
    H  H57  0.168386  0.421016  0.405790  -0.051975
    H  H58  0.130820  0.248016  0.447617  -0.027034
    H  H59  0.151114  0.108367  0.345603  0.012046
    H  H60  0.182368  0.968430  0.411228  0.060742
