# Generated by REPEAT Assigner based on pymatgen
data_DB0-m3_o20_o24_f0_nbo.sym.21_sqe
_audit_creation_date              2022-05-24
_audit_creation_method            REPEAT_Assigner
_cell_length_a                    21.558689
_cell_length_b                    29.067552
_cell_length_c                    29.069508
_cell_angle_alpha                 90.000000
_cell_angle_beta                  90.000000
_cell_angle_gamma                 90.000000
_cell_volume                      18216.648230
_symmetry_space_group_name_H-M    P1
_symmetry_Int_Tables_number       1
loop_
    _symmetry_equiv_pos_site_id
    _symmetry_equiv_pos_as_xyz
    1  x,y,z
loop_
    _atom_site_type_symbol
    _atom_site_label
    _atom_site_fract_x
    _atom_site_fract_y
    _atom_site_fract_z
    _atom_type_partial_charge
    O   O1    0.001228  0.959627  0.068570  -0.688609
    O   O2    0.001723  0.959773  0.931429  -0.671523
    O   O3    0.501836  0.459766  0.568625  -0.688746
    O   O4    0.501179  0.459637  0.431485  -0.671348
    O   O5    0.998236  0.039084  0.070341  -0.677452
    O   O6    0.998727  0.039234  0.933207  -0.690083
    O   O7    0.498808  0.539224  0.570264  -0.677641
    O   O8    0.498147  0.539099  0.433131  -0.690414
    C   C1    0.999705  0.998914  0.090801  0.891029
    C   C2    0.000252  0.999953  0.910972  0.898405
    C   C3    0.500473  0.499093  0.590790  0.891188
    C   C4    0.499513  0.499778  0.410961  0.896577
    O   O9    0.092716  0.958755  0.999084  -0.637476
    O   O10   0.907737  0.960658  0.998717  -0.655896
    O   O11   0.592737  0.458774  0.498723  -0.637831
    O   O12   0.407757  0.460637  0.499207  -0.655259
    O   O13   0.092226  0.038202  0.003044  -0.658246
    O   O14   0.907235  0.040105  0.002680  -0.641261
    O   O15   0.592235  0.538227  0.502533  -0.658544
    O   O16   0.407243  0.540090  0.503021  -0.640241
    C   C5    0.121214  0.998555  0.001150  0.312224
    C   C6    0.878744  0.000297  0.000586  0.314460
    C   C7    0.621229  0.498586  0.500581  0.316077
    C   C8    0.378758  0.500270  0.501136  0.313948
    Zn  Zn1   0.000005  0.947291  0.999961  1.316381
    Zn  Zn2   0.500039  0.447292  0.500049  1.316123
    Zn  Zn3   0.999953  0.051571  0.001813  1.314334
    Zn  Zn4   0.499947  0.551574  0.501704  1.314203
    C   C9    0.229464  0.010684  0.042415  -0.264486
    C   C10   0.771084  0.030572  0.969312  -0.268761
    C   C11   0.769975  0.011780  0.041266  -0.268667
    C   C12   0.228854  0.029500  0.970463  -0.265434
    C   C13   0.729856  0.510992  0.541243  -0.261661
    C   C14   0.270781  0.530346  0.470265  -0.264249
    C   C15   0.270406  0.511973  0.542330  -0.265951
    C   C16   0.728581  0.529349  0.469176  -0.261730
    C   C17   0.269534  0.041277  0.011828  -0.185444
    C   C18   0.729885  0.042128  0.010453  -0.181771
    C   C19   0.769646  0.541388  0.510257  -0.184146
    C   C20   0.230004  0.542142  0.511567  -0.188636
    H   H1    0.287062  0.075996  0.020805  0.096490
    H   H2    0.711904  0.076748  0.019320  0.095637
    H   H3    0.787259  0.576163  0.518922  0.095515
    H   H4    0.212115  0.576813  0.520335  0.097927
    H   H5    0.211404  0.019356  0.077061  0.106986
    H   H6    0.789592  0.055224  0.943641  0.106614
    H   H7    0.787610  0.020573  0.076002  0.108311
    H   H8    0.210341  0.054053  0.944700  0.104420
    H   H9    0.712117  0.519885  0.575924  0.106001
    H   H10   0.289022  0.554842  0.444343  0.105091
    H   H11   0.288393  0.520967  0.576915  0.108526
    H   H12   0.709824  0.553739  0.443357  0.104254
    C   C21   0.309861  0.000109  0.000807  0.521511
    C   C22   0.690098  0.000725  0.999235  0.524581
    C   C23   0.809867  0.500149  0.499291  0.520082
    C   C24   0.190103  0.500675  0.500819  0.526897
    C   C25   0.270327  0.969953  0.030767  0.267185
    C   C26   0.730757  0.989272  0.958886  0.261519
    C   C27   0.729653  0.970810  0.029420  0.268897
    C   C28   0.269714  0.988438  0.960240  0.268772
    C   C29   0.770611  0.470187  0.529646  0.268596
    C   C30   0.230349  0.488986  0.460311  0.262021
    C   C31   0.229966  0.470935  0.530953  0.264585
    C   C32   0.769343  0.488220  0.459006  0.262369
    C   C33   0.229985  0.957386  0.990007  -0.387867
    C   C34   0.770522  0.958460  0.988879  -0.380080
    C   C35   0.729893  0.457362  0.489173  -0.380390
    C   C36   0.270422  0.458348  0.490257  -0.379047
    C   C37   0.190065  0.998792  0.001046  0.693282
    C   C38   0.809896  0.000101  0.000112  0.691384
    C   C39   0.690077  0.498839  0.500151  0.684386
    C   C40   0.309908  0.500054  0.501023  0.689094
    H   H13   0.213337  0.922455  0.980925  0.141235
    H   H14   0.787633  0.923624  0.979902  0.139948
    H   H15   0.713160  0.422373  0.480405  0.139893
    H   H16   0.287437  0.423460  0.481384  0.139553
    C   C41   0.999601  0.998032  0.140133  -0.226317
    C   C42   0.000360  0.000896  0.861637  -0.239026
    C   C43   0.500740  0.498295  0.640123  -0.226383
    C   C44   0.499254  0.500636  0.361625  -0.235796
    C   C45   0.999495  0.997856  0.181577  0.088673
    C   C46   0.000469  0.001258  0.820192  0.099859
    C   C47   0.500927  0.498167  0.681566  0.088175
    C   C48   0.499072  0.500951  0.320179  0.096706
    C   C49   0.999349  0.998136  0.230140  -0.058814
    C   C50   0.000620  0.001303  0.771625  -0.063329
    C   C51   0.501108  0.498474  0.730128  -0.057298
    C   C52   0.498894  0.500970  0.271612  -0.061285
    C   C53   0.999206  0.998631  0.271584  0.093546
    C   C54   0.000766  0.001132  0.730176  0.095970
    C   C55   0.501236  0.498968  0.771572  0.092124
    C   C56   0.498769  0.500800  0.230163  0.095432
    C   C57   0.999022  0.999359  0.320142  -0.091988
    C   C58   0.000952  0.000789  0.681610  -0.090175
    C   C59   0.501362  0.499665  0.820130  -0.091669
    C   C60   0.498649  0.500488  0.181596  -0.091636
    C   C61   0.998861  0.999959  0.361583  -0.008747
    C   C62   0.001118  0.000480  0.640164  -0.011881
    C   C63   0.501457  0.500215  0.861572  -0.008501
    C   C64   0.498560  0.500230  0.140150  -0.009657
    O   O17   0.501351  0.067899  0.959888  -0.688900
    O   O18   0.498438  0.070043  0.039326  -0.673608
    O   O19   0.998381  0.567877  0.459912  -0.688854
    O   O20   0.001276  0.570059  0.539348  -0.673564
    C   C65   0.499923  0.090316  0.999067  0.850106
    C   C66   0.999735  0.590313  0.499081  0.850164
    O   O21   0.407739  0.998161  0.961314  -0.617931
    O   O22   0.592229  0.002612  0.038667  -0.644423
    O   O23   0.592616  0.998281  0.959265  -0.599011
    O   O24   0.407332  0.002492  0.040715  -0.628433
    O   O25   0.907357  0.498074  0.459317  -0.599530
    O   O26   0.092626  0.502693  0.540741  -0.627478
    O   O27   0.092234  0.498323  0.461341  -0.616802
    O   O28   0.907728  0.502444  0.538718  -0.644667
    C   C67   0.378761  0.000220  0.000946  0.311049
    C   C68   0.621197  0.000479  0.999022  0.308053
    C   C69   0.878768  0.500224  0.499073  0.311253
    C   C70   0.121204  0.500469  0.500971  0.308791
    Zn  Zn5   0.499940  0.999232  0.947871  1.308094
    Zn  Zn6   0.500018  0.001565  0.052113  1.309420
    Zn  Zn7   0.000027  0.499210  0.447910  1.307286
    Zn  Zn8   0.999946  0.501581  0.552150  1.309002
    O   O29   0.501520  0.930715  0.960657  -0.668546
    O   O30   0.498606  0.932865  0.040100  -0.666422
    O   O31   0.998697  0.430693  0.460712  -0.667850
    O   O32   0.001593  0.432881  0.540154  -0.665917
    C   C71   0.500038  0.910444  0.000925  0.870776
    C   C72   0.000236  0.410441  0.500988  0.868733
    O   O33   0.052417  0.068693  0.502121  -0.652183
    O   O34   0.945245  0.069163  0.500001  -0.638157
    O   O35   0.552299  0.568779  0.000111  -0.651736
    O   O36   0.445119  0.569080  0.002074  -0.637731
    C   C73   0.998979  0.090281  0.501194  0.689366
    C   C74   0.498803  0.590283  0.001178  0.688778
    O   O37   0.052177  0.999355  0.432404  -0.650421
    O   O38   0.947814  0.001343  0.569334  -0.651220
    O   O39   0.945001  0.001676  0.432139  -0.635912
    O   O40   0.054985  0.999025  0.569599  -0.637482
    O   O41   0.555173  0.499521  0.932202  -0.635417
    O   O42   0.444854  0.501185  0.069511  -0.637071
    O   O43   0.447990  0.501668  0.932320  -0.649804
    O   O44   0.552031  0.499036  0.069392  -0.651219
    C   C75   0.998666  0.000488  0.410923  0.683252
    C   C76   0.001322  0.000204  0.590818  0.687505
    C   C77   0.501560  0.500655  0.910912  0.682213
    C   C78   0.498464  0.500042  0.090803  0.685805
    Zn  Zn9   0.070308  0.000273  0.500825  1.295252
    Zn  Zn10  0.929676  0.000445  0.500913  1.294884
    Zn  Zn11  0.570328  0.500372  0.001001  1.294475
    Zn  Zn12  0.429692  0.500352  0.000711  1.294904
    O   O45   0.054741  0.931555  0.501728  -0.636566
    O   O46   0.947563  0.932025  0.499604  -0.650801
    O   O47   0.554906  0.431644  0.999626  -0.636876
    O   O48   0.447719  0.431946  0.001590  -0.650942
    C   C79   0.001004  0.910441  0.500523  0.687856
    C   C80   0.501218  0.410445  0.000511  0.688944
    C   C81   0.500035  0.139646  0.997969  -0.181912
    C   C82   0.999694  0.639642  0.497961  -0.181958
    C   C83   0.500156  0.181091  0.997662  0.053157
    C   C84   0.999744  0.681088  0.497644  0.052576
    C   C85   0.500331  0.229657  0.997857  -0.038203
    C   C86   0.999887  0.729654  0.497833  -0.036661
    C   C87   0.000077  0.771100  0.498316  0.074765
    C   C88   0.500509  0.271103  0.998343  0.076579
    C   C89   0.000364  0.819660  0.499103  -0.080364
    C   C90   0.500742  0.319663  0.999127  -0.081474
    C   C91   0.000645  0.861101  0.499809  -0.019148
    C   C92   0.500954  0.361104  0.999821  -0.019132
    C   C93   0.499934  0.861112  0.002078  -0.205254
    C   C94   0.000280  0.361108  0.502161  -0.203087
    C   C95   0.499821  0.819666  0.002556  0.076395
    C   C96   0.000235  0.319662  0.502646  0.074178
    C   C97   0.499659  0.771096  0.002662  -0.046580
    C   C98   0.000094  0.271093  0.502751  -0.044610
    C   C99   0.999907  0.229642  0.502559  0.079541
    C   C100  0.499491  0.729645  0.002478  0.081388
    C   C101  0.999624  0.181074  0.502121  -0.081433
    C   C102  0.499264  0.681077  0.002056  -0.083180
    C   C103  0.999344  0.139627  0.501679  -0.022145
    C   C104  0.499058  0.639630  0.001633  -0.021017
    F   F1    0.293417  0.938989  0.062515  -0.266030
    F   F2    0.709443  0.977742  0.915555  -0.270350
    F   F3    0.706561  0.939739  0.061064  -0.267622
    F   F4    0.291567  0.977034  0.917025  -0.270788
    F   F5    0.794006  0.439429  0.561472  -0.267204
    F   F6    0.208584  0.477198  0.417174  -0.269933
    F   F7    0.207213  0.440049  0.562909  -0.266452
    F   F8    0.790790  0.476537  0.415751  -0.270139
