# Generated by REPEAT Assigner based on pymatgen
data_DB0-m3_o480_o155_f0_fsc.sym.15_sqe
_audit_creation_date              2022-05-24
_audit_creation_method            REPEAT_Assigner
_cell_length_a                    17.532569
_cell_length_b                    8.528291
_cell_length_c                    10.838540
_cell_angle_alpha                 90.000000
_cell_angle_beta                  90.904710
_cell_angle_gamma                 90.000000
_cell_volume                      1620.407368
_symmetry_space_group_name_H-M    P1
_symmetry_Int_Tables_number       1
loop_
    _symmetry_equiv_pos_site_id
    _symmetry_equiv_pos_as_xyz
    1  x,y,z
loop_
    _atom_site_type_symbol
    _atom_site_label
    _atom_site_fract_x
    _atom_site_fract_y
    _atom_site_fract_z
    _atom_type_partial_charge
    C   C1   0.998095  0.960829  0.564461  0.110635
    C   C2   0.001905  0.960829  0.435539  0.110739
    C   C3   0.995095  0.818689  0.627550  0.115733
    C   C4   0.004906  0.818689  0.372450  0.115577
    C   C5   0.997706  0.679036  0.563297  -0.212283
    C   C6   0.002295  0.679036  0.436703  -0.212240
    C   C7   0.012171  0.817835  0.245099  -0.170414
    C   C8   0.987829  0.817835  0.754901  -0.170547
    C   C9   0.021577  0.956507  0.183585  -0.118541
    C   C10  0.978423  0.956507  0.816415  -0.118571
    C   C11  0.011379  0.096527  0.242381  -0.040287
    C   C12  0.988622  0.096527  0.757619  -0.040400
    C   C13  0.999816  0.099645  0.367363  -0.293529
    C   C14  0.000185  0.099645  0.632637  -0.293447
    H   H1   0.995361  0.567914  0.610927  0.123134
    H   H2   0.004639  0.567914  0.389073  0.123209
    H   H3   0.989043  0.212850  0.406872  0.145180
    H   H4   0.010957  0.212850  0.593128  0.145275
    H   H5   0.968482  0.955144  0.913927  0.130257
    H   H6   0.031518  0.955144  0.086073  0.130188
    O   O1   0.070224  0.627012  0.117546  -0.747341
    O   O2   0.929776  0.627012  0.882453  -0.747452
    O   O3   0.939599  0.621744  0.138754  -0.715600
    O   O4   0.060401  0.621744  0.861246  -0.715476
    C   C15  0.007515  0.676084  0.169188  0.905581
    C   C16  0.992485  0.676084  0.830811  0.905765
    O   O5   0.929749  0.287921  0.883136  -0.738423
    O   O6   0.070252  0.287921  0.116864  -0.738261
    O   O7   0.060551  0.294170  0.861213  -0.707427
    O   O8   0.939449  0.294170  0.138787  -0.707585
    C   C17  0.992757  0.238372  0.832492  0.854137
    C   C18  0.007243  0.238372  0.167508  0.854153
    Zn  Zn1  0.915311  0.457879  0.009769  1.047979
    Zn  Zn2  0.084690  0.457879  0.990231  1.047709
    C   C19  0.776649  0.465653  0.122863  -0.187169
    C   C20  0.223351  0.465653  0.877136  -0.187291
    N   N1   0.815409  0.458075  0.016884  0.152665
    N   N2   0.184591  0.458075  0.983116  0.152726
    C   C21  0.777865  0.450799  0.907872  -0.231733
    C   C22  0.222136  0.450799  0.092127  -0.231782
    C   C23  0.658334  0.458520  0.009316  0.031906
    C   C24  0.341666  0.458520  0.990683  0.031829
    C   C25  0.697595  0.466047  0.120232  0.003927
    C   C26  0.302406  0.466047  0.879768  0.004051
    C   C27  0.657719  0.475809  0.227866  0.319645
    C   C28  0.342281  0.475809  0.772134  0.319604
    C   C29  0.699390  0.450834  0.902771  0.244431
    C   C30  0.300611  0.450834  0.097229  0.244529
    C   C31  0.458918  0.455369  0.108952  0.105372
    C   C32  0.541083  0.455369  0.891048  0.105387
    C   C33  0.461370  0.462527  0.886370  0.054202
    C   C34  0.538630  0.462527  0.113630  0.054287
    C   C35  0.420927  0.458824  0.995335  -0.048353
    C   C36  0.579073  0.458824  0.004665  -0.048403
    C   C37  0.415891  0.443254  0.215538  -0.159145
    C   C38  0.584109  0.443254  0.784462  -0.159141
    C   C39  0.337666  0.441692  0.209190  -0.261210
    C   C40  0.662334  0.441692  0.790809  -0.261181
    C   C41  0.579289  0.474627  0.224927  -0.351425
    C   C42  0.420711  0.474627  0.775072  -0.351378
    H   H7   0.305557  0.432550  0.293216  0.164684
    H   H8   0.694443  0.432550  0.706783  0.164698
    H   H9   0.440253  0.430300  0.306397  0.134615
    H   H10  0.559748  0.430300  0.693603  0.134626
    H   H11  0.552760  0.487943  0.312842  0.178279
    H   H12  0.447240  0.487943  0.687158  0.178268
    H   H13  0.809615  0.445535  0.823345  0.170622
    H   H14  0.190385  0.445535  0.176654  0.170600
    H   H15  0.807763  0.471783  0.209590  0.181143
    H   H16  0.192237  0.471783  0.790410  0.181178
    F   F1   0.695111  0.487613  0.337882  -0.191264
    F   F2   0.304889  0.487613  0.662118  -0.191226
