# Generated by REPEAT Assigner based on pymatgen
data_DB0-m3_o3_o14_f0_nbo.sym.39_sqe
_audit_creation_date              2022-05-24
_audit_creation_method            REPEAT_Assigner
_cell_length_a                    44.213656
_cell_length_b                    38.869138
_cell_length_c                    21.840636
_cell_angle_alpha                 90.000000
_cell_angle_beta                  61.481833
_cell_angle_gamma                 90.000000
_cell_volume                      32979.975806
_symmetry_space_group_name_H-M    P1
_symmetry_Int_Tables_number       1
loop_
    _symmetry_equiv_pos_site_id
    _symmetry_equiv_pos_as_xyz
    1  x,y,z
loop_
    _atom_site_type_symbol
    _atom_site_label
    _atom_site_fract_x
    _atom_site_fract_y
    _atom_site_fract_z
    _atom_type_partial_charge
    O   O1    0.051137  0.527511  0.445034  -0.710469
    O   O2    0.948825  0.529295  0.557934  -0.697787
    O   O3    0.551137  0.027511  0.445035  -0.710474
    O   O4    0.448825  0.029295  0.557934  -0.697802
    O   O5    0.050978  0.468204  0.440773  -0.684160
    O   O6    0.948831  0.469945  0.556580  -0.703636
    O   O7    0.550978  0.968204  0.440774  -0.684172
    O   O8    0.448831  0.969945  0.556580  -0.703638
    C   C1    0.067097  0.497847  0.425180  0.633033
    C   C2    0.932791  0.499596  0.575040  0.639974
    C   C3    0.567097  0.997847  0.425181  0.633042
    C   C4    0.432791  0.999596  0.575041  0.639992
    O   O9    0.003327  0.529185  0.588040  -0.674881
    O   O10   0.995331  0.527566  0.413910  -0.686189
    O   O11   0.503327  0.029185  0.588040  -0.674903
    O   O12   0.495331  0.027566  0.413910  -0.686199
    O   O13   0.005447  0.469912  0.585275  -0.747188
    O   O14   0.995792  0.468293  0.412923  -0.729331
    O   O15   0.505447  0.969912  0.585275  -0.747201
    O   O16   0.495792  0.968293  0.412923  -0.729331
    C   C5    0.006452  0.499532  0.613125  0.768592
    C   C6    0.993460  0.497997  0.386940  0.763367
    C   C7    0.506452  0.999532  0.613126  0.768620
    C   C8    0.493460  0.997997  0.386940  0.763364
    Zn  Zn1   0.000073  0.537684  0.499902  1.310548
    Zn  Zn2   0.500073  0.037684  0.499902  1.310565
    Zn  Zn3   0.999830  0.459807  0.500245  1.352860
    Zn  Zn4   0.499830  0.959807  0.500245  1.352870
    H   H1    0.977409  0.454579  0.712627  0.195206
    H   H2    0.022443  0.453291  0.286680  0.195046
    H   H3    0.477409  0.954579  0.712627  0.195205
    H   H4    0.522443  0.953291  0.286680  0.195048
    C   C9    0.049156  0.546946  0.643149  -0.223039
    C   C10   0.950567  0.545638  0.357372  -0.222599
    C   C11   0.549156  0.046946  0.643149  -0.223034
    C   C12   0.450567  0.045638  0.357373  -0.222603
    H   H5    0.054588  0.545793  0.589568  0.140136
    H   H6    0.944616  0.543965  0.411205  0.138902
    H   H7    0.554588  0.045793  0.589569  0.140143
    H   H8    0.444616  0.043965  0.411205  0.138912
    C   C13   0.065494  0.572255  0.660313  -0.067819
    C   C14   0.934554  0.571298  0.340258  -0.070414
    C   C15   0.565494  0.072255  0.660313  -0.067829
    C   C16   0.434554  0.071298  0.340258  -0.070409
    H   H9    0.081925  0.590564  0.621342  0.106269
    H   H10   0.917944  0.589397  0.379519  0.107227
    H   H11   0.581925  0.090564  0.621342  0.106271
    H   H12   0.417944  0.089397  0.379519  0.107225
    C   C17   0.060634  0.574517  0.727040  -0.079901
    C   C18   0.940024  0.574213  0.273200  -0.076769
    C   C19   0.560634  0.074517  0.727040  -0.079892
    C   C20   0.440024  0.074213  0.273201  -0.076761
    H   H13   0.072884  0.594873  0.740932  0.105677
    H   H14   0.928109  0.594895  0.259314  0.104411
    H   H15   0.572884  0.094873  0.740933  0.105676
    H   H16   0.428109  0.094895  0.259314  0.104402
    C   C21   0.040887  0.550405  0.775875  -0.316763
    C   C22   0.959904  0.550301  0.224020  -0.317197
    C   C23   0.540887  0.050405  0.775875  -0.316779
    C   C24   0.459904  0.050301  0.224020  -0.317215
    H   H17   0.038032  0.553534  0.827405  0.202213
    H   H18   0.963283  0.553976  0.172217  0.202722
    H   H19   0.538032  0.053534  0.827405  0.202217
    H   H20   0.463283  0.053976  0.172217  0.202734
    C   C25   0.025333  0.523738  0.758571  0.226669
    C   C26   0.974999  0.523191  0.241297  0.223199
    C   C27   0.525333  0.023738  0.758571  0.226692
    C   C28   0.474999  0.023191  0.241297  0.223224
    C   C29   0.027629  0.523419  0.692871  0.139441
    C   C30   0.972358  0.522387  0.307289  0.145148
    C   C31   0.527629  0.023419  0.692871  0.139438
    C   C32   0.472358  0.022387  0.307289  0.145131
    C   C33   0.009055  0.499075  0.677625  -0.089784
    C   C34   0.990861  0.497858  0.322367  -0.095595
    C   C35   0.509055  0.999075  0.677625  -0.089788
    C   C36   0.490861  0.997858  0.322367  -0.095578
    C   C37   0.991153  0.473780  0.725403  -0.210299
    C   C38   0.008780  0.472703  0.274199  -0.207713
    C   C39   0.491153  0.973780  0.725403  -0.210314
    C   C40   0.508780  0.972703  0.274199  -0.207728
    C   C41   0.990658  0.472364  0.788805  -0.032090
    C   C42   0.009278  0.471558  0.210784  -0.032663
    C   C43   0.490658  0.972364  0.788806  -0.032064
    C   C44   0.509278  0.971558  0.210784  -0.032656
    C   C45   0.007150  0.497883  0.806475  -0.118097
    C   C46   0.993059  0.497371  0.193143  -0.115694
    C   C47   0.507150  0.997883  0.806475  -0.118136
    C   C48   0.493059  0.997371  0.193143  -0.115712
    C   C49   0.377425  0.475095  0.083084  -0.217550
    C   C50   0.622544  0.475202  0.915454  -0.217103
    C   C51   0.877425  0.975095  0.083085  -0.217566
    C   C52   0.122544  0.975202  0.915455  -0.217103
    H   H21   0.391680  0.457162  0.041241  0.161417
    H   H22   0.608359  0.456700  0.956151  0.164059
    H   H23   0.891680  0.957162  0.041241  0.161415
    H   H24   0.108359  0.956700  0.956152  0.164058
    C   C53   0.342002  0.473392  0.118379  -0.067183
    C   C54   0.657976  0.473658  0.880120  -0.070942
    C   C55   0.842002  0.973392  0.118379  -0.067169
    C   C56   0.157976  0.973658  0.880121  -0.070939
    H   H25   0.329405  0.453889  0.103397  0.099994
    H   H26   0.670630  0.453716  0.893931  0.100173
    H   H27   0.829405  0.953889  0.103397  0.099993
    H   H28   0.170630  0.953716  0.893931  0.100174
    C   C57   0.323262  0.495640  0.172968  0.047211
    C   C58   0.676654  0.496639  0.826953  0.053727
    C   C59   0.823262  0.995640  0.172968  0.047222
    C   C60   0.176654  0.996639  0.826953  0.053723
    C   C61   0.340723  0.519448  0.191538  -0.132389
    C   C62   0.659112  0.520997  0.809804  -0.135502
    C   C63   0.840723  0.019448  0.191538  -0.132395
    C   C64   0.159112  0.020997  0.809805  -0.135514
    H   H29   0.326542  0.538314  0.231278  0.146669
    H   H30   0.673215  0.540402  0.771289  0.145776
    H   H31   0.826542  0.038314  0.231278  0.146671
    H   H32   0.173215  0.040402  0.771289  0.145781
    C   C65   0.376275  0.521160  0.156717  -0.092580
    C   C66   0.623556  0.522548  0.844628  -0.092150
    C   C67   0.876275  0.021160  0.156717  -0.092583
    C   C68   0.123556  0.022548  0.844629  -0.092135
    C   C69   0.394833  0.498469  0.102281  0.089018
    C   C70   0.605052  0.499152  0.897676  0.085451
    C   C71   0.894833  0.998469  0.102281  0.089005
    C   C72   0.105052  0.999152  0.897676  0.085441
    C   C73   0.267040  0.503139  0.279876  -0.166716
    C   C74   0.732894  0.505468  0.720715  -0.168743
    C   C75   0.767040  0.003139  0.279877  -0.166674
    C   C76   0.232894  0.005468  0.720715  -0.168763
    H   H33   0.280125  0.508697  0.309713  0.137513
    H   H34   0.719829  0.511804  0.691186  0.138708
    H   H35   0.780125  0.008697  0.309713  0.137513
    H   H36   0.219829  0.011804  0.691186  0.138713
    C   C77   0.231581  0.503943  0.313565  -0.132874
    C   C78   0.768347  0.506443  0.687200  -0.130940
    C   C79   0.731581  0.003943  0.313566  -0.132920
    C   C80   0.268347  0.006444  0.687201  -0.130922
    H   H37   0.217894  0.510440  0.368294  0.101112
    H   H38   0.782046  0.513841  0.632951  0.100409
    H   H39   0.717894  0.010440  0.368295  0.101116
    H   H40   0.282046  0.013841  0.632952  0.100407
    C   C81   0.213707  0.495521  0.278406  0.077864
    C   C82   0.786210  0.497037  0.721840  0.077191
    C   C83   0.713707  0.995521  0.278406  0.077890
    C   C84   0.286210  0.997037  0.721841  0.077176
    C   C85   0.231643  0.486311  0.209089  -0.140528
    C   C86   0.768278  0.486691  0.790471  -0.139546
    C   C87   0.731643  0.986311  0.209089  -0.140576
    C   C88   0.268278  0.986691  0.790472  -0.139539
    H   H41   0.218007  0.480158  0.180546  0.114400
    H   H42   0.781917  0.479736  0.818607  0.113782
    H   H43   0.718007  0.980158  0.180547  0.114406
    H   H44   0.281917  0.979736  0.818608  0.113783
    C   C89   0.267154  0.486378  0.174737  -0.159678
    C   C90   0.732767  0.486601  0.824731  -0.159186
    C   C91   0.767154  0.986378  0.174737  -0.159625
    C   C92   0.232767  0.986601  0.824731  -0.159189
    H   H45   0.280346  0.480680  0.119675  0.118114
    H   H46   0.719574  0.479989  0.879368  0.118071
    H   H47   0.780346  0.980680  0.119675  0.118106
    H   H48   0.219573  0.979989  0.879369  0.118068
    C   C93   0.285263  0.494810  0.209797  0.075449
    C   C94   0.714661  0.495994  0.790182  0.073159
    C   C95   0.785263  0.994810  0.209797  0.075393
    C   C96   0.214661  0.995994  0.790182  0.073172
    C   C97   0.157440  0.469040  0.309610  -0.094445
    C   C98   0.842498  0.470124  0.688582  -0.096964
    C   C99   0.657440  0.969040  0.309610  -0.094500
    C   C100  0.342498  0.970124  0.688582  -0.096966
    H   H49   0.170563  0.446655  0.279124  0.103796
    H   H50   0.829399  0.447315  0.717314  0.103648
    H   H51   0.670563  0.946655  0.279124  0.103819
    H   H52   0.329399  0.947315  0.717314  0.103648
    C   C101  0.121958  0.469421  0.345831  -0.228991
    C   C102  0.877974  0.470579  0.652315  -0.223143
    C   C103  0.621958  0.969421  0.345832  -0.228992
    C   C104  0.377974  0.970579  0.652315  -0.223138
    H   H53   0.107881  0.447474  0.342242  0.154867
    H   H54   0.892079  0.448241  0.654119  0.154015
    H   H55   0.607881  0.947474  0.342242  0.154866
    H   H56   0.392079  0.948241  0.654120  0.154013
    C   C105  0.104741  0.497717  0.385475  0.154384
    C   C106  0.895156  0.499423  0.614886  0.144949
    C   C107  0.604741  0.997717  0.385475  0.154430
    C   C108  0.395156  0.999423  0.614886  0.144935
    C   C109  0.123329  0.525502  0.388984  -0.234388
    C   C110  0.876542  0.527700  0.613631  -0.225844
    C   C111  0.623329  0.025502  0.388985  -0.234508
    C   C112  0.376542  0.027700  0.613631  -0.225832
    H   H57   0.110367  0.547744  0.420214  0.152817
    H   H58   0.889491  0.550378  0.584119  0.149911
    H   H59   0.610367  0.047744  0.420215  0.152845
    H   H60   0.389491  0.050378  0.584120  0.149909
    C   C113  0.158806  0.524634  0.354506  -0.075945
    C   C114  0.841062  0.526790  0.648077  -0.078673
    C   C115  0.658806  0.024634  0.354506  -0.075838
    C   C116  0.341062  0.026790  0.648077  -0.078682
    H   H61   0.173005  0.546440  0.358249  0.096577
    H   H62   0.826823  0.548971  0.646050  0.096479
    H   H63   0.673005  0.046440  0.358249  0.096546
    H   H64   0.326823  0.048971  0.646050  0.096480
    C   C117  0.176016  0.496453  0.314529  0.064267
    C   C118  0.823892  0.498047  0.685843  0.066661
    C   C119  0.676016  0.996453  0.314529  0.064287
    C   C120  0.323892  0.998047  0.685843  0.066669
    O   O17   0.971261  0.446235  0.025296  -0.694378
    O   O18   0.030582  0.446123  0.972467  -0.681253
    O   O19   0.471261  0.946235  0.025296  -0.694385
    O   O20   0.530582  0.946123  0.972467  -0.681259
    C   C121  0.000899  0.430084  0.998857  0.716997
    C   C122  0.500899  0.930084  0.998857  0.717012
    O   O21   0.974348  0.498422  0.930521  -0.689891
    O   O22   0.025868  0.496771  0.069006  -0.685717
    O   O23   0.474348  0.998421  0.930522  -0.689900
    O   O24   0.525868  0.996771  0.069006  -0.685727
    O   O25   0.033647  0.496594  0.879466  -0.667527
    O   O26   0.966568  0.497803  0.120045  -0.663422
    O   O27   0.533647  0.996594  0.879467  -0.667534
    O   O28   0.466568  0.997803  0.120046  -0.663423
    C   C123  0.004961  0.497761  0.875568  0.712801
    C   C124  0.995261  0.497454  0.123986  0.702133
    C   C125  0.504961  0.997761  0.875568  0.712827
    C   C126  0.495261  0.997453  0.123986  0.702152
    Zn  Zn5   0.961187  0.497362  0.032978  1.318898
    Zn  Zn6   0.039007  0.497534  0.966548  1.314606
    Zn  Zn7   0.461187  0.997362  0.032979  1.318913
    Zn  Zn8   0.539007  0.997534  0.966549  1.314618
    O   O29   0.969591  0.548797  0.027751  -0.683170
    O   O30   0.028957  0.548689  0.973541  -0.698015
    O   O31   0.469591  0.048797  0.027752  -0.683202
    O   O32   0.528957  0.048689  0.973541  -0.698026
    C   C127  0.999295  0.564848  0.000635  0.586258
    C   C128  0.499295  0.064848  0.000635  0.586270
    O   O33   0.500952  0.446263  0.053172  -0.675015
    O   O34   0.499254  0.446412  0.949341  -0.692921
    O   O35   0.000952  0.946263  0.053172  -0.675014
    O   O36   0.999254  0.946412  0.949342  -0.692936
    C   C129  0.500131  0.430207  0.001174  0.628229
    C   C130  0.000131  0.930207  0.001175  0.628243
    O   O37   0.449062  0.497009  0.101653  -0.708653
    O   O38   0.550803  0.498895  0.898243  -0.707345
    O   O39   0.949062  0.997009  0.101653  -0.708676
    O   O40   0.050803  0.998895  0.898243  -0.707356
    O   O41   0.448147  0.498005  0.996864  -0.736220
    O   O42   0.551724  0.496803  0.002955  -0.733331
    O   O43   0.948147  0.998005  0.996865  -0.736233
    O   O44   0.051724  0.996803  0.002955  -0.733330
    C   C131  0.432533  0.497820  0.065202  0.707746
    C   C132  0.567342  0.498329  0.934683  0.702592
    C   C133  0.932533  0.997820  0.065202  0.707806
    C   C134  0.067342  0.998329  0.934683  0.702611
    Zn  Zn9   0.500362  0.497680  0.068831  1.349615
    Zn  Zn10  0.499517  0.497544  0.931038  1.350939
    Zn  Zn11  0.000362  0.997680  0.068831  1.349616
    Zn  Zn12  0.999517  0.997544  0.931038  1.350948
    O   O45   0.501201  0.548834  0.050020  -0.681755
    O   O46   0.498331  0.548975  0.947244  -0.666144
    O   O47   0.001201  0.048834  0.050020  -0.681767
    O   O48   0.998331  0.048975  0.947245  -0.666162
    C   C135  0.499724  0.564996  0.998728  0.641869
    C   C136  0.999724  0.064996  0.998728  0.641888
    C   C137  0.501632  0.620562  0.051623  -0.116256
    C   C138  0.497841  0.620701  0.946261  -0.116404
    C   C139  0.001632  0.120562  0.051623  -0.116447
    C   C140  0.997841  0.120701  0.946261  -0.116549
    H   H65   0.502933  0.607155  0.093631  0.117138
    H   H66   0.496495  0.607403  0.904194  0.115889
    H   H67   0.002933  0.107155  0.093631  0.117164
    H   H68   0.996495  0.107403  0.904194  0.115909
    C   C141  0.501796  0.656012  0.051561  -0.185204
    C   C142  0.497896  0.656150  0.946370  -0.182611
    C   C143  0.001796  0.156012  0.051561  -0.184960
    C   C144  0.997896  0.156150  0.946371  -0.182419
    H   H69   0.502675  0.669392  0.094042  0.120173
    H   H70   0.497122  0.669631  0.903881  0.119451
    H   H71   0.002675  0.169392  0.094043  0.120128
    H   H72   0.997122  0.169631  0.903882  0.119414
    C   C145  0.499919  0.674059  0.998959  0.104315
    C   C146  0.999919  0.174059  0.998959  0.104161
    C   C147  0.499701  0.602694  0.998908  0.090091
    C   C148  0.999701  0.102694  0.998908  0.090222
    C   C149  0.478981  0.729955  0.979909  -0.139259
    C   C150  0.521379  0.729684  0.017850  -0.137806
    C   C151  0.978981  0.229955  0.979909  -0.138936
    C   C152  0.021379  0.229684  0.017850  -0.137611
    H   H73   0.461697  0.716642  0.965947  0.115139
    H   H74   0.538538  0.716153  0.031853  0.114588
    H   H75   0.961697  0.216642  0.965947  0.115071
    H   H76   0.038538  0.216153  0.031853  0.114558
    C   C153  0.979063  0.265403  0.980081  -0.137071
    C   C154  0.021635  0.265134  0.017555  -0.138831
    C   C155  0.479063  0.765403  0.980081  -0.136870
    C   C156  0.521635  0.765134  0.017555  -0.138720
    H   H77   0.962634  0.278930  0.964123  0.107770
    H   H78   0.038187  0.278452  0.033471  0.108401
    H   H79   0.462634  0.778930  0.964122  0.107740
    H   H80   0.538187  0.778453  0.033471  0.108392
    C   C157  0.000430  0.283252  0.998798  0.094204
    C   C158  0.500430  0.783252  0.998798  0.094068
    C   C159  0.500092  0.711836  0.998918  0.055040
    C   C160  0.000092  0.211836  0.998918  0.054737
    C   C161  0.031155  0.338901  0.975012  -0.080082
    C   C162  0.970106  0.339112  0.022636  -0.088123
    C   C163  0.531155  0.838901  0.975012  -0.080054
    C   C164  0.470106  0.839112  0.022636  -0.088130
    H   H81   0.055388  0.325383  0.954834  0.095443
    H   H82   0.945783  0.325765  0.042826  0.097420
    H   H83   0.555388  0.825383  0.954834  0.095433
    H   H84   0.445783  0.825765  0.042826  0.097424
    C   C165  0.031296  0.374355  0.974837  -0.234718
    C   C166  0.970198  0.374560  0.022824  -0.223954
    C   C167  0.531296  0.874355  0.974837  -0.234728
    C   C168  0.470198  0.874560  0.022824  -0.223965
    H   H85   0.055605  0.387636  0.955641  0.143597
    H   H86   0.945968  0.387993  0.042037  0.141958
    H   H87   0.555605  0.887636  0.955641  0.143597
    H   H88   0.445968  0.887993  0.042037  0.141960
    C   C169  0.000804  0.392391  0.998828  0.207754
    C   C170  0.500804  0.892391  0.998828  0.207756
    C   C171  0.000570  0.321029  0.998811  0.002502
    C   C172  0.500571  0.821029  0.998811  0.002517
    C   C173  0.501121  0.374572  0.945402  -0.162928
    C   C174  0.499099  0.374430  0.056521  -0.167219
    C   C175  0.001121  0.874572  0.945402  -0.162920
    C   C176  0.999099  0.874430  0.056522  -0.167225
    H   H89   0.501847  0.387984  0.901395  0.129360
    H   H90   0.498406  0.387727  0.100610  0.129306
    H   H91   0.001847  0.887984  0.901395  0.129359
    H   H92   0.998406  0.887727  0.100611  0.129311
    C   C177  0.501186  0.339101  0.945228  -0.130506
    C   C178  0.498891  0.338960  0.056533  -0.125212
    C   C179  0.001186  0.839101  0.945228  -0.130512
    C   C180  0.998891  0.838960  0.056533  -0.125199
    H   H93   0.501395  0.325705  0.901681  0.111216
    H   H94   0.498614  0.325448  0.100030  0.109800
    H   H95   0.001395  0.825706  0.901681  0.111222
    H   H96   0.998614  0.825448  0.100030  0.109794
    C   C181  0.499991  0.321038  0.000849  0.065690
    C   C182  0.999991  0.821038  0.000850  0.065685
    C   C183  0.500136  0.392468  0.001012  0.103941
    C   C184  0.000136  0.892468  0.001012  0.103925
    C   C185  0.478932  0.265253  0.060944  -0.129511
    C   C186  0.520696  0.265229  0.940613  -0.133067
    C   C187  0.978932  0.765253  0.060944  -0.129519
    C   C188  0.020696  0.765229  0.940613  -0.133065
    H   H97   0.462023  0.278707  0.108419  0.109474
    H   H98   0.537689  0.278661  0.893170  0.110256
    H   H99   0.962023  0.778707  0.108420  0.109475
    H   H100  0.037689  0.778661  0.893170  0.110255
    C   C189  0.978689  0.729787  0.060811  -0.160993
    C   C190  0.020714  0.729762  0.940662  -0.157541
    C   C191  0.478689  0.229787  0.060811  -0.161000
    C   C192  0.520714  0.229762  0.940662  -0.157535
    H   H101  0.962366  0.716351  0.108719  0.113764
    H   H102  0.036956  0.716311  0.892722  0.112907
    H   H103  0.462365  0.216351  0.108719  0.113766
    H   H104  0.536955  0.216311  0.892722  0.112904
    C   C193  0.999646  0.711778  0.000716  0.100729
    C   C194  0.499646  0.211778  0.000716  0.100724
    C   C195  0.499874  0.283238  0.000802  0.070903
    C   C196  0.999874  0.783238  0.000802  0.070907
    C   C197  0.030021  0.655918  0.965462  -0.133701
    C   C198  0.968981  0.656055  0.035877  -0.133299
    C   C199  0.530021  0.155918  0.965462  -0.133701
    C   C200  0.468981  0.156055  0.035877  -0.133295
    H   H105  0.054318  0.669314  0.938637  0.108560
    H   H106  0.944751  0.669565  0.062727  0.108598
    H   H107  0.554318  0.169314  0.938637  0.108558
    H   H108  0.444751  0.169565  0.062727  0.108594
    C   C201  0.029967  0.620450  0.965687  -0.159316
    C   C202  0.968863  0.620585  0.035611  -0.156967
    C   C203  0.529967  0.120450  0.965687  -0.159317
    C   C204  0.468863  0.120585  0.035611  -0.157005
    H   H109  0.054194  0.607024  0.937913  0.144210
    H   H110  0.944574  0.607264  0.063372  0.142841
    H   H111  0.554194  0.107024  0.937913  0.144210
    H   H112  0.444574  0.107264  0.063373  0.142874
    C   C205  0.999372  0.602566  0.000642  0.098219
    C   C206  0.499372  0.102566  0.000643  0.098235
    C   C207  0.999546  0.673978  0.000681  0.063317
    C   C208  0.499546  0.173978  0.000681  0.063327
    C   C209  0.392879  0.548713  0.176299  0.664237
    O   O49   0.378674  0.560046  0.235536  -0.551610
    O   O50   0.423200  0.564002  0.126834  -0.534823
    H   H113  0.430217  0.583024  0.149111  0.386668
    C   C210  0.606906  0.550671  0.826637  0.669822
    O   O51   0.620995  0.562686  0.767955  -0.551733
    O   O52   0.576718  0.565727  0.877092  -0.536648
    H   H114  0.569688  0.585235  0.855879  0.385345
    C   C211  0.892879  0.048713  0.176300  0.664256
    O   O53   0.878674  0.060046  0.235536  -0.551610
    O   O54   0.923200  0.064002  0.126834  -0.534844
    H   H115  0.930217  0.083024  0.149112  0.386672
    C   C212  0.106906  0.050671  0.826637  0.669815
    O   O55   0.120995  0.062686  0.767955  -0.551730
    O   O56   0.076718  0.065727  0.877093  -0.536645
    H   H116  0.069688  0.085235  0.855879  0.385344
    C   C213  0.972946  0.442986  0.834783  0.721037
    O   O57   0.982863  0.431253  0.873853  -0.543881
    O   O58   0.946267  0.426575  0.829702  -0.632589
    H   H117  0.937621  0.406418  0.863024  0.432969
    C   C214  0.026632  0.442083  0.164826  0.719708
    O   O59   0.016159  0.430260  0.126733  -0.542885
    O   O60   0.053527  0.425625  0.169022  -0.629483
    H   H118  0.061848  0.405374  0.135907  0.432195
    C   C215  0.472946  0.942986  0.834783  0.721046
    O   O61   0.482863  0.931253  0.873853  -0.543887
    O   O62   0.446267  0.926575  0.829703  -0.632594
    H   H119  0.437621  0.906417  0.863024  0.432973
    C   C216  0.526632  0.942083  0.164826  0.719709
    O   O63   0.516159  0.930260  0.126733  -0.542890
    O   O64   0.553527  0.925625  0.169022  -0.629487
    H   H120  0.561848  0.905374  0.135908  0.432200
