# Generated by REPEAT Assigner based on pymatgen
data_DB0-m29_o99_o115_f0_pts.sym.59
_audit_creation_date              2022-05-24
_audit_creation_method            REPEAT_Assigner
_cell_length_a                    16.287373
_cell_length_b                    14.661046
_cell_length_c                    21.697996
_cell_angle_alpha                 73.884052
_cell_angle_beta                  101.416337
_cell_angle_gamma                 119.350010
_cell_volume                      4326.864036
_symmetry_space_group_name_H-M    P1
_symmetry_Int_Tables_number       1
loop_
    _symmetry_equiv_pos_site_id
    _symmetry_equiv_pos_as_xyz
    1  x,y,z
loop_
    _atom_site_type_symbol
    _atom_site_label
    _atom_site_fract_x
    _atom_site_fract_y
    _atom_site_fract_z
    _atom_type_partial_charge
    C   C1   0.240665  0.064101  0.894189  -0.150389
    H   H1   0.250895  0.081389  0.843714  0.161156
    C   C2   0.161354  0.059528  0.911276  -0.189228
    H   H2   0.111616  0.074854  0.874423  0.135988
    C   C3   0.143997  0.032401  0.975040  0.306310
    C   C4   0.208040  0.013328  0.021841  -0.252127
    H   H3   0.194383  0.994988  0.071700  0.161657
    C   C5   0.288827  0.018826  0.005419  0.070702
    C   C6   0.303718  0.041228  0.940450  0.000898
    C   C7   0.058874  0.022841  0.992817  -0.150862
    C   C8   0.987381  0.012969  0.008768  -0.157441
    C   C9   0.835319  0.018496  0.987401  -0.247602
    H   H4   0.845856  0.044030  0.936582  0.165972
    C   C10  0.753012  0.001274  0.008966  0.021767
    C   C11  0.740690  0.967670  0.074422  0.057160
    C   C12  0.807389  0.946068  0.116763  -0.140519
    H   H5   0.798068  0.919902  0.167758  0.141901
    C   C13  0.887920  0.961412  0.094854  -0.189468
    H   H6   0.940112  0.945148  0.128497  0.138757
    C   C14  0.902756  0.998674  0.030361  0.305115
    O   O1   0.554456  0.058717  0.826415  -0.492336
    C   C15  0.588536  0.022873  0.793913  0.648318
    O   O2   0.418395  0.098948  0.864728  -0.484922
    O   O3   0.583856  0.927678  0.815685  -0.533625
    O   O4   0.401356  0.956132  0.946661  -0.593675
    C   C16  0.380083  0.034623  0.918043  0.619769
    Fe  Fe1  0.488806  0.946082  0.900232  1.475414
    O   O5   0.588218  0.942081  0.970911  -0.624774
    O   O6   0.701718  0.085185  0.908732  -0.487765
    C   C17  0.677845  0.011741  0.961728  0.602502
    O   O7   0.411095  0.820240  0.858209  -0.580846
    O   O8   0.355697  0.935832  0.800245  -0.474188
    C   C18  0.356106  0.843662  0.810741  0.448695
    O   O9   0.578174  0.103981  0.187232  -0.563641
    O   O10  0.654467  0.239098  0.104836  -0.490272
    C   C19  0.636115  0.204511  0.165604  0.475896
    O   O11  0.445437  0.039883  0.045084  -0.586360
    O   O12  0.334060  0.965746  0.117003  -0.546976
    C   C20  0.357985  0.005311  0.057435  0.567071
    O   O13  0.572612  0.925398  0.249460  -0.548260
    O   O14  0.637032  0.037694  0.080398  -0.516721
    C   C21  0.660781  0.959879  0.100472  0.547745
    O   O15  0.447853  0.870488  0.175002  -0.538144
    C   C22  0.485895  0.857360  0.234172  0.713713
    O   O16  0.617344  0.878655  0.146655  -0.509429
    Fe  Fe2  0.527537  0.011492  0.122068  1.438528
    H   H7   0.358472  0.638470  0.490714  0.149656
    C   C23  0.022851  0.470896  0.700738  -0.283715
    C   C24  0.933760  0.388710  0.693736  -0.322822
    C   C25  0.919318  0.380248  0.630093  0.491304
    N   N1   0.997400  0.450721  0.598836  -0.592018
    C   C26  0.060609  0.505435  0.642061  0.450364
    C   C27  0.837989  0.314323  0.602956  -0.177759
    C   C28  0.817148  0.323036  0.532949  0.157857
    C   C29  0.727073  0.292003  0.503498  -0.201561
    C   C30  0.736177  0.320402  0.438332  -0.190499
    C   C31  0.831498  0.367622  0.430317  0.187582
    N   N2   0.880548  0.367539  0.488241  -0.147076
    C   C32  0.869964  0.410081  0.366531  -0.194189
    C   C33  0.960263  0.479158  0.355937  0.427148
    C   C34  0.996740  0.520025  0.296355  -0.246441
    C   C35  0.091497  0.584263  0.306571  -0.353984
    C   C36  0.109904  0.577202  0.372312  0.553153
    N   N3   0.029289  0.514731  0.402125  -0.576310
    C   C37  0.195724  0.620729  0.402911  -0.338794
    C   C38  0.210684  0.612465  0.473126  0.250478
    C   C39  0.294877  0.624958  0.508186  -0.201000
    C   C40  0.282604  0.616153  0.570868  -0.225104
    C   C41  0.191292  0.597582  0.571817  0.167393
    N   N4   0.147895  0.596640  0.512194  -0.188078
    C   C42  0.148680  0.579884  0.630289  -0.106084
    H   H8   0.056127  0.498304  0.744908  0.164576
    H   H9   0.885713  0.343668  0.731508  0.200181
    H   H10  0.661733  0.255869  0.526308  0.147810
    H   H11  0.679134  0.309566  0.401165  0.161435
    H   H12  0.960859  0.506714  0.249748  0.158993
    H   H13  0.139554  0.629723  0.268854  0.199041
    H   H14  0.334188  0.620622  0.611370  0.172799
    H   H15  0.952395  0.390898  0.497244  0.223038
    H   H16  0.080988  0.591642  0.499149  0.246520
    C   C43  0.294611  0.625004  0.327731  -0.214117
    H   H17  0.247690  0.541493  0.327376  0.127493
    C   C44  0.364185  0.683178  0.285247  -0.069262
    C   C45  0.423257  0.789681  0.285149  -0.059102
    C   C46  0.415168  0.837231  0.328609  -0.107000
    H   H18  0.460851  0.921373  0.327734  0.136257
    C   C47  0.342325  0.780914  0.368383  -0.167868
    H   H19  0.331747  0.820977  0.398768  0.110954
    C   C48  0.279558  0.675852  0.366160  0.287850
    C   C49  0.257100  0.614967  0.728290  -0.148519
    H   H20  0.259276  0.540562  0.733867  0.107312
    C   C50  0.306003  0.678493  0.772800  -0.138022
    H   H21  0.347177  0.653618  0.812740  0.158091
    C   C51  0.302118  0.773016  0.765822  0.130767
    C   C52  0.249599  0.803719  0.714258  -0.179773
    H   H22  0.245723  0.877358  0.707620  0.147441
    C   C53  0.201276  0.740475  0.670042  -0.150268
    H   H23  0.159659  0.764290  0.629937  0.114262
    C   C54  0.204839  0.646395  0.676937  0.121063
    C   C55  0.775082  0.418774  0.262001  -0.284624
    H   H24  0.792875  0.500290  0.261624  0.125297
    C   C56  0.721000  0.372202  0.210781  0.073199
    C   C57  0.696827  0.265748  0.213910  0.121104
    C   C58  0.727535  0.209625  0.267043  -0.199974
    H   H25  0.710445  0.127557  0.269875  0.214833
    C   C59  0.782839  0.257417  0.316350  -0.248935
    H   H26  0.808295  0.213024  0.356788  0.128047
    C   C60  0.807380  0.361971  0.313831  0.268604
    C   C61  0.751312  0.132978  0.664371  -0.242549
    H   H27  0.793179  0.109720  0.645367  0.131346
    C   C62  0.691267  0.061813  0.711297  -0.071493
    C   C63  0.642793  0.093955  0.738744  -0.054191
    C   C64  0.649953  0.195286  0.716108  -0.094200
    H   H28  0.611870  0.221422  0.736662  0.145095
    C   C65  0.709530  0.266079  0.668661  -0.170814
    H   H29  0.718547  0.346965  0.653005  0.100100
    C   C66  0.762570  0.235822  0.644503  0.238293
    H   H30  0.370875  0.645997  0.251192  0.116607
    H   H31  0.686268  0.982764  0.728072  0.124139
    C   C67  0.684957  0.436201  0.156803  -0.226021
    C   C68  0.765079  0.530964  0.118572  0.555904
    C   C69  0.807919  0.493266  0.081030  -0.349579
    C   C70  0.726941  0.602292  0.071947  -0.442726
    H   H32  0.649832  0.467244  0.178270  0.046883
    H   H33  0.631351  0.386988  0.123675  0.078520
    H   H34  0.821211  0.579096  0.151301  -0.091566
    H   H35  0.753475  0.447631  0.046506  0.111931
    H   H36  0.837744  0.442368  0.114142  0.048501
    H   H37  0.865797  0.563718  0.053899  0.048675
    H   H38  0.669698  0.556070  0.038850  0.093808
    H   H39  0.784547  0.670750  0.043551  0.098929
    H   H40  0.698796  0.633684  0.098998  0.079939
