data_DB0-m3_o11_o29_f0_pcu.sym.22_repeat
_audit_creation_date              2024-02-23
_audit_creation_method            'Materials Studio'
_symmetry_space_group_name_H-M    'P1'
_symmetry_Int_Tables_number       1
_symmetry_cell_setting            triclinic
loop_
_symmetry_equiv_pos_as_xyz
  x,y,z
_cell_length_a                    27.6138
_cell_length_b                    11.1387
_cell_length_c                    9.9049
_cell_angle_alpha                 89.9974
_cell_angle_beta                  89.9930
_cell_angle_gamma                 89.9936
loop_
_atom_site_label
_atom_site_type_symbol
_atom_site_fract_x
_atom_site_fract_y
_atom_site_fract_z
_atom_site_U_iso_or_equiv
_atom_site_adp_type
_atom_site_occupancy
O1     O     0.50151   0.32151   0.61229   0.00000  Uiso   1.00
O2     O     0.49968   0.32213   0.37970   0.00000  Uiso   1.00
C1     C     0.50048   0.26579   0.49619   0.00000  Uiso   1.00
O3     O     0.42933   0.50003   0.62324   0.00000  Uiso   1.00
O4     O     0.42711   0.50056   0.39071   0.00000  Uiso   1.00
C2     C     0.40554   0.50011   0.50859   0.00000  Uiso   1.00
Zn1    Zn    0.50193   0.49955   0.65305   0.00000  Uiso   1.00
Zn2    Zn    0.49868   0.50168   0.34595   0.00000  Uiso   1.00
O5     O     0.50165   0.67896   0.61956   0.00000  Uiso   1.00
O6     O     0.49928   0.68007   0.38616   0.00000  Uiso   1.00
O7     O     0.57354   0.49976   0.60866   0.00000  Uiso   1.00
O8     O     0.57130   0.50185   0.37542   0.00000  Uiso   1.00
C3     C     0.50032   0.73543   0.50322   0.00000  Uiso   1.00
C4     C     0.59505   0.50079   0.49042   0.00000  Uiso   1.00
C5     C     0.17648   0.39496   0.49452   0.00000  Uiso   1.00
O9     O     0.20145   0.29256   0.47712   0.00000  Uiso   1.00
N1     N     0.20057   0.49822   0.51611   0.00000  Uiso   1.00
C6     C     0.17635   0.60173   0.53501   0.00000  Uiso   1.00
C7     C     0.27678   0.47482   0.39691   0.00000  Uiso   1.00
C8     C     0.32666   0.47630   0.39470   0.00000  Uiso   1.00
C9     C     0.32773   0.52175   0.63041   0.00000  Uiso   1.00
C10    C     0.27775   0.52242   0.63172   0.00000  Uiso   1.00
C11    C     0.25218   0.49840   0.51511   0.00000  Uiso   1.00
C12    C     0.10086   0.49886   0.50926   0.00000  Uiso   1.00
C13    C     0.12638   0.39379   0.49229   0.00000  Uiso   1.00
C14    C     0.10175   0.28827   0.47117   0.00000  Uiso   1.00
C15    C     0.12625   0.60352   0.53047   0.00000  Uiso   1.00
C16    C     0.35245   0.49930   0.51158   0.00000  Uiso   1.00
H1     H     0.34706   0.54048   0.72289   0.00000  Uiso   1.00
H2     H     0.25867   0.54055   0.72483   0.00000  Uiso   1.00
H3     H     0.12077   0.20478   0.45468   0.00000  Uiso   1.00
C17    C     0.64814   0.50035   0.48739   0.00000  Uiso   1.00
C18    C     0.97486   0.39204   0.49541   0.00000  Uiso   1.00
C19    C     0.97516   0.60812   0.49859   0.00000  Uiso   1.00
C20    C     0.95000   0.50043   0.49449   0.00000  Uiso   1.00
C21    C     0.94826   0.28603   0.50257   0.00000  Uiso   1.00
C22    C     0.89859   0.28781   0.50238   0.00000  Uiso   1.00
C23    C     0.87407   0.39490   0.49406   0.00000  Uiso   1.00
C24    C     0.89961   0.50108   0.48976   0.00000  Uiso   1.00
C25    C     0.87423   0.60763   0.48119   0.00000  Uiso   1.00
C26    C     0.82393   0.60564   0.47649   0.00000  Uiso   1.00
N2     N     0.79994   0.50067   0.48287   0.00000  Uiso   1.00
C27    C     0.82403   0.39614   0.49210   0.00000  Uiso   1.00
C28    C     0.72384   0.47252   0.60093   0.00000  Uiso   1.00
C29    C     0.67395   0.47363   0.60323   0.00000  Uiso   1.00
C30    C     0.67282   0.52693   0.36958   0.00000  Uiso   1.00
C31    C     0.72280   0.52813   0.36835   0.00000  Uiso   1.00
C32    C     0.74837   0.50039   0.48387   0.00000  Uiso   1.00
O10    O     0.79904   0.29275   0.49771   0.00000  Uiso   1.00
C33    C     0.02553   0.39197   0.49056   0.00000  Uiso   1.00
C34    C     0.05052   0.49932   0.50458   0.00000  Uiso   1.00
C35    C     0.02557   0.60717   0.51364   0.00000  Uiso   1.00
C36    C     0.05204   0.28699   0.47069   0.00000  Uiso   1.00
H4     H     0.65557   0.45187   0.69639   0.00000  Uiso   1.00
H5     H     0.74373   0.45112   0.69180   0.00000  Uiso   1.00
H6     H     0.87950   0.20334   0.50876   0.00000  Uiso   1.00
H7     H     0.96448   0.19886   0.51375   0.00000  Uiso   1.00
H8     H     0.03571   0.20152   0.44906   0.00000  Uiso   1.00
O11    O     0.20120   0.70397   0.55459   0.00000  Uiso   1.00
C37    C     0.10147   0.70943   0.54751   0.00000  Uiso   1.00
H9     H     0.34506   0.45794   0.30065   0.00000  Uiso   1.00
H10    H     0.25696   0.45658   0.30505   0.00000  Uiso   1.00
H11    H     0.12031   0.79258   0.56730   0.00000  Uiso   1.00
C38    C     0.94915   0.71454   0.48592   0.00000  Uiso   1.00
C39    C     0.89953   0.71446   0.47687   0.00000  Uiso   1.00
O12    O     0.79841   0.70812   0.46904   0.00000  Uiso   1.00
C40    C     0.05184   0.71159   0.53891   0.00000  Uiso   1.00
H12    H     0.96601   0.80120   0.47752   0.00000  Uiso   1.00
H13    H     0.65345   0.54870   0.27800   0.00000  Uiso   1.00
H14    H     0.74190   0.54974   0.27622   0.00000  Uiso   1.00
H15    H     0.03524   0.79730   0.55762   0.00000  Uiso   1.00
C41    C     0.49943   0.93286   0.39314   0.00000  Uiso   1.00
C42    C     0.50043   0.86699   0.50652   0.00000  Uiso   1.00
H16    H     0.49850   0.88769   0.29632   0.00000  Uiso   1.00
H17    H     0.50135   0.90723   0.60552   0.00000  Uiso   1.00
C43    C     0.49947   0.06597   0.39036   0.00000  Uiso   1.00
C44    C     0.50063   0.13437   0.50131   0.00000  Uiso   1.00
H18    H     0.49845   0.10881   0.29219   0.00000  Uiso   1.00
H19    H     0.50166   0.09597   0.60119   0.00000  Uiso   1.00
C45    C     0.52037   0.58466   0.92695   0.00000  Uiso   1.00
N3     N     0.50504   0.49671   0.85480   0.00000  Uiso   1.00
H20    H     0.53277   0.66607   0.87805   0.00000  Uiso   1.00
H21    H     0.49943   0.41660   0.90368   0.00000  Uiso   1.00
C46    C     0.52419   0.57504   0.07558   0.00000  Uiso   1.00
N4     N     0.49629   0.50564   0.14418   0.00000  Uiso   1.00
H22    H     0.54994   0.63175   0.12802   0.00000  Uiso   1.00
H23    H     0.46822   0.46545   0.09337   0.00000  Uiso   1.00
F1     F     0.87669   0.82157   0.46411   0.00000  Uiso   1.00
