# Generated by REPEAT Assigner based on pymatgen
data_DB0-m29_o80_o500_f0_pts.sym.42
_audit_creation_date              2022-05-24
_audit_creation_method            REPEAT_Assigner
_cell_length_a                    13.823676
_cell_length_b                    13.323005
_cell_length_c                    15.797127
_cell_angle_alpha                 63.154954
_cell_angle_beta                  112.492684
_cell_angle_gamma                 115.046166
_cell_volume                      2284.891294
_symmetry_space_group_name_H-M    P1
_symmetry_Int_Tables_number       1
loop_
    _symmetry_equiv_pos_site_id
    _symmetry_equiv_pos_as_xyz
    1  x,y,z
loop_
    _atom_site_type_symbol
    _atom_site_label
    _atom_site_fract_x
    _atom_site_fract_y
    _atom_site_fract_z
    _atom_type_partial_charge
    H   H1   0.826487  0.613640  0.221973  0.197827
    C   C1   0.733565  0.141999  0.876871  -0.243517
    C   C2   0.818580  0.241448  0.848619  -0.195356
    C   C3   0.909966  0.204935  0.877768  0.454300
    N   N1   0.883641  0.086705  0.924800  -0.605435
    C   C4   0.776585  0.048913  0.926405  0.505070
    C   C5   0.010131  0.273216  0.859625  -0.283788
    C   C6   0.080819  0.216699  0.857420  0.342498
    C   C7   0.125141  0.251904  0.779685  -0.313927
    C   C8   0.193128  0.184859  0.809205  -0.091255
    C   C9   0.183846  0.107179  0.902660  0.247802
    N   N2   0.115342  0.127148  0.931458  -0.333095
    C   C10  0.240244  0.017147  0.963123  -0.205276
    C   C11  0.186652  0.908191  0.012289  0.429464
    C   C12  0.227836  0.813468  0.063147  -0.181422
    C   C13  0.142727  0.716506  0.094808  -0.170786
    C   C14  0.054783  0.756742  0.065645  0.464767
    N   N3   0.080424  0.873499  0.014384  -0.569374
    C   C15  0.962611  0.690099  0.095738  -0.365779
    C   C16  0.880712  0.738123  0.087608  0.411376
    C   C17  0.821171  0.690295  0.156545  -0.307787
    C   C18  0.755473  0.759693  0.126671  -0.088402
    C   C19  0.777388  0.847711  0.039143  0.303642
    N   N4   0.853827  0.833355  0.015915  -0.370209
    C   C20  0.723614  0.940018  0.977467  -0.269826
    H   H2   0.808650  0.327061  0.802247  0.192554
    H   H3   0.113285  0.322224  0.710608  0.189709
    H   H4   0.322386  0.035758  0.958353  0.170309
    H   H5   0.146686  0.628529  0.142391  0.147482
    H   H6   0.956797  0.599390  0.143234  0.172278
    H   H7   0.641616  0.922216  0.982142  0.184049
    H   H8   0.097671  0.086216  0.000065  0.320849
    H   H9   0.881847  0.882009  0.951992  0.324712
    O   O1   0.609830  0.793293  0.152507  -0.607876
    C   C21  0.679818  0.734340  0.183443  0.632031
    O   O2   0.429030  0.516648  0.172315  -0.546838
    O   O3   0.678472  0.644683  0.265869  -0.519770
    O   O4   0.480136  0.539981  0.319098  -0.560158
    C   C22  0.442485  0.471012  0.267518  0.592673
    Fe  Fe1  0.505010  0.709131  0.237630  1.464430
    O   O5   0.354512  0.706196  0.150123  -0.585589
    O   O6   0.423782  0.905902  0.104022  -0.529074
    C   C23  0.340870  0.810471  0.099355  0.659505
    O   O7   0.570992  0.799163  0.329910  -0.648021
    O   O8   0.392356  0.767380  0.316267  -0.529348
    C   C24  0.495564  0.797175  0.363051  0.726468
    C   C25  0.520236  0.650899  0.523211  -0.110533
    C   C26  0.516663  0.764744  0.468911  -0.099158
    C   C27  0.514336  0.832607  0.513809  0.169711
    C   C28  0.528244  0.787846  0.614559  -0.126855
    H   H10  0.535251  0.840310  0.653589  0.115656
    C   C29  0.531580  0.673604  0.667848  -0.148350
    C   C30  0.522928  0.603216  0.621315  0.041203
    C   C31  0.499411  0.950556  0.456060  -0.182733
    C   C32  0.454870  0.998635  0.485107  -0.195673
    H   H11  0.526128  0.998508  0.388496  0.155250
    H   H12  0.428068  0.950903  0.552616  0.153089
    C   C33  0.438811  0.184977  0.472127  -0.107397
    C   C34  0.434167  0.298308  0.417472  -0.117522
    C   C35  0.428876  0.344846  0.318950  0.060678
    C   C36  0.419061  0.273802  0.272507  -0.154139
    C   C37  0.423563  0.159960  0.326228  -0.126694
    H   H13  0.415728  0.106804  0.287448  0.111653
    C   C38  0.439597  0.116337  0.427178  0.177494
    H   H14  0.514167  0.596958  0.485844  0.122615
    H   H15  0.536649  0.639052  0.745336  0.137268
    H   H16  0.441221  0.352744  0.454817  0.126661
    H   H17  0.412311  0.307614  0.194769  0.141490
    O   O9   0.600743  0.243753  0.792909  -0.621493
    O   O10  0.538875  0.044758  0.831600  -0.546178
    C   C39  0.618709  0.141048  0.839763  0.719820
    O   O11  0.386599  0.148137  0.612911  -0.660523
    O   O12  0.565957  0.189926  0.622117  -0.541739
    C   C40  0.462507  0.154184  0.577997  0.757960
    O   O13  0.518458  0.430496  0.767301  -0.556407
    O   O14  0.344320  0.156059  0.787792  -0.619541
    C   C41  0.266913  0.207282  0.751375  0.655879
    O   O15  0.475206  0.408402  0.621253  -0.570771
    C   C42  0.508661  0.476854  0.672524  0.619084
    O   O16  0.263898  0.291592  0.665663  -0.540268
    Fe  Fe2  0.450572  0.239675  0.703951  1.486417
    C   C43  0.052472  0.406758  0.838960  0.651627
    C   C44  0.178320  0.449951  0.864163  -0.385091
    C   C45  0.012288  0.476323  0.731969  -0.420922
    C   C46  0.018956  0.437072  0.904357  -0.293836
    H   H18  0.210737  0.396728  0.940049  0.076485
    H   H19  0.208821  0.543878  0.858117  0.099002
    H   H20  0.213063  0.447576  0.812922  0.101773
    H   H21  0.055879  0.476516  0.685918  0.097067
    H   H22  0.029559  0.569077  0.723743  0.102997
    H   H23  0.923255  0.438572  0.704613  0.077426
    H   H24  0.017311  0.365140  0.976394  0.043384
    H   H25  0.938556  0.454065  0.869847  0.041344
    H   H26  0.078462  0.519184  0.917282  0.070904
