# Generated by REPEAT Assigner based on pymatgen
data_DB0-m3_o6_o15_f0_nbo.sym.67
_audit_creation_date              2022-05-24
_audit_creation_method            REPEAT_Assigner
_cell_length_a                    32.270231
_cell_length_b                    32.270323
_cell_length_c                    21.948940
_cell_angle_alpha                 90.000000
_cell_angle_beta                  90.000000
_cell_angle_gamma                 90.000000
_cell_volume                      22856.984575
_symmetry_space_group_name_H-M    P1
_symmetry_Int_Tables_number       1
loop_
    _symmetry_equiv_pos_site_id
    _symmetry_equiv_pos_as_xyz
    1  x,y,z
loop_
    _atom_site_type_symbol
    _atom_site_label
    _atom_site_fract_x
    _atom_site_fract_y
    _atom_site_fract_z
    _atom_type_partial_charge
    O   O1    0.438359  0.034983  0.496709  -0.664297
    O   O2    0.964987  0.438421  0.500002  -0.664005
    O   O3    0.561610  0.965040  0.500147  -0.663820
    O   O4    0.035023  0.561631  0.496790  -0.664622
    O   O5    0.561925  0.036628  0.499357  -0.648349
    O   O6    0.036576  0.438061  0.499222  -0.648966
    O   O7    0.438033  0.963450  0.501385  -0.649312
    O   O8    0.963490  0.561997  0.501459  -0.649532
    O   O9    0.938371  0.534916  0.997256  -0.664259
    O   O10   0.465044  0.938395  0.997303  -0.664178
    O   O11   0.061638  0.464984  0.999540  -0.664202
    O   O12   0.535067  0.061616  0.999545  -0.664155
    O   O13   0.061946  0.536572  0.998676  -0.649853
    O   O14   0.536576  0.938047  0.002008  -0.649495
    O   O15   0.938070  0.463385  0.002008  -0.649507
    O   O16   0.463479  0.061971  0.998729  -0.649819
    C   C1    0.418994  0.999287  0.498891  0.594026
    C   C2    0.000696  0.419035  0.499703  0.595627
    C   C3    0.580974  0.000761  0.499882  0.592160
    C   C4    0.999339  0.581016  0.499006  0.595776
    C   C5    0.919019  0.499221  0.999663  0.593096
    C   C6    0.500728  0.919019  0.999686  0.593460
    C   C7    0.080998  0.500707  0.999050  0.596571
    C   C8    0.499357  0.080999  0.999078  0.595685
    O   O17   0.501868  0.036689  0.408464  -0.680097
    O   O18   0.965297  0.501558  0.408743  -0.693719
    O   O19   0.498542  0.965300  0.408776  -0.693479
    O   O20   0.036685  0.498191  0.408433  -0.679689
    O   O21   0.499947  0.034801  0.590009  -0.687705
    O   O22   0.034793  0.499971  0.589981  -0.687525
    O   O23   0.499556  0.963319  0.590334  -0.673536
    O   O24   0.963311  0.500401  0.590299  -0.674008
    O   O25   0.001472  0.536578  0.908381  -0.680400
    O   O26   0.463397  0.001497  0.908432  -0.680330
    O   O27   0.998150  0.465189  0.908799  -0.694541
    O   O28   0.534785  0.998131  0.908802  -0.694468
    O   O29   0.000387  0.534791  0.089943  -0.687397
    O   O30   0.536729  0.999977  0.090347  -0.674122
    O   O31   0.000000  0.463309  0.090346  -0.674187
    O   O32   0.465248  0.000407  0.089993  -0.687376
    C   C9    0.500239  0.000947  0.379976  0.764980
    C   C10   0.000944  0.499856  0.379944  0.762938
    C   C11   0.499685  0.999109  0.618804  0.744625
    C   C12   0.999100  0.500237  0.618773  0.743111
    C   C13   0.999708  0.500822  0.879946  0.764289
    C   C14   0.499143  0.999712  0.879974  0.763946
    C   C15   0.000261  0.499112  0.118776  0.742888
    C   C16   0.500934  0.000259  0.118803  0.743234
    Zn  Zn1   0.499988  0.046967  0.499456  1.294905
    Zn  Zn2   0.953080  0.500091  0.499258  1.295874
    Zn  Zn3   0.499949  0.953087  0.499294  1.295459
    Zn  Zn4   0.046961  0.499990  0.499428  1.295095
    Zn  Zn5   0.000011  0.546906  0.999377  1.295650
    Zn  Zn6   0.453100  0.000043  0.999436  1.295633
    Zn  Zn7   0.999976  0.453026  0.999315  1.296703
    Zn  Zn8   0.546980  0.999945  0.999309  1.296696
    H   H1    0.397973  0.097639  0.302744  0.087843
    H   H2    0.904080  0.396976  0.305074  0.088999
    H   H3    0.603092  0.904062  0.305069  0.089251
    H   H4    0.097672  0.602079  0.302686  0.087933
    H   H5    0.607522  0.089947  0.694776  0.085062
    H   H6    0.089945  0.392416  0.694774  0.085353
    H   H7    0.391554  0.908588  0.694730  0.083739
    H   H8    0.908610  0.608403  0.694678  0.083538
    H   H9    0.896982  0.597451  0.803942  0.087405
    H   H10   0.402498  0.896987  0.804002  0.087377
    H   H11   0.102094  0.403859  0.803808  0.088681
    H   H12   0.596099  0.102089  0.803816  0.089102
    H   H13   0.108522  0.589916  0.193527  0.084555
    H   H14   0.591491  0.892545  0.195923  0.084098
    H   H15   0.892563  0.408554  0.195923  0.083956
    H   H16   0.410143  0.108517  0.193592  0.084559
    C   C17   0.557201  0.951336  0.311511  -0.258262
    C   C18   0.050356  0.556309  0.310231  -0.260949
    C   C19   0.443759  0.050338  0.310275  -0.260074
    C   C20   0.951340  0.442881  0.311502  -0.257813
    C   C21   0.440090  0.953105  0.687778  -0.280238
    C   C22   0.953114  0.559854  0.687737  -0.278782
    C   C23   0.559017  0.045394  0.687843  -0.276835
    C   C24   0.045384  0.440912  0.687830  -0.276120
    C   C25   0.056262  0.451155  0.810808  -0.257235
    C   C26   0.548798  0.056265  0.810826  -0.257549
    C   C27   0.942824  0.550164  0.810917  -0.263499
    C   C28   0.449777  0.942838  0.810965  -0.262422
    C   C29   0.941022  0.453113  0.188421  -0.279805
    C   C30   0.454665  0.059950  0.187193  -0.276720
    C   C31   0.059945  0.545404  0.187144  -0.276577
    C   C32   0.546942  0.941016  0.188435  -0.280924
    C   C33   0.580501  0.922472  0.280792  -0.080118
    C   C34   0.079078  0.579401  0.278891  -0.078321
    C   C35   0.420659  0.079058  0.278944  -0.078012
    C   C36   0.922484  0.419568  0.280789  -0.079622
    C   C37   0.415168  0.925796  0.718810  -0.051445
    C   C38   0.925807  0.584782  0.718761  -0.051731
    C   C39   0.583804  0.072855  0.718817  -0.052409
    C   C40   0.072851  0.416134  0.718810  -0.053211
    C   C41   0.079392  0.422296  0.779799  -0.079417
    C   C42   0.577654  0.079393  0.779810  -0.080174
    C   C43   0.919557  0.578894  0.779874  -0.075387
    C   C44   0.421052  0.919561  0.779928  -0.075834
    C   C45   0.916282  0.425790  0.219737  -0.051199
    C   C46   0.427212  0.084905  0.217891  -0.052389
    C   C47   0.084911  0.572851  0.217834  -0.051871
    C   C48   0.574266  0.916269  0.219742  -0.051052
    C   C49   0.525034  0.972216  0.218196  0.181662
    C   C50   0.028893  0.523689  0.217542  0.177163
    C   C51   0.476383  0.028895  0.217580  0.178539
    C   C52   0.972216  0.475034  0.218176  0.179600
    C   C53   0.473427  0.972587  0.780876  0.165452
    C   C54   0.972577  0.526513  0.780839  0.167657
    C   C55   0.525284  0.026360  0.780836  0.166823
    C   C56   0.026352  0.474658  0.780813  0.167516
    C   C57   0.023638  0.472102  0.717870  0.176626
    C   C58   0.527828  0.023649  0.717891  0.178454
    C   C59   0.974990  0.528786  0.717846  0.177049
    C   C60   0.471150  0.974996  0.717883  0.180167
    C   C61   0.974805  0.472653  0.281144  0.167598
    C   C62   0.473652  0.026657  0.280549  0.168189
    C   C63   0.026660  0.526426  0.280510  0.168802
    C   C64   0.527429  0.974806  0.281164  0.167727
    C   C65   0.500781  0.000456  0.185928  -0.255512
    C   C66   0.000454  0.499285  0.185900  -0.253619
    C   C67   0.499289  0.999548  0.812832  -0.254180
    C   C68   0.999539  0.500656  0.812803  -0.255541
    C   C69   0.999237  0.500371  0.685898  -0.251600
    C   C70   0.499554  0.999249  0.685928  -0.255070
    C   C71   0.000799  0.499651  0.312802  -0.257889
    C   C72   0.500439  0.000802  0.312833  -0.259545
    H   H17   0.563787  0.955084  0.359327  0.206357
    H   H18   0.046912  0.563129  0.358023  0.208246
    H   H19   0.436934  0.046881  0.358063  0.208059
    H   H20   0.955089  0.436303  0.359320  0.206267
    H   H21   0.433750  0.956951  0.639909  0.214368
    H   H22   0.956972  0.566199  0.639871  0.214453
    H   H23   0.565563  0.041314  0.640074  0.212368
    H   H24   0.041302  0.434358  0.640063  0.211922
    H   H25   0.063088  0.454868  0.858556  0.205409
    H   H26   0.545095  0.063086  0.858578  0.205701
    H   H27   0.936235  0.546672  0.858772  0.209251
    H   H28   0.453267  0.936259  0.858823  0.209007
    H   H29   0.934441  0.456942  0.140619  0.214611
    H   H30   0.458764  0.066265  0.139360  0.212527
    H   H31   0.066249  0.541308  0.139308  0.212385
    H   H32   0.543103  0.934431  0.140636  0.214949
    C   C73   0.228571  0.973226  0.538205  -0.223009
    C   C74   0.026386  0.228566  0.539539  -0.222649
    C   C75   0.771285  0.026563  0.540991  -0.224074
    C   C76   0.973369  0.771287  0.539714  -0.224861
    C   C77   0.771494  0.973807  0.462436  -0.222841
    C   C78   0.973574  0.228668  0.461066  -0.230330
    C   C79   0.228572  0.026398  0.460260  -0.228889
    C   C80   0.026464  0.771580  0.461657  -0.223654
    C   C81   0.728699  0.473180  0.040232  -0.224615
    C   C82   0.526691  0.728693  0.040250  -0.223216
    C   C83   0.271428  0.526572  0.038732  -0.219315
    C   C84   0.473590  0.271438  0.038766  -0.222373
    C   C85   0.271408  0.473820  0.960172  -0.227920
    C   C86   0.473467  0.728507  0.962382  -0.223949
    C   C87   0.728500  0.526388  0.962341  -0.225141
    C   C88   0.526365  0.271399  0.960237  -0.230375
    C   C89   0.207274  0.999837  0.499269  0.271480
    C   C90   0.999955  0.207320  0.500279  0.272664
    C   C91   0.792687  0.000164  0.501867  0.267587
    C   C92   0.999944  0.792730  0.500899  0.270864
    C   C93   0.707303  0.499812  0.001446  0.269961
    C   C94   0.500048  0.707304  0.001471  0.270394
    C   C95   0.292715  0.500177  0.999467  0.270484
    C   C96   0.500001  0.292715  0.999512  0.271087
    C   C97   0.271746  0.027330  0.462007  -0.122445
    C   C98   0.972662  0.271840  0.462886  -0.119778
    C   C99   0.728316  0.972871  0.463916  -0.121297
    C   C100  0.027393  0.728400  0.463043  -0.124581
    C   C101  0.728123  0.027644  0.538806  -0.125362
    C   C102  0.027488  0.271735  0.537692  -0.126643
    C   C103  0.271738  0.972155  0.536256  -0.129860
    C   C104  0.972291  0.728129  0.537409  -0.126247
    C   C105  0.771678  0.527309  0.963834  -0.121546
    C   C106  0.472557  0.771686  0.963877  -0.122613
    C   C107  0.228236  0.472869  0.961943  -0.122204
    C   C108  0.527295  0.228226  0.962005  -0.119142
    C   C109  0.228259  0.527640  0.036837  -0.127168
    C   C110  0.527781  0.771854  0.038046  -0.128235
    C   C111  0.771861  0.472102  0.038031  -0.128814
    C   C112  0.472505  0.228270  0.036868  -0.126532
    C   C113  0.292745  0.999696  0.499060  0.270576
    C   C114  0.000142  0.292790  0.500247  0.264442
    C   C115  0.707218  0.000311  0.501158  0.264519
    C   C116  0.999791  0.707262  0.499978  0.267546
    C   C117  0.792772  0.499653  0.000735  0.267825
    C   C118  0.500228  0.792773  0.000763  0.265450
    C   C119  0.207245  0.500299  0.999332  0.264047
    C   C120  0.499844  0.207246  0.999375  0.263666
    C   C121  0.162680  0.999875  0.499315  -0.250217
    C   C122  0.999950  0.162726  0.500157  -0.250085
    C   C123  0.837281  0.000145  0.502134  -0.249636
    C   C124  0.999977  0.837323  0.501310  -0.253270
    C   C125  0.662709  0.499852  0.001741  -0.250020
    C   C126  0.500017  0.662710  0.001747  -0.253882
    C   C127  0.337309  0.500155  0.999460  -0.253058
    C   C128  0.500017  0.337310  0.999484  -0.248593
    C   C129  0.337297  0.999590  0.498914  -0.268001
    C   C130  0.000318  0.337341  0.500096  -0.260212
    C   C131  0.662668  0.000446  0.500695  -0.262094
    C   C132  0.999684  0.662712  0.499486  -0.263962
    C   C133  0.837323  0.499530  0.000309  -0.265925
    C   C134  0.500369  0.837323  0.000331  -0.262998
    C   C135  0.162694  0.500411  0.999191  -0.259748
    C   C136  0.499708  0.162695  0.999226  -0.261163
    C   C137  0.374614  0.999470  0.498849  0.130151
    C   C138  0.000483  0.374657  0.499928  0.124226
    C   C139  0.625351  0.000579  0.500307  0.128248
    C   C140  0.999552  0.625395  0.499180  0.126948
    C   C141  0.874640  0.499403  0.999980  0.129569
    C   C142  0.500517  0.874640  0.000001  0.127751
    C   C143  0.125377  0.500530  0.999095  0.123969
    C   C144  0.499564  0.125378  0.999125  0.125275
    C   C145  0.125332  0.999909  0.499311  0.022106
    C   C146  0.999955  0.125379  0.499982  0.023426
    C   C147  0.874628  0.000125  0.502290  0.024365
    C   C148  0.999991  0.874670  0.501624  0.026174
    C   C149  0.625362  0.499887  0.001940  0.024998
    C   C150  0.500005  0.625363  0.001936  0.027075
    C   C151  0.374657  0.500129  0.999401  0.024770
    C   C152  0.500020  0.374658  0.999412  0.022451
    O   O33   0.000877  0.938493  0.449433  -0.677447
    O   O34   0.061734  0.001032  0.446596  -0.661739
    O   O35   0.000882  0.061909  0.446928  -0.662265
    O   O36   0.938325  0.001069  0.449774  -0.677661
    O   O37   0.999059  0.938138  0.554713  -0.661038
    O   O38   0.938226  0.999035  0.555046  -0.661966
    O   O39   0.999104  0.061556  0.552209  -0.677689
    O   O40   0.061637  0.998958  0.551867  -0.677456
    O   O41   0.499059  0.438213  0.946575  -0.662075
    O   O42   0.561624  0.499042  0.949526  -0.677457
    O   O43   0.499077  0.561624  0.949523  -0.676811
    O   O44   0.438212  0.499095  0.946573  -0.661237
    O   O45   0.500922  0.438396  0.051855  -0.678090
    O   O46   0.438394  0.500998  0.051851  -0.677728
    O   O47   0.500979  0.561809  0.054802  -0.661510
    O   O48   0.561807  0.500907  0.054806  -0.662261
    C   C153  0.999992  0.919092  0.501951  0.671696
    C   C154  0.080910  0.999957  0.499249  0.674862
    C   C155  0.999970  0.080957  0.499688  0.675214
    C   C156  0.919051  0.000090  0.502389  0.674917
    C   C157  0.500013  0.419080  0.999268  0.675908
    C   C158  0.580940  0.499935  0.002112  0.674396
    C   C159  0.500005  0.580941  0.002108  0.671580
    C   C160  0.419079  0.500086  0.999263  0.673083
    Zn  Zn9   0.999844  0.000057  0.431829  1.320553
    Zn  Zn10  0.000118  0.999991  0.569811  1.319377
    Zn  Zn11  0.500090  0.500090  0.931697  1.319686
    Zn  Zn12  0.499928  0.499931  0.069680  1.320607
    C   C161  0.297021  0.942440  0.573938  0.374025
    O   O49   0.318040  0.964048  0.619509  -0.595009
    H   H33   0.319735  0.926244  0.544416  0.011535
    H   H34   0.278689  0.917515  0.595322  0.016841
    H   H35   0.295917  0.974511  0.646692  0.353050
    C   C162  0.057041  0.296969  0.575718  0.369018
    O   O50   0.035226  0.317993  0.621069  -0.595765
    H   H36   0.073409  0.319677  0.546392  0.012851
    H   H37   0.081837  0.278600  0.597361  0.018193
    H   H38   0.024479  0.295862  0.647997  0.353665
    C   C163  0.702736  0.057150  0.576690  0.368410
    O   O51   0.681570  0.035287  0.621849  -0.595345
    H   H39   0.680117  0.073524  0.547221  0.012244
    H   H40   0.721011  0.081943  0.598509  0.018164
    H   H41   0.703605  0.024697  0.649082  0.353574
    C   C164  0.942612  0.702705  0.574948  0.369808
    O   O52   0.964263  0.681513  0.620301  -0.593860
    H   H42   0.926383  0.680103  0.545278  0.012077
    H   H43   0.917708  0.720957  0.596534  0.017734
    H   H44   0.974597  0.703521  0.647792  0.352764
    C   C165  0.703127  0.943425  0.425652  0.356724
    O   O53   0.682486  0.965311  0.379995  -0.594311
    H   H45   0.680161  0.927227  0.454746  0.017578
    H   H46   0.721478  0.918497  0.404305  0.020005
    H   H47   0.704865  0.976644  0.354045  0.354634
    C   C166  0.943207  0.297184  0.424855  0.359970
    O   O54   0.965076  0.317969  0.379321  -0.593975
    H   H48   0.927045  0.320059  0.454147  0.016371
    H   H49   0.918251  0.278926  0.403408  0.018606
    H   H50   0.976318  0.295675  0.353129  0.354032
    C   C167  0.297036  0.056984  0.424239  0.361175
    O   O55   0.317818  0.035343  0.378468  -0.595842
    H   H51   0.319910  0.073036  0.453662  0.017120
    H   H52   0.278739  0.082017  0.403060  0.018677
    H   H53   0.295518  0.024109  0.352280  0.355143
    C   C168  0.057008  0.703252  0.425007  0.362417
    O   O56   0.035320  0.682646  0.379113  -0.595429
    H   H54   0.073086  0.680265  0.454209  0.016815
    H   H55   0.082021  0.721627  0.403924  0.018529
    H   H56   0.024009  0.705047  0.353183  0.354386
    C   C169  0.797240  0.442366  0.075537  0.372655
    O   O57   0.818393  0.463953  0.120996  -0.595473
    H   H57   0.819866  0.426175  0.045864  0.012127
    H   H58   0.778960  0.417439  0.097013  0.016652
    H   H59   0.796341  0.474525  0.148214  0.353175
    C   C170  0.557538  0.797224  0.075531  0.372800
    O   O58   0.535973  0.818385  0.121003  -0.595615
    H   H60   0.573727  0.819844  0.045846  0.011919
    H   H61   0.582465  0.778935  0.096991  0.016898
    H   H62   0.525385  0.796337  0.148214  0.353265
    C   C171  0.202982  0.557139  0.074891  0.372208
    O   O59   0.181972  0.535272  0.120203  -0.595057
    H   H63   0.180262  0.573502  0.045578  0.011680
    H   H64   0.221316  0.581943  0.096575  0.017253
    H   H65   0.204094  0.524753  0.147341  0.353120
    C   C172  0.442984  0.203004  0.074904  0.371537
    O   O60   0.464830  0.181979  0.120222  -0.594944
    H   H66   0.426616  0.180296  0.045578  0.012032
    H   H67   0.418184  0.221349  0.096578  0.017203
    H   H68   0.475368  0.204095  0.147357  0.353171
    C   C173  0.202937  0.443415  0.923849  0.361739
    O   O61   0.182142  0.465297  0.878339  -0.594873
    H   H69   0.180071  0.427206  0.953099  0.016356
    H   H70   0.221230  0.418497  0.902372  0.018381
    H   H71   0.204434  0.476678  0.852275  0.354350
    C   C174  0.442893  0.796888  0.925998  0.364314
    O   O62   0.464515  0.817528  0.880069  -0.595067
    H   H72   0.426876  0.819857  0.955305  0.015901
    H   H73   0.417835  0.778547  0.904965  0.017883
    H   H74   0.475711  0.795148  0.853993  0.353989
    C   C175  0.796873  0.556973  0.925944  0.360063
    O   O63   0.817521  0.535348  0.880026  -0.594471
    H   H75   0.819834  0.573005  0.955245  0.017154
    H   H76   0.778525  0.582022  0.904899  0.018870
    H   H77   0.795146  0.524150  0.853944  0.354091
    C   C176  0.556743  0.202915  0.923920  0.359702
    O   O64   0.534860  0.182133  0.878398  -0.594701
    H   H78   0.572936  0.180038  0.953173  0.016696
    H   H79   0.581675  0.221195  0.902454  0.018573
    H   H80   0.523516  0.204433  0.852310  0.354394
    C   C177  0.205051  0.946023  0.581955  0.349927
    O   O65   0.204408  0.905402  0.560256  -0.616977
    H   H81   0.172838  0.956181  0.590279  -0.026828
    H   H82   0.219812  0.946991  0.627520  0.026111
    H   H83   0.182431  0.905331  0.528791  0.385846
    C   C178  0.053370  0.204989  0.583514  0.346065
    O   O66   0.094094  0.204355  0.562236  -0.615866
    H   H84   0.043158  0.172773  0.591657  -0.027097
    H   H85   0.052188  0.219702  0.629102  0.027613
    H   H86   0.094294  0.182453  0.530659  0.385541
    C   C179  0.794688  0.053531  0.585187  0.354045
    O   O67   0.795361  0.094273  0.563982  -0.617605
    H   H87   0.826885  0.043342  0.593554  -0.030335
    H   H88   0.779816  0.052301  0.630661  0.026363
    H   H89   0.817310  0.094494  0.532477  0.386063
    C   C180  0.946214  0.794641  0.583720  0.352517
    O   O68   0.905570  0.795371  0.562118  -0.617757
    H   H90   0.956384  0.826819  0.592294  -0.028667
    H   H91   0.947227  0.779704  0.629160  0.026489
    H   H92   0.905479  0.817442  0.530795  0.386394
    C   C181  0.795132  0.946757  0.418617  0.349668
    O   O69   0.795582  0.906031  0.439898  -0.616238
    H   H93   0.827403  0.956871  0.410685  -0.028321
    H   H94   0.780566  0.947979  0.372929  0.026927
    H   H95   0.817392  0.905765  0.471611  0.385342
    C   C182  0.946475  0.205204  0.417109  0.357368
    O   O70   0.905762  0.204718  0.438443  -0.618089
    H   H96   0.956553  0.172952  0.408924  -0.030840
    H   H97   0.947681  0.219929  0.371530  0.026127
    H   H98   0.905524  0.182876  0.470109  0.385751
    C   C183  0.205049  0.053676  0.416613  0.354470
    O   O71   0.204533  0.094288  0.438357  -0.617526
    H   H99   0.172803  0.043596  0.408379  -0.028957
    H   H100  0.219741  0.052699  0.371000  0.026025
    H   H101  0.182621  0.094387  0.469921  0.386202
    C   C184  0.053703  0.795268  0.418151  0.351893
    O   O72   0.094336  0.795698  0.439816  -0.616579
    H   H102  0.043617  0.827546  0.410208  -0.027360
    H   H103  0.052681  0.780752  0.372417  0.025422
    H   H104  0.094482  0.817533  0.471494  0.385324
    C   C185  0.705293  0.445962  0.084092  0.356616
    O   O73   0.704593  0.405349  0.062366  -0.617819
    H   H105  0.673103  0.456119  0.092606  -0.031278
    H   H106  0.720174  0.446913  0.129574  0.025711
    H   H107  0.682609  0.405317  0.030910  0.385860
    C   C186  0.553907  0.705279  0.084103  0.354394
    O   O74   0.594514  0.704548  0.062350  -0.617883
    H   H108  0.543730  0.673098  0.092639  -0.029157
    H   H109  0.552979  0.720169  0.129580  0.025362
    H   H110  0.594546  0.682490  0.031007  0.386265
    C   C187  0.294959  0.553547  0.082771  0.342057
    O   O75   0.295563  0.594287  0.061554  -0.616178
    H   H111  0.327183  0.543364  0.090928  -0.024456
    H   H112  0.280226  0.552320  0.128343  0.028118
    H   H113  0.317481  0.594531  0.030002  0.386251
    C   C188  0.446615  0.294979  0.082794  0.347911
    O   O76   0.405880  0.295602  0.061557  -0.616738
    H   H114  0.456812  0.327197  0.090961  -0.027596
    H   H115  0.447825  0.280242  0.128364  0.027250
    H   H116  0.405664  0.317493  0.029964  0.385648
    C   C189  0.294919  0.446782  0.916189  0.357553
    O   O77   0.295452  0.406054  0.937461  -0.618260
    H   H117  0.327160  0.456910  0.908040  -0.029840
    H   H118  0.280209  0.448001  0.870601  0.025275
    H   H119  0.317366  0.405794  0.969019  0.386344
    C   C190  0.446145  0.704880  0.918916  0.345764
    O   O78   0.405547  0.704450  0.940721  -0.615681
    H   H120  0.456198  0.672604  0.910860  -0.025922
    H   H121  0.447102  0.719444  0.873213  0.027851
    H   H122  0.405448  0.682603  0.972382  0.385764
    C   C191  0.704866  0.553692  0.918860  0.348107
    O   O79   0.704419  0.594294  0.940648  -0.616145
    H   H123  0.672594  0.543626  0.910803  -0.027863
    H   H124  0.719432  0.552732  0.873159  0.027800
    H   H125  0.682583  0.594388  0.972325  0.385647
    C   C192  0.553431  0.294899  0.916279  0.357199
    O   O80   0.594154  0.295395  0.937570  -0.617512
    H   H126  0.543332  0.327151  0.908142  -0.031212
    H   H127  0.552210  0.280199  0.870684  0.026179
    H   H128  0.594405  0.317245  0.969224  0.385735
