# Generated by REPEAT Assigner based on pymatgen
data_DB0-m3_o51_o20_f0_fsc.sym.16_sqe
_audit_creation_date              2022-05-24
_audit_creation_method            REPEAT_Assigner
_cell_length_a                    13.039142
_cell_length_b                    12.883246
_cell_length_c                    8.473766
_cell_angle_alpha                 90.000000
_cell_angle_beta                  93.397916
_cell_angle_gamma                 90.000000
_cell_volume                      1420.975588
_symmetry_space_group_name_H-M    P1
_symmetry_Int_Tables_number       1
loop_
    _symmetry_equiv_pos_site_id
    _symmetry_equiv_pos_as_xyz
    1  x,y,z
loop_
    _atom_site_type_symbol
    _atom_site_label
    _atom_site_fract_x
    _atom_site_fract_y
    _atom_site_fract_z
    _atom_type_partial_charge
    C   C1   0.704429  0.964937  0.158471  0.096142
    C   C2   0.295572  0.964937  0.841530  0.096319
    C   C3   0.793575  0.023848  0.165173  -0.165512
    C   C4   0.206426  0.023848  0.834828  -0.165573
    C   C5   0.852151  0.032227  0.032042  0.165436
    C   C6   0.147849  0.032227  0.967958  0.165388
    C   C7   0.801243  0.007472  0.886259  -0.077085
    C   C8   0.198758  0.007472  0.113741  -0.077152
    H   H1   0.827998  0.022661  0.772386  0.123637
    H   H2   0.172002  0.022661  0.227614  0.123667
    C   C9   0.705396  0.962290  0.880154  -0.114373
    C   C10  0.294604  0.962290  0.119847  -0.114112
    C   C11  0.663447  0.930149  0.015873  -0.133849
    C   C12  0.336554  0.930149  0.984128  -0.134107
    C   C13  0.965774  0.056566  0.057813  -0.170484
    C   C14  0.034226  0.056566  0.942188  -0.170361
    C   C15  0.500000  0.415116  0.500000  0.042631
    C   C16  0.500000  0.508648  0.500000  0.038612
    Zn  Zn1  0.500000  0.079412  0.500000  1.060652
    Zn  Zn2  0.500000  0.844354  0.500000  1.134876
    H   H3   0.588501  0.894518  0.009473  0.143538
    H   H4   0.411499  0.894518  0.990528  0.143638
    O   O1   0.604967  0.871728  0.339991  -0.638717
    O   O2   0.394998  0.052281  0.659440  -0.561840
    O   O3   0.395033  0.871728  0.660010  -0.638706
    O   O4   0.605002  0.052281  0.340561  -0.561809
    C   C17  0.637627  0.962390  0.290331  0.582216
    C   C18  0.362373  0.962390  0.709670  0.582125
    O   O5   0.393176  0.050774  0.322676  -0.700476
    O   O6   0.606609  0.872702  0.677647  -0.719094
    O   O7   0.606825  0.050774  0.677325  -0.700444
    O   O8   0.393392  0.872702  0.322354  -0.719085
    C   C19  0.359546  0.961570  0.266529  0.918830
    C   C20  0.640454  0.961570  0.733472  0.918966
    C   C21  0.500000  0.305518  0.500000  0.278040
    C   C22  0.500000  0.618247  0.500000  0.269604
    N   N1   0.500000  0.215712  0.500000  -0.121800
    N   N2   0.500000  0.708052  0.500000  -0.132559
    N   N3   0.004259  0.065670  0.217613  0.648618
    O   O9   0.046079  0.152349  0.267231  -0.299210
    O   O10  0.994625  0.988883  0.315420  -0.310148
    N   N4   0.995741  0.065670  0.782388  0.648589
    O   O11  0.953921  0.152348  0.732769  -0.299220
    O   O12  0.005376  0.988883  0.684581  -0.310107
    N   N5   0.818658  0.082737  0.304839  0.520747
    O   O13  0.803269  0.044320  0.443361  -0.277587
    O   O14  0.845696  0.179433  0.292751  -0.316033
    N   N6   0.181342  0.082736  0.695162  0.520788
    O   O15  0.196731  0.044320  0.556640  -0.277574
    O   O16  0.154304  0.179433  0.707250  -0.316041
