# Generated by REPEAT Assigner based on pymatgen
data_DB0-m29_o80_o52_f0_pts.sym.1
_audit_creation_date              2022-05-24
_audit_creation_method            REPEAT_Assigner
_cell_length_a                    14.034592
_cell_length_b                    9.263666
_cell_length_c                    22.221306
_cell_angle_alpha                 93.749265
_cell_angle_beta                  90.204120
_cell_angle_gamma                 68.904213
_cell_volume                      2689.020803
_symmetry_space_group_name_H-M    P1
_symmetry_Int_Tables_number       1
loop_
    _symmetry_equiv_pos_site_id
    _symmetry_equiv_pos_as_xyz
    1  x,y,z
loop_
    _atom_site_type_symbol
    _atom_site_label
    _atom_site_fract_x
    _atom_site_fract_y
    _atom_site_fract_z
    _atom_type_partial_charge
    H   H1   0.089834  0.173905  0.808963  0.193037
    C   C1   0.285416  0.918275  0.088457  -0.157878
    C   C2   0.243390  0.836771  0.122306  -0.280785
    C   C3   0.150357  0.853496  0.097752  0.480394
    N   N1   0.134098  0.938144  0.049148  -0.510996
    C   C4   0.217332  0.977162  0.043056  0.434028
    C   C5   0.084305  0.800104  0.122154  -0.341264
    C   C6   0.978118  0.838556  0.103675  0.337280
    C   C7   0.901710  0.845897  0.143408  -0.288684
    C   C8   0.812681  0.888883  0.111740  -0.088757
    C   C9   0.838296  0.904779  0.052928  0.259184
    N   N2   0.940190  0.873033  0.048426  -0.292652
    C   C10  0.766173  0.949400  0.002956  -0.272012
    C   C11  0.782687  0.022905  0.956778  0.433993
    C   C12  0.714603  0.081800  0.911379  -0.157682
    C   C13  0.756611  0.163350  0.877544  -0.281984
    C   C14  0.849640  0.146632  0.902101  0.482916
    N   N3   0.865910  0.061953  0.950696  -0.512081
    C   C15  0.915685  0.200044  0.877703  -0.342211
    C   C16  0.021877  0.161555  0.896171  0.336677
    C   C17  0.098280  0.154182  0.856429  -0.287649
    C   C18  0.187316  0.111166  0.888089  -0.090422
    C   C19  0.161713  0.095279  0.946905  0.260529
    N   N4   0.059816  0.127063  0.951417  -0.292602
    C   C20  0.233849  0.050640  0.996871  -0.272808
    H   H2   0.275873  0.775819  0.161684  0.161777
    H   H3   0.105905  0.741361  0.163457  0.171974
    H   H4   0.910146  0.826176  0.190875  0.193273
    H   H5   0.693953  0.932534  0.005844  0.180797
    H   H6   0.724124  0.224316  0.838170  0.161878
    H   H7   0.894078  0.258804  0.836404  0.172204
    H   H8   0.306076  0.067483  0.993975  0.181036
    H   H9   0.983453  0.866301  0.009675  0.268697
    H   H10  0.016559  0.133808  0.990172  0.268690
    O   O1   0.504519  0.856031  0.754655  -0.467567
    O   O2   0.445172  0.743202  0.825531  -0.479053
    C   C21  0.476661  0.741977  0.769910  0.450678
    O   O3   0.372780  0.038027  0.887174  -0.588911
    O   O4   0.288041  0.095032  0.800190  -0.545726
    C   C22  0.286177  0.081287  0.858508  0.664046
    O   O5   0.570506  0.072297  0.718455  -0.547071
    O   O6   0.605998  0.947397  0.873925  -0.654056
    C   C23  0.613714  0.075315  0.899074  0.720747
    O   O7   0.438568  0.209040  0.783187  -0.562031
    C   C24  0.498263  0.203152  0.736983  0.657508
    O   O8   0.539328  0.207132  0.891210  -0.568605
    Fe  Fe1  0.481576  0.013817  0.824806  1.452901
    O   O9   0.561341  0.791094  0.216585  -0.562015
    C   C25  0.501623  0.796987  0.262779  0.657027
    O   O10  0.460700  0.792879  0.108600  -0.568961
    O   O11  0.429414  0.927862  0.281324  -0.547105
    O   O12  0.394071  0.052622  0.125890  -0.654396
    C   C26  0.386324  0.924715  0.100749  0.721320
    Fe  Fe2  0.518491  0.986253  0.175013  1.452991
    O   O13  0.627207  0.962033  0.112655  -0.588376
    O   O14  0.711955  0.904977  0.199633  -0.545820
    C   C27  0.713817  0.918742  0.141316  0.663197
    O   O15  0.495498  0.143994  0.245122  -0.466897
    O   O16  0.554727  0.256926  0.174229  -0.479047
    C   C28  0.523273  0.258120  0.229856  0.450004
    H   H11  0.526576  0.531029  0.202407  0.186376
    C   C29  0.515998  0.390164  0.272851  0.069652
    C   C30  0.506742  0.383925  0.334816  0.035673
    H   H12  0.507283  0.277980  0.352733  0.078993
    C   C31  0.499403  0.512272  0.373554  -0.374856
    C   C32  0.495692  0.648295  0.349551  0.020300
    H   H13  0.487178  0.751010  0.378295  0.064282
    C   C33  0.507224  0.653077  0.288369  0.019015
    C   C34  0.519742  0.523683  0.250420  -0.159272
    N   N5   0.493057  0.631391  0.475693  -0.231990
    N   N6   0.494611  0.626041  0.535081  -0.259000
    C   C35  0.501869  0.494256  0.560088  0.764278
    N   N7   0.506873  0.368726  0.524068  -0.231995
    N   N8   0.505319  0.374075  0.464681  -0.259234
    C   C36  0.498059  0.505861  0.439673  0.765047
    C   C37  0.504197  0.351837  0.650209  0.021044
    H   H14  0.512712  0.249121  0.621465  0.064254
    C   C38  0.492647  0.347062  0.711390  0.017720
    C   C39  0.480135  0.476452  0.749339  -0.158184
    H   H15  0.473297  0.469107  0.797352  0.185909
    C   C40  0.483908  0.609955  0.726911  0.069173
    C   C41  0.493182  0.616188  0.664947  0.035624
    H   H16  0.492669  0.722121  0.647032  0.078969
    C   C42  0.500510  0.487850  0.626207  -0.374456
