# Generated by REPEAT Assigner based on pymatgen
data_DB0-m1_o41_o25_fsc
_audit_creation_date              2022-05-24
_audit_creation_method            REPEAT_Assigner
_cell_length_a                    16.896869
_cell_length_b                    9.903246
_cell_length_c                    15.164209
_cell_angle_alpha                 98.411902
_cell_angle_beta                  89.180564
_cell_angle_gamma                 89.682672
_cell_volume                      2509.855803
_symmetry_space_group_name_H-M    P1
_symmetry_Int_Tables_number       1
loop_
    _symmetry_equiv_pos_site_id
    _symmetry_equiv_pos_as_xyz
    1  x,y,z
loop_
    _atom_site_type_symbol
    _atom_site_label
    _atom_site_fract_x
    _atom_site_fract_y
    _atom_site_fract_z
    _atom_type_partial_charge
    Zn  Zn1  0.552109  0.352794  0.544028  1.325918
    Zn  Zn2  0.549258  0.648073  0.518906  1.326512
    Zn  Zn3  0.457675  0.462488  0.383424  1.350470
    Zn  Zn4  0.392008  0.501742  0.575282  1.388428
    O   O1   0.487225  0.490021  0.505196  -1.669915
    O   O2   0.657311  0.407476  0.581691  -0.679639
    O   O3   0.573667  0.721914  0.413784  -0.644788
    O   O4   0.496391  0.284945  0.339049  -0.600269
    O   O5   0.652273  0.634701  0.571047  -0.669457
    O   O6   0.569965  0.210905  0.450426  -0.590724
    O   O7   0.497154  0.602316  0.308802  -0.663871
    O   O8   0.343687  0.452691  0.365133  -0.690178
    O   O9   0.385516  0.370063  0.662132  -0.698900
    O   O10  0.296916  0.468599  0.508551  -0.653840
    O   O11  0.505085  0.261919  0.634798  -0.637149
    O   O12  0.490946  0.789712  0.585720  -0.550942
    O   O13  0.376985  0.686891  0.628836  -0.634499
    C   C1   0.284384  0.453942  0.422673  0.735481
    C   C2   0.420344  0.796065  0.623357  0.560342
    C   C3   0.437047  0.275708  0.678279  0.693500
    C   C4   0.691153  0.527534  0.589825  0.727239
    C   C5   0.543202  0.194851  0.369242  0.569090
    C   C6   0.547094  0.703611  0.332466  0.554919
    H   H1   0.513041  0.426555  0.149648  0.202050
    C   C7   0.545994  0.734654  0.039718  0.208132
    C   C8   0.552712  0.625688  0.972595  -0.219558
    C   C9   0.525768  0.638379  0.888853  -0.094279
    C   C10  0.495537  0.761856  0.871800  0.004281
    C   C11  0.498772  0.874454  0.934614  0.066219
    C   C12  0.525147  0.860230  0.017909  -0.028754
    C   C13  0.475878  0.000752  0.914176  -0.041062
    C   C14  0.485940  0.114133  0.975108  -0.017584
    C   C15  0.517390  0.100174  0.055844  -0.033140
    C   C16  0.533465  0.973154  0.078826  0.025617
    C   C17  0.464738  0.241056  0.955767  0.228392
    C   C18  0.469637  0.352504  0.020723  -0.185778
    C   C19  0.507988  0.340020  0.098335  -0.239694
    C   C20  0.534180  0.214114  0.113487  0.238932
    H   H2   0.577428  0.530065  0.985564  0.118695
    H   H3   0.527666  0.550530  0.837344  0.105532
    H   H4   0.445223  0.449604  0.010173  0.125307
    C   C21  0.431578  0.143471  0.808467  0.104324
    C   C22  0.412752  0.156777  0.721023  -0.009763
    C   C23  0.399268  0.038859  0.662974  -0.225419
    H   H5   0.391369  0.044992  0.593054  0.152502
    C   C24  0.408133  0.912316  0.689360  0.025663
    C   C25  0.436703  0.899455  0.771824  0.007406
    C   C26  0.445931  0.014718  0.832172  0.047602
    C   C27  0.565959  0.076058  0.221591  0.173390
    C   C28  0.563841  0.071152  0.310455  -0.020657
    C   C29  0.560293  0.948285  0.341980  -0.249480
    H   H6   0.552683  0.952256  0.413082  0.186504
    C   C30  0.557090  0.824972  0.285022  0.070145
    C   C31  0.555140  0.832056  0.193096  0.051367
    C   C32  0.552919  0.959429  0.164436  -0.027744
    C   C33  0.571477  0.199853  0.190141  -0.338167
    C   C34  0.558648  0.719015  0.128075  -0.284560
    C   C35  0.439544  0.256827  0.871863  -0.356915
    C   C36  0.464050  0.773316  0.791005  -0.049176
    H   H7   0.593480  0.290814  0.230126  0.125175
    H   H8   0.572394  0.620460  0.145703  0.138910
    H   H9   0.425772  0.357458  0.856604  0.175916
    H   H10  0.463970  0.679467  0.745384  0.030793
    C   C37  0.988375  0.533552  0.423859  -0.165914
    C   C38  0.937189  0.419184  0.449864  -0.103508
    H   H11  0.893035  0.360128  0.406932  0.063490
    H   H12  0.989609  0.569184  0.357854  0.069359
    H   H13  0.026240  0.250699  0.482328  0.079815
    C   C39  0.773627  0.539694  0.613203  -0.116758
    C   C40  0.203828  0.441385  0.392243  -0.113989
    C   C41  0.968711  0.621010  0.512695  -0.157865
    C   C42  0.918779  0.506355  0.538062  0.588922
    C   C43  0.039873  0.561663  0.554587  -0.111849
    C   C44  0.058289  0.474493  0.466394  0.653272
    C   C45  0.988694  0.447294  0.580589  -0.139929
    C   C46  0.008354  0.359836  0.491754  -0.179674
    C   C47  0.838997  0.524589  0.579095  -0.282892
    C   C48  0.138102  0.456278  0.425445  -0.325810
    H   H14  0.987462  0.411661  0.646593  0.067814
    H   H15  0.084027  0.620719  0.597518  0.063384
    H   H16  0.950826  0.730147  0.522120  0.073281
