# Generated by REPEAT Assigner based on pymatgen
data_DB0-m3_o440_o22_f0_fsc.sym.55
_audit_creation_date              2022-05-24
_audit_creation_method            REPEAT_Assigner
_cell_length_a                    8.567735
_cell_length_b                    13.458069
_cell_length_c                    9.109719
_cell_angle_alpha                 90.000000
_cell_angle_beta                  90.000000
_cell_angle_gamma                 90.000000
_cell_volume                      1050.397702
_symmetry_space_group_name_H-M    P1
_symmetry_Int_Tables_number       1
loop_
    _symmetry_equiv_pos_site_id
    _symmetry_equiv_pos_as_xyz
    1  x,y,z
loop_
    _atom_site_type_symbol
    _atom_site_label
    _atom_site_fract_x
    _atom_site_fract_y
    _atom_site_fract_z
    _atom_type_partial_charge
    C   C1   0.124343  0.695374  0.990893  0.078059
    C   C2   0.124343  0.304626  0.009108  0.078050
    C   C3   0.125291  0.797380  0.004931  -0.233973
    C   C4   0.125291  0.202620  0.995069  -0.233978
    H   H1   0.234619  0.837199  0.011762  0.151182
    H   H2   0.234619  0.162800  0.988238  0.151183
    C   C5   0.985029  0.848632  0.004718  0.274369
    C   C6   0.985029  0.151368  0.995282  0.274377
    C   C7   0.844681  0.797473  0.004623  -0.162111
    C   C8   0.844681  0.202527  0.995377  -0.162120
    H   H3   0.735436  0.837444  0.010657  0.126405
    H   H4   0.735436  0.162555  0.989343  0.126406
    C   C9   0.845481  0.695413  0.991253  -0.153054
    C   C10  0.845481  0.304587  0.008747  -0.153056
    C   C11  0.984871  0.646946  0.973902  -0.164215
    C   C12  0.984871  0.353054  0.026098  -0.164204
    C   C13  0.985102  0.955250  0.002078  -0.159924
    C   C14  0.985102  0.044750  0.997922  -0.159931
    C   C15  0.325847  0.487988  0.581381  -0.072640
    C   C16  0.325847  0.512012  0.418619  -0.072615
    N   N1   0.483456  0.494479  0.643500  0.140690
    N   N2   0.483456  0.505521  0.356500  0.140733
    C   C17  0.576404  0.414169  0.577625  -0.188704
    C   C18  0.559373  0.413952  0.411667  0.348722
    C   C19  0.576404  0.585831  0.422375  -0.188778
    C   C20  0.559373  0.586047  0.588333  0.348751
    H   H5   0.275522  0.413659  0.595764  0.065887
    H   H6   0.242601  0.463032  0.361646  0.049459
    H   H7   0.275522  0.586340  0.404236  0.065893
    H   H8   0.242601  0.536968  0.638354  0.049467
    H   H9   0.984810  0.569169  0.950802  0.127722
    H   H10  0.984810  0.430831  0.049198  0.127713
    O   O1   0.650867  0.605819  0.123782  -0.715410
    O   O2   0.652040  0.598785  0.871270  -0.725035
    O   O3   0.650867  0.394181  0.876218  -0.715448
    O   O4   0.652040  0.401215  0.128730  -0.725056
    Zn  Zn1  0.484858  0.496575  0.837498  0.949127
    Zn  Zn2  0.484858  0.503424  0.162502  0.949125
    C   C21  0.703679  0.635007  0.995459  0.853473
    C   C22  0.703679  0.364993  0.004541  0.853515
    H   H11  0.700917  0.429743  0.600747  -0.006700
    H   H12  0.682270  0.412059  0.375367  -0.059679
    H   H13  0.700917  0.570257  0.399253  -0.006683
    H   H14  0.682270  0.587941  0.624633  -0.059685
    O   O5   0.316530  0.395731  0.876053  -0.646224
    O   O6   0.319274  0.399927  0.129675  -0.677101
    O   O7   0.316530  0.604269  0.123947  -0.646228
    O   O8   0.319274  0.600073  0.870325  -0.677102
    C   C23  0.266069  0.365052  0.004793  0.710311
    C   C24  0.266069  0.634948  0.995207  0.710302
    C   C25  0.547138  0.310040  0.633067  0.670988
    O   O9   0.421030  0.283987  0.680584  -0.456586
    N   N3   0.667258  0.237121  0.617852  -0.749298
    H   H15  0.697244  0.213010  0.723017  0.310152
    H   H16  0.765347  0.270154  0.570663  0.280083
    C   C26  0.480564  0.319317  0.362376  0.758015
    O   O10  0.343792  0.304206  0.390954  -0.526364
    N   N4   0.569614  0.240165  0.299131  -0.837749
    H   H17  0.530812  0.229516  0.191629  0.320474
    H   H18  0.688055  0.258012  0.297723  0.319654
    C   C27  0.547138  0.689960  0.366933  0.670973
    O   O11  0.421030  0.716013  0.319416  -0.456590
    N   N5   0.667258  0.762878  0.382148  -0.749272
    H   H19  0.697244  0.786990  0.276983  0.310149
    H   H20  0.765347  0.729846  0.429337  0.280068
    C   C28  0.480564  0.680682  0.637624  0.758013
    O   O12  0.343792  0.695794  0.609046  -0.526356
    N   N6   0.569614  0.759835  0.700869  -0.837759
    H   H21  0.530812  0.770483  0.808371  0.320478
    H   H22  0.688055  0.741988  0.702277  0.319664
