# Generated by REPEAT Assigner based on pymatgen
data_DB0-m29_o96_o430_f0_pts.sym.24
_audit_creation_date              2022-05-24
_audit_creation_method            REPEAT_Assigner
_cell_length_a                    17.325848
_cell_length_b                    16.179619
_cell_length_c                    18.711656
_cell_angle_alpha                 89.641291
_cell_angle_beta                  90.622545
_cell_angle_gamma                 117.779104
_cell_volume                      4640.556349
_symmetry_space_group_name_H-M    P1
_symmetry_Int_Tables_number       1
loop_
    _symmetry_equiv_pos_site_id
    _symmetry_equiv_pos_as_xyz
    1  x,y,z
loop_
    _atom_site_type_symbol
    _atom_site_label
    _atom_site_fract_x
    _atom_site_fract_y
    _atom_site_fract_z
    _atom_type_partial_charge
    C   C1   0.209141  0.981496  0.108409  -0.070194
    C   C2   0.144081  0.937863  0.155874  0.110139
    C   C3   0.072152  0.943543  0.129712  0.386387
    N   N1   0.090356  0.986769  0.065548  -0.565699
    C   C4   0.174372  0.009368  0.052095  0.442664
    C   C5   0.997877  0.917145  0.164899  -0.384455
    C   C6   0.930766  0.942441  0.141097  0.242578
    C   C7   0.879663  0.965467  0.185045  -0.059983
    C   C8   0.818358  0.971487  0.142292  0.044945
    C   C9   0.834997  0.955508  0.072993  0.207951
    N   N2   0.903207  0.936911  0.072761  -0.210868
    C   C10  0.787652  0.961516  0.009427  -0.394236
    C   C11  0.826685  0.995613  0.947062  0.437301
    C   C12  0.790855  0.024442  0.892622  0.000444
    C   C13  0.855120  0.070787  0.844563  0.013904
    C   C14  0.927401  0.061155  0.867256  0.335805
    N   N3   0.910053  0.017111  0.931348  -0.550099
    C   C15  0.001065  0.083598  0.830389  -0.231273
    C   C16  0.070191  0.061415  0.857195  0.115352
    C   C17  0.121812  0.036913  0.814968  0.141904
    C   C18  0.183065  0.032255  0.858313  -0.071997
    C   C19  0.166895  0.051073  0.926786  0.259701
    N   N4   0.098249  0.069605  0.925801  -0.214162
    C   C20  0.214455  0.045387  0.990633  -0.408622
    H   H1   0.990468  0.885426  0.217064  0.158101
    H   H2   0.722616  0.952861  0.017412  0.184007
    H   H3   0.280273  0.055815  0.983626  0.205966
    H   H4   0.926487  0.915947  0.029017  0.293774
    H   H5   0.074530  0.091141  0.968946  0.313969
    C   C21  0.117462  0.015315  0.743524  -0.113810
    C   C22  0.180136  0.994698  0.716098  -0.134817
    C   C23  0.245791  0.994483  0.759490  0.051006
    C   C24  0.246320  0.011291  0.832325  -0.109237
    C   C25  0.291856  0.992796  0.121504  -0.133927
    C   C26  0.306710  0.955629  0.184210  -0.018340
    C   C27  0.236682  0.903944  0.230390  0.071180
    C   C28  0.155635  0.897952  0.217064  -0.285213
    C   C29  0.882393  0.982229  0.257678  0.014154
    C   C30  0.817370  0.998817  0.285985  -0.190578
    C   C31  0.753113  0.002467  0.242685  0.091101
    C   C32  0.754309  0.990354  0.169327  -0.140844
    C   C33  0.707037  0.011538  0.882474  -0.224501
    C   C34  0.690241  0.050586  0.822195  0.058893
    C   C35  0.758548  0.108539  0.778240  -0.021259
    C   C36  0.841622  0.119546  0.789302  -0.201121
    H   H6   0.066877  0.013017  0.708534  0.153675
    H   H7   0.295905  0.010096  0.867151  0.133218
    H   H8   0.344634  0.032255  0.085319  0.131386
    H   H9   0.102539  0.860263  0.253380  0.189189
    H   H10  0.705494  0.993677  0.134781  0.153027
    H   H11  0.654881  0.968483  0.918055  0.147311
    H   H12  0.747389  0.142876  0.732574  0.126354
    H   H13  0.892967  0.166699  0.754983  0.156152
    H   H14  0.177586  0.979944  0.659655  0.155709
    H   H15  0.818457  0.011612  0.342637  0.200172
    O   O1   0.618476  0.015220  0.239213  -0.618668
    C   C37  0.683707  0.016318  0.276511  0.601413
    O   O2   0.491007  0.822779  0.328218  -0.532864
    O   O3   0.682854  0.022288  0.346348  -0.555124
    O   O4   0.507848  0.943715  0.399180  -0.573388
    C   C38  0.490791  0.856237  0.391878  0.660653
    Fe  Fe1  0.529575  0.010807  0.306835  1.465645
    O   O5   0.412813  0.939970  0.258880  -0.548401
    O   O6   0.461044  0.061030  0.180835  -0.508811
    C   C39  0.397528  0.983285  0.205641  0.579143
    O   O7   0.575448  0.146642  0.330176  -0.612267
    O   O8   0.431020  0.098162  0.339665  -0.512660
    C   C40  0.511374  0.161936  0.352525  0.696110
    H   H16  0.525362  0.102991  0.476950  0.127932
    C   C41  0.525421  0.215097  0.418530  0.014369
    C   C42  0.520788  0.298081  0.421494  -0.219141
    H   H17  0.516726  0.331264  0.372321  0.120614
    C   C43  0.521131  0.337585  0.487420  0.132002
    C   C44  0.522344  0.291218  0.549559  -0.147086
    H   H18  0.516710  0.318106  0.600831  0.138650
    C   C45  0.523002  0.206489  0.546182  -0.008870
    C   C46  0.526749  0.170250  0.480728  -0.090933
    C   C47  0.558839  0.489058  0.545417  -0.136262
    H   H19  0.604356  0.479676  0.580201  0.108723
    C   C48  0.548376  0.567962  0.553344  -0.117337
    H   H20  0.586590  0.618649  0.593532  0.114192
    C   C49  0.492287  0.583341  0.508733  0.095937
    C   C50  0.446942  0.518483  0.456095  -0.162466
    H   H21  0.401308  0.527748  0.421377  0.137489
    C   C51  0.457436  0.439602  0.448151  -0.111499
    H   H22  0.419168  0.388867  0.408010  0.120064
    C   C52  0.513455  0.424184  0.492809  0.078585
    C   C53  0.482001  0.715844  0.452455  -0.157950
    H   H23  0.487568  0.689198  0.401060  0.118461
    C   C54  0.480326  0.800051  0.456093  0.018668
    C   C55  0.476661  0.836017  0.521694  -0.123989
    H   H24  0.477151  0.902828  0.525631  0.132861
    C   C56  0.478948  0.791326  0.583736  0.044714
    C   C57  0.484485  0.708866  0.580467  -0.224505
    H   H25  0.488917  0.675689  0.629525  0.128581
    C   C58  0.484153  0.669663  0.514421  0.128450
    O   O9   0.589582  0.065682  0.743028  -0.603349
    O   O10  0.535394  0.948636  0.825039  -0.506750
    C   C59  0.600768  0.024480  0.799721  0.593982
    O   O11  0.427288  0.859150  0.671115  -0.607842
    O   O12  0.571794  0.906249  0.664882  -0.490275
    C   C60  0.491608  0.843497  0.650085  0.665202
    O   O13  0.511073  0.183391  0.674053  -0.556727
    O   O14  0.383781  0.989379  0.763064  -0.593350
    C   C61  0.315779  0.981467  0.726083  0.590638
    O   O15  0.494119  0.062482  0.602971  -0.563458
    C   C62  0.511394  0.149987  0.610395  0.635367
    O   O16  0.315210  0.971754  0.656496  -0.519813
    Fe  Fe2  0.472777  0.994832  0.695030  1.478376
    N   N5   0.246418  0.858567  0.292873  0.656733
    O   O17  0.211167  0.865473  0.352029  -0.372419
    O   O18  0.264236  0.789366  0.285560  -0.366207
    N   N6   0.952149  0.989314  0.302805  0.611210
    O   O19  0.936665  0.965578  0.369681  -0.371200
    O   O20  0.032243  0.042206  0.283305  -0.339452
    N   N7   0.010501  0.120695  0.759683  0.512402
    O   O21  0.956684  0.070221  0.709610  -0.309689
    O   O22  0.084267  0.191111  0.741761  -0.336599
