data_DB0-m3_o25_o38_f0_fsc_repeat
_audit_creation_date              2024-02-23
_audit_creation_method            'Materials Studio'
_symmetry_space_group_name_H-M    'P1'
_symmetry_Int_Tables_number       1
_symmetry_cell_setting            triclinic
loop_
_symmetry_equiv_pos_as_xyz
  x,y,z
_cell_length_a                    15.1396
_cell_length_b                    8.5662
_cell_length_c                    14.2843
_cell_angle_alpha                 90.0000
_cell_angle_beta                  90.6726
_cell_angle_gamma                 90.0000
loop_
_atom_site_label
_atom_site_type_symbol
_atom_site_fract_x
_atom_site_fract_y
_atom_site_fract_z
_atom_site_U_iso_or_equiv
_atom_site_adp_type
_atom_site_occupancy
O1     O     0.10020   0.16524   0.93031   0.00000  Uiso   1.00
O2     O     0.89980   0.83476   0.06969   0.00000  Uiso   1.00
O3     O     0.89980   0.16524   0.06969   0.00000  Uiso   1.00
O4     O     0.10020   0.83476   0.93031   0.00000  Uiso   1.00
O5     O     0.08262   0.16743   0.08818   0.00000  Uiso   1.00
O6     O     0.91738   0.83257   0.91182   0.00000  Uiso   1.00
O7     O     0.91738   0.16743   0.91182   0.00000  Uiso   1.00
O8     O     0.08262   0.83257   0.08818   0.00000  Uiso   1.00
C1     C     0.12278   0.21899   0.01330   0.00000  Uiso   1.00
C2     C     0.87722   0.78101   0.98670   0.00000  Uiso   1.00
C3     C     0.87722   0.21899   0.98670   0.00000  Uiso   1.00
C4     C     0.12278   0.78101   0.01330   0.00000  Uiso   1.00
Zn1    Zn    0.98962   0.00000   0.10291   0.00000  Uiso   1.00
Zn2    Zn    0.01038   0.00000   0.89709   0.00000  Uiso   1.00
C5     C     0.04335   0.87389   0.52752   0.00000  Uiso   1.00
C6     C     0.95665   0.12611   0.47248   0.00000  Uiso   1.00
C7     C     0.95665   0.87389   0.47248   0.00000  Uiso   1.00
C8     C     0.04335   0.12611   0.52752   0.00000  Uiso   1.00
H1     H     0.92031   0.76920   0.44748   0.00000  Uiso   1.00
H2     H     0.07969   0.23080   0.55252   0.00000  Uiso   1.00
H3     H     0.07969   0.76920   0.55252   0.00000  Uiso   1.00
H4     H     0.92031   0.23080   0.44748   0.00000  Uiso   1.00
H5     H     0.85420   0.00000   0.56903   0.00000  Uiso   1.00
H6     H     0.14580   0.00000   0.43097   0.00000  Uiso   1.00
N1     N     0.98318   0.00000   0.22647   0.00000  Uiso   1.00
N2     N     0.01682   0.00000   0.77353   0.00000  Uiso   1.00
C9     C     0.07967   0.00000   0.46356   0.00000  Uiso   1.00
C10    C     0.92033   0.00000   0.53644   0.00000  Uiso   1.00
C11    C     0.99306   0.00000   0.41025   0.00000  Uiso   1.00
C12    C     0.00694   0.00000   0.58975   0.00000  Uiso   1.00
C13    C     0.98655   0.00000   0.30758   0.00000  Uiso   1.00
C14    C     0.01345   0.00000   0.69242   0.00000  Uiso   1.00
H7     H     0.06225   0.50000   0.03979   0.00000  Uiso   1.00
H8     H     0.93775   0.50000   0.96021   0.00000  Uiso   1.00
C15    C     0.17612   0.36069   0.01965   0.00000  Uiso   1.00
C16    C     0.82388   0.63931   0.98035   0.00000  Uiso   1.00
C17    C     0.82388   0.36069   0.98035   0.00000  Uiso   1.00
C18    C     0.17612   0.63931   0.01965   0.00000  Uiso   1.00
C19    C     0.26656   0.35997   0.00836   0.00000  Uiso   1.00
C20    C     0.73344   0.64003   0.99164   0.00000  Uiso   1.00
C21    C     0.73344   0.35997   0.99164   0.00000  Uiso   1.00
C22    C     0.26656   0.64003   0.00836   0.00000  Uiso   1.00
H9     H     0.30165   0.25063   0.00207   0.00000  Uiso   1.00
H10    H     0.69836   0.74937   0.99793   0.00000  Uiso   1.00
H11    H     0.69836   0.25063   0.99793   0.00000  Uiso   1.00
H12    H     0.30165   0.74937   0.00207   0.00000  Uiso   1.00
C23    C     0.31225   0.50000   0.00658   0.00000  Uiso   1.00
C24    C     0.68775   0.50000   0.99342   0.00000  Uiso   1.00
C25    C     0.13255   0.50000   0.02986   0.00000  Uiso   1.00
C26    C     0.86745   0.50000   0.97014   0.00000  Uiso   1.00
C27    C     0.45106   0.50001   0.91785   0.00000  Uiso   1.00
C28    C     0.54894   0.49999   0.08215   0.00000  Uiso   1.00
H13    H     0.41291   0.50001   0.85340   0.00000  Uiso   1.00
H14    H     0.58709   0.49999   0.14660   0.00000  Uiso   1.00
C29    C     0.54220   0.50001   0.91511   0.00000  Uiso   1.00
C30    C     0.45780   0.49999   0.08489   0.00000  Uiso   1.00
H15    H     0.57526   0.50001   0.84844   0.00000  Uiso   1.00
H16    H     0.42474   0.49999   0.15156   0.00000  Uiso   1.00
C31    C     0.59128   0.50000   0.99720   0.00000  Uiso   1.00
C32    C     0.40872   0.50000   0.00280   0.00000  Uiso   1.00
