# Generated by REPEAT Assigner based on pymatgen
data_DB0-m2_o23_o110_f0_fsc
_audit_creation_date              2022-05-24
_audit_creation_method            REPEAT_Assigner
_cell_length_a                    14.327652
_cell_length_b                    16.476361
_cell_length_c                    16.685414
_cell_angle_alpha                 90.000000
_cell_angle_beta                  98.839994
_cell_angle_gamma                 90.000000
_cell_volume                      3892.096435
_symmetry_space_group_name_H-M    P1
_symmetry_Int_Tables_number       1
loop_
    _symmetry_equiv_pos_site_id
    _symmetry_equiv_pos_as_xyz
    1  x,y,z
loop_
    _atom_site_type_symbol
    _atom_site_label
    _atom_site_fract_x
    _atom_site_fract_y
    _atom_site_fract_z
    _atom_type_partial_charge
    O   O1   0.932659  0.082204  0.078423  -0.619275
    O   O2   0.932659  0.917796  0.078423  -0.619258
    O   O3   0.093701  0.083193  0.091528  -0.637850
    O   O4   0.093701  0.916807  0.091528  -0.637862
    C   C1   0.014798  0.110212  0.113196  0.711068
    C   C2   0.014798  0.889788  0.113196  0.711130
    Cu  Cu1  0.910503  0.000000  0.993085  0.997615
    Cu  Cu2  0.098666  0.000000  0.007942  1.039500
    O   O5   0.915392  0.916940  0.909383  -0.619752
    O   O6   0.915392  0.083060  0.909383  -0.619767
    O   O7   0.076459  0.916779  0.922992  -0.629604
    O   O8   0.076459  0.083221  0.922992  -0.629667
    C   C3   0.994138  0.889130  0.888152  0.700892
    C   C4   0.994138  0.110870  0.888152  0.700988
    C   C5   0.441135  0.074991  0.960723  -0.105232
    C   C6   0.441135  0.925009  0.960723  -0.105248
    C   C7   0.545712  0.925035  0.953936  -0.171029
    C   C8   0.545712  0.074965  0.953936  -0.171047
    H   H1   0.554360  0.075334  0.889025  0.056126
    H   H2   0.554360  0.924666  0.889025  0.056122
    H   H3   0.399154  0.075486  0.899076  0.045168
    H   H4   0.399154  0.924514  0.899076  0.045172
    H   H5   0.424103  0.869802  0.993634  0.048111
    H   H6   0.424103  0.130198  0.993634  0.048108
    H   H7   0.579297  0.869844  0.983560  0.050690
    H   H8   0.579297  0.130156  0.983560  0.050692
    N   N1   0.775143  0.000000  0.986409  -0.142994
    C   C9   0.416681  0.000000  0.006124  0.506381
    C   C10  0.592553  0.000000  0.994842  0.567535
    C   C11  0.579299  0.000000  0.083423  -0.171072
    C   C12  0.474708  0.000000  0.090164  -0.149195
    C   C13  0.694524  0.000000  0.989106  -0.153168
    C   C14  0.314708  0.000000  0.011855  -0.144577
    N   N2   0.234087  0.000000  0.014538  -0.150700
    H   H9   0.457771  0.054787  0.123755  0.054541
    H   H10  0.457771  0.945213  0.123755  0.054541
    H   H11  0.613017  0.054754  0.113857  0.063035
    H   H12  0.613017  0.945246  0.113857  0.063034
    H   H13  0.936901  0.419710  0.208003  0.157448
    H   H14  0.936901  0.580290  0.208003  0.157454
    C   C15  0.030284  0.755123  0.464570  -0.356572
    C   C16  0.030284  0.244877  0.464570  -0.356563
    C   C17  0.022105  0.755057  0.545610  -0.310955
    C   C18  0.022105  0.244943  0.545610  -0.310957
    C   C19  0.003625  0.675812  0.565331  0.514452
    C   C20  0.003625  0.324188  0.565331  0.514452
    N   N3   0.999978  0.627521  0.499630  -0.660980
    N   N4   0.999978  0.372479  0.499630  -0.660980
    C   C21  0.016824  0.675890  0.438227  0.573862
    C   C22  0.016824  0.324110  0.438227  0.573854
    C   C23  0.987178  0.651108  0.638372  -0.314202
    C   C24  0.987178  0.348892  0.638372  -0.314190
    C   C25  0.965174  0.565858  0.655555  0.335940
    C   C26  0.965174  0.434142  0.655555  0.335927
    C   C27  0.914964  0.541807  0.715784  -0.263357
    C   C28  0.914964  0.458193  0.715784  -0.263329
    N   N5   0.996932  0.500000  0.619978  -0.378883
    C   C29  0.016191  0.348742  0.361674  -0.412932
    C   C30  0.016191  0.651258  0.361674  -0.412942
    C   C31  0.000542  0.434188  0.336568  0.357725
    C   C32  0.000542  0.565812  0.336568  0.357734
    C   C33  0.962187  0.458190  0.259219  -0.261924
    C   C34  0.962187  0.541810  0.259219  -0.261944
    N   N6   0.025181  0.500000  0.383168  -0.391670
    H   H15  0.044350  0.807897  0.429814  0.164925
    H   H16  0.044350  0.192103  0.429814  0.164923
    H   H17  0.028060  0.807943  0.584409  0.164639
    H   H18  0.028060  0.192057  0.584409  0.164640
    H   H19  0.882529  0.580079  0.756298  0.161781
    H   H20  0.882529  0.419921  0.756298  0.161772
    H   H21  0.044659  0.500000  0.578917  0.302062
    H   H22  0.062971  0.500000  0.441614  0.308296
    C   C35  0.935366  0.246965  0.268009  -0.189796
    C   C36  0.935366  0.753035  0.268009  -0.189797
    H   H23  0.870888  0.260520  0.291512  0.112202
    H   H24  0.870888  0.739480  0.291512  0.112201
    C   C37  0.934812  0.189830  0.207674  -0.098482
    C   C38  0.934812  0.810170  0.207674  -0.098461
    C   C39  0.016935  0.171629  0.177310  -0.091589
    C   C40  0.016935  0.828371  0.177310  -0.091646
    C   C41  0.099569  0.211892  0.207810  -0.041628
    C   C42  0.099569  0.788108  0.207810  -0.041610
    H   H25  0.164465  0.198917  0.184771  0.114313
    H   H26  0.164465  0.801083  0.184771  0.114310
    C   C43  0.099551  0.270123  0.267546  -0.294021
    C   C44  0.099551  0.729877  0.267546  -0.294024
    H   H27  0.164098  0.301807  0.290826  0.133581
    H   H28  0.164098  0.698193  0.290826  0.133579
    C   C45  0.017499  0.287389  0.298064  0.362413
    C   C46  0.017499  0.712611  0.298064  0.362423
    H   H29  0.869316  0.840806  0.185268  0.115824
    H   H30  0.869316  0.159194  0.185268  0.115834
    C   C47  0.072399  0.265377  0.748334  -0.222856
    C   C48  0.072399  0.734623  0.748334  -0.222945
    H   H31  0.137663  0.292066  0.736073  0.116115
    H   H32  0.137663  0.707934  0.736073  0.116131
    C   C49  0.074237  0.207623  0.808369  -0.053445
    C   C50  0.074237  0.792377  0.808369  -0.053322
    H   H33  0.141577  0.190266  0.842450  0.105777
    H   H34  0.141577  0.809734  0.842450  0.105742
    C   C51  0.991148  0.172980  0.824603  -0.080785
    C   C52  0.991148  0.827020  0.824603  -0.080834
    C   C53  0.906213  0.196804  0.779805  -0.101248
    C   C54  0.906213  0.803196  0.779805  -0.101239
    H   H35  0.840436  0.170339  0.791036  0.116073
    H   H36  0.840436  0.829661  0.791036  0.116087
    C   C55  0.904731  0.254056  0.719095  -0.153534
    C   C56  0.904731  0.745944  0.719095  -0.153539
    H   H37  0.838239  0.271751  0.683701  0.105114
    H   H38  0.838239  0.728249  0.683701  0.105106
    C   C57  0.987814  0.288693  0.703396  0.229634
    C   C58  0.987814  0.711307  0.703396  0.229683
