# Generated by REPEAT Assigner based on pymatgen
data_DB0-m3_o17_o21_f0_pcu.sym.103_sqe
_audit_creation_date              2022-05-24
_audit_creation_method            REPEAT_Assigner
_cell_length_a                    13.896357
_cell_length_b                    14.099830
_cell_length_c                    15.041002
_cell_angle_alpha                 89.982336
_cell_angle_beta                  90.005255
_cell_angle_gamma                 85.342576
_cell_volume                      2937.346499
_symmetry_space_group_name_H-M    P1
_symmetry_Int_Tables_number       1
loop_
    _symmetry_equiv_pos_site_id
    _symmetry_equiv_pos_as_xyz
    1  x,y,z
loop_
    _atom_site_type_symbol
    _atom_site_label
    _atom_site_fract_x
    _atom_site_fract_y
    _atom_site_fract_z
    _atom_type_partial_charge
    O   O1   0.572819  0.524691  0.373817  -0.665036
    O   O2   0.407164  0.524491  0.638740  -0.652954
    O   O3   0.406440  0.527166  0.373945  -0.648387
    O   O4   0.573600  0.521987  0.638622  -0.669564
    C   C1   0.489557  0.526427  0.332551  0.734809
    C   C2   0.490449  0.522777  0.680010  0.751570
    O   O5   0.584409  0.382070  0.504980  -0.704573
    O   O6   0.395597  0.667093  0.507591  -0.704663
    O   O7   0.417976  0.383562  0.505174  -0.705483
    O   O8   0.562037  0.665599  0.507420  -0.699712
    C   C3   0.504472  0.338662  0.504740  0.965356
    C   C4   0.475540  0.710498  0.507905  0.954374
    Zn  Zn1  0.599667  0.523719  0.506172  1.043578
    Zn  Zn2  0.380338  0.525446  0.506381  1.026838
    C   C5   0.467715  0.812560  0.508959  -0.352047
    C   C6   0.512314  0.236589  0.504287  -0.356881
    C   C7   0.451022  0.000558  0.510856  -0.072075
    C   C8   0.529034  0.048573  0.503605  -0.074536
    C   C9   0.519705  0.150864  0.503997  0.055769
    C   C10  0.460347  0.898277  0.509856  0.050756
    H   H1   0.599716  0.010611  0.497228  0.143559
    H   H2   0.380334  0.038491  0.517241  0.142068
    C   C11  0.572609  0.490502  0.823110  -0.101452
    C   C12  0.406855  0.557585  0.189573  -0.128851
    C   C13  0.490426  0.522436  0.777037  -0.113156
    C   C14  0.489523  0.526909  0.235534  -0.094127
    C   C15  0.408170  0.554518  0.822672  -0.175906
    C   C16  0.572057  0.496043  0.189811  -0.175055
    C   C17  0.408221  0.555836  0.914181  0.268076
    C   C18  0.571430  0.493796  0.098391  0.263287
    C   C19  0.489892  0.523296  0.960455  -0.075933
    C   C20  0.489178  0.524912  0.052110  -0.069820
    C   C21  0.572295  0.489796  0.915058  0.013371
    C   C22  0.406674  0.558111  0.097531  0.014086
    C   C23  0.326476  0.591048  0.958943  -0.473074
    C   C24  0.653308  0.459420  0.053481  -0.465687
    C   C25  0.324519  0.591178  0.050953  0.368814
    C   C26  0.653694  0.455767  0.962042  0.405184
    H   H3   0.636329  0.464773  0.786572  0.100385
    H   H4   0.343035  0.582013  0.226520  0.094348
    H   H5   0.343913  0.580615  0.786977  0.113734
    H   H6   0.636848  0.471015  0.225240  0.127689
    H   H7   0.265112  0.619973  0.920726  0.186609
    H   H8   0.717360  0.434234  0.089999  0.159541
    C   C27  0.796386  0.466341  0.562726  -0.234247
    C   C28  0.183609  0.582736  0.449673  -0.246203
    N   N1   0.743642  0.523264  0.505921  0.078353
    N   N2   0.236359  0.525896  0.506568  0.084918
    C   C29  0.786575  0.580528  0.449120  -0.187933
    C   C30  0.193401  0.468573  0.563289  -0.194555
    C   C31  0.885764  0.581799  0.448380  0.178357
    C   C32  0.094216  0.467239  0.563943  0.195583
    C   C33  0.940497  0.524195  0.506058  0.002332
    C   C34  0.039486  0.524827  0.506239  -0.019775
    C   C35  0.895738  0.466016  0.563601  0.197051
    C   C36  0.084258  0.583007  0.448719  0.222321
    C   C37  0.930340  0.640346  0.390466  -0.177974
    C   C38  0.049653  0.408687  0.621856  -0.207055
    C   C39  0.029619  0.640972  0.390640  -0.225324
    C   C40  0.950381  0.408051  0.621672  -0.189360
    H   H9   0.760533  0.420933  0.607750  0.192649
    H   H10  0.219427  0.628150  0.404622  0.190394
    H   H11  0.742955  0.625675  0.404105  0.158009
    H   H12  0.236999  0.423427  0.608309  0.160783
    H   H13  0.887869  0.685869  0.344878  0.142344
    H   H14  0.092140  0.363232  0.667479  0.151661
    H   H15  0.064162  0.686960  0.345169  0.149462
    H   H16  0.915814  0.362118  0.667154  0.137965
    N   N3   0.242804  0.631879  0.097705  -0.629212
    C   C41  0.152005  0.622327  0.057705  0.420647
    C   C42  0.086178  0.700815  0.050139  -0.273226
    C   C43  0.996611  0.691765  0.013192  -0.076570
    C   C44  0.972008  0.604174  0.984463  -0.161691
    C   C45  0.036730  0.525373  0.993361  -0.127251
    C   C46  0.126316  0.534126  0.030470  -0.205940
    H   H17  0.251782  0.699680  0.119736  0.310863
    H   H18  0.104405  0.769943  0.072599  0.126436
    H   H19  0.945554  0.753460  0.006943  0.113522
    H   H20  0.901736  0.597234  0.955531  0.096032
    H   H21  0.017100  0.456539  0.971552  0.107203
    H   H22  0.175855  0.471487  0.038321  0.133073
    N   N4   0.737774  0.418265  0.917568  -0.752108
    C   C47  0.754282  0.318350  0.926908  0.585472
    C   C48  0.846450  0.278183  0.944472  -0.405637
    C   C49  0.863370  0.180994  0.953989  -0.010619
    C   C50  0.788579  0.123255  0.945464  -0.224598
    C   C51  0.696867  0.162664  0.926744  -0.047226
    C   C52  0.679550  0.259830  0.917204  -0.305820
    H   H23  0.797258  0.451897  0.937044  0.350767
    H   H24  0.906064  0.322312  0.951324  0.152917
    H   H25  0.935465  0.150059  0.968170  0.095513
    H   H26  0.801919  0.047085  0.953009  0.118892
    H   H27  0.638331  0.117280  0.919288  0.105549
    H   H28  0.607218  0.288542  0.901081  0.138422
