# Generated by REPEAT Assigner based on pymatgen
data_DB0-m29_o90_o93_f0_pts.sym.47
_audit_creation_date              2022-05-24
_audit_creation_method            REPEAT_Assigner
_cell_length_a                    15.225663
_cell_length_b                    17.059642
_cell_length_c                    11.807759
_cell_angle_alpha                 71.755152
_cell_angle_beta                  101.074389
_cell_angle_gamma                 109.031382
_cell_volume                      2739.730717
_symmetry_space_group_name_H-M    P1
_symmetry_Int_Tables_number       1
loop_
    _symmetry_equiv_pos_site_id
    _symmetry_equiv_pos_as_xyz
    1  x,y,z
loop_
    _atom_site_type_symbol
    _atom_site_label
    _atom_site_fract_x
    _atom_site_fract_y
    _atom_site_fract_z
    _atom_type_partial_charge
    C   C1   0.799211  0.010311  0.188115  0.013559
    C   C2   0.885011  0.011945  0.164318  -0.239274
    C   C3   0.897152  0.005937  0.055285  0.495997
    C   C4   0.821393  0.000770  0.966069  -0.461708
    C   C5   0.736062  0.006385  0.986101  0.169330
    C   C6   0.723955  0.006135  0.100835  -0.204881
    N   N1   0.985685  0.998986  0.044151  -0.256295
    N   N2   0.006423  0.023548  0.939369  -0.141490
    C   C7   0.111235  0.016180  0.818927  -0.495225
    C   C8   0.194449  0.008251  0.802913  0.191192
    C   C9   0.265889  0.006179  0.895411  -0.156329
    C   C10  0.250540  0.006156  0.008808  0.052787
    C   C11  0.163271  0.008892  0.024992  -0.374414
    H   H1   0.151340  0.009684  0.111821  0.227662
    C   C12  0.094171  0.015529  0.929256  0.548271
    O   O1   0.531751  0.109032  0.643777  -0.507169
    C   C13  0.471436  0.124914  0.549396  0.526270
    O   O2   0.427994  0.078439  0.868818  -0.436606
    O   O3   0.394897  0.064124  0.533202  -0.438685
    O   O4   0.363218  0.953386  0.816756  -0.628332
    C   C14  0.356859  0.009983  0.866239  0.649113
    Fe  Fe1  0.485711  0.992690  0.752408  1.381390
    O   O5   0.572317  0.986489  0.904330  -0.490497
    O   O6   0.681621  0.047941  0.774264  -0.390383
    C   C15  0.660667  0.012817  0.885129  0.486752
    O   O7   0.478293  0.917745  0.647509  -0.483364
    O   O8   0.545196  0.848502  0.820658  -0.424773
    C   C16  0.508291  0.851153  0.710249  0.399775
    O   O9   0.503168  0.079758  0.357041  -0.473512
    O   O10  0.460592  0.160558  0.177231  -0.427875
    C   C17  0.487058  0.152429  0.291697  0.493127
    O   O11  0.409846  0.010810  0.099807  -0.507489
    O   O12  0.300738  0.990580  0.220401  -0.487407
    C   C18  0.322917  0.001695  0.113264  0.577462
    O   O13  0.589547  0.941155  0.470046  -0.482194
    O   O14  0.620166  0.050488  0.183398  -0.704781
    C   C19  0.632108  0.994808  0.136354  0.837026
    O   O15  0.456203  0.889574  0.358494  -0.652193
    C   C20  0.516306  0.877399  0.453719  0.711611
    O   O16  0.566659  0.921737  0.140024  -0.514244
    Fe  Fe2  0.498175  0.006735  0.250247  1.418164
    C   C21  0.503843  0.791744  0.538838  -0.030825
    C   C22  0.500574  0.723178  0.496899  -0.016467
    C   C23  0.494949  0.642523  0.574823  -0.357705
    C   C24  0.487661  0.628871  0.694542  -0.110212
    C   C25  0.487471  0.695806  0.736866  -0.068141
    C   C26  0.499445  0.778891  0.660473  0.064044
    N   N3   0.420628  0.500887  0.540000  -0.401304
    N   N4   0.422686  0.434347  0.506857  -0.200061
    C   C27  0.499815  0.435340  0.466045  0.762214
    N   N5   0.574088  0.505888  0.455867  -0.290056
    N   N6   0.571904  0.572768  0.488245  -0.270627
    C   C28  0.495183  0.570952  0.530988  0.873742
    C   C29  0.518020  0.375989  0.309562  -0.072687
    C   C30  0.518362  0.308543  0.268934  -0.066119
    C   C31  0.498500  0.224541  0.343401  -0.013341
    C   C32  0.488143  0.211210  0.463889  0.041944
    C   C33  0.487938  0.280000  0.503576  0.070074
    C   C34  0.500887  0.362109  0.425825  -0.377021
    C   C35  0.787543  0.008899  0.309064  0.694213
    O   O17  0.747130  0.941822  0.376881  -0.471873
    C   C36  0.826813  0.088597  0.350690  -0.381772
    H   H2   0.860962  0.142817  0.277579  0.072222
    H   H3   0.878721  0.077814  0.429432  0.130742
    H   H4   0.769713  0.104543  0.376435  0.154316
    C   C37  0.531076  0.461900  0.225532  0.717048
    O   O18  0.606871  0.502248  0.188143  -0.491680
    C   C38  0.450078  0.497843  0.179786  -0.545129
    H   H5   0.387730  0.453644  0.224918  0.089456
    H   H6   0.434651  0.504892  0.082142  0.237566
    H   H7   0.467448  0.561575  0.197119  0.213266
    C   C39  0.541917  0.328907  0.146044  0.640093
    O   O19  0.487612  0.351506  0.060969  -0.464766
    C   C40  0.632911  0.323314  0.124761  -0.491665
    H   H8   0.673032  0.302099  0.211765  0.101211
    H   H9   0.673726  0.387556  0.074511  0.154949
    H   H10  0.620209  0.276657  0.071656  0.180654
    C   C41  0.472276  0.265268  0.628254  0.519283
    O   O20  0.537435  0.264792  0.706528  -0.441635
    C   C42  0.377167  0.252226  0.659624  -0.313982
    H   H11  0.327661  0.257319  0.577252  0.047387
    H   H12  0.379573  0.301459  0.703997  0.146750
    H   H13  0.352687  0.187923  0.722016  0.101632
    C   C43  0.963451  0.012989  0.258380  0.517835
    O   O21  0.032146  0.075534  0.248335  -0.415468
    C   C44  0.962883  0.935655  0.362067  -0.503287
    H   H14  0.898232  0.883085  0.352798  0.132670
    H   H15  0.966605  0.952517  0.446572  0.191089
    H   H16  0.024166  0.913518  0.364041  0.153210
    C   C45  0.823151  0.971678  0.861944  0.790624
    O   O22  0.843624  0.023901  0.766492  -0.424080
    C   C46  0.800682  0.877830  0.873574  -0.433268
    H   H17  0.729835  0.844431  0.903022  0.137747
    H   H18  0.852301  0.850602  0.940679  0.122014
    H   H19  0.802998  0.868184  0.785714  0.149809
    C   C47  0.040481  0.025984  0.716695  0.697060
    O   O23  0.980148  0.962777  0.697390  -0.477195
    C   C48  0.044973  0.112879  0.632679  -0.504477
    H   H20  0.105218  0.161655  0.663517  0.125378
    H   H21  0.979813  0.129332  0.629917  0.158690
    H   H22  0.053499  0.112810  0.541534  0.175822
    C   C49  0.206777  0.006624  0.683716  0.562998
    O   O24  0.232925  0.073848  0.606978  -0.451372
    C   C50  0.178548  0.922985  0.652533  -0.376867
    H   H23  0.154587  0.869382  0.732208  0.068554
    H   H24  0.238757  0.914509  0.622594  0.144276
    H   H25  0.120941  0.922631  0.579162  0.140419
    C   C51  0.504976  0.735997  0.369449  0.628591
    O   O25  0.580265  0.764659  0.328490  -0.472508
    C   C52  0.417290  0.713026  0.290049  -0.267708
    H   H26  0.356420  0.688947  0.342867  0.042459
    H   H27  0.419067  0.662304  0.251443  0.047354
    H   H28  0.410661  0.770690  0.216438  0.140087
    C   C53  0.481646  0.543357  0.777967  0.766638
    O   O26  0.410491  0.501653  0.826407  -0.522967
    C   C54  0.563682  0.508377  0.807369  -0.533227
    H   H29  0.622405  0.555110  0.757140  0.097181
    H   H30  0.544130  0.446581  0.783394  0.186883
    H   H31  0.586169  0.497492  0.904650  0.206855
    C   C55  0.473138  0.676390  0.863339  0.614231
    O   O27  0.532969  0.656327  0.941898  -0.485421
    C   C56  0.384790  0.679683  0.896329  -0.460465
    H   H32  0.338986  0.699099  0.813992  0.100766
    H   H33  0.401030  0.726714  0.949717  0.161264
    H   H34  0.347976  0.615129  0.950369  0.131697
