# Generated by REPEAT Assigner based on pymatgen
data_DB0-m3_o1_o25_f0_nbo.sym.70
_audit_creation_date              2022-05-24
_audit_creation_method            REPEAT_Assigner
_cell_length_a                    38.122450
_cell_length_b                    21.864210
_cell_length_c                    21.791085
_cell_angle_alpha                 90.000000
_cell_angle_beta                  56.989014
_cell_angle_gamma                 90.000000
_cell_volume                      15231.082452
_symmetry_space_group_name_H-M    P1
_symmetry_Int_Tables_number       1
loop_
    _symmetry_equiv_pos_site_id
    _symmetry_equiv_pos_as_xyz
    1  x,y,z
loop_
    _atom_site_type_symbol
    _atom_site_label
    _atom_site_fract_x
    _atom_site_fract_y
    _atom_site_fract_z
    _atom_type_partial_charge
    O   O1    0.000276  0.438341  0.408278  -0.693700
    O   O2    0.001366  0.441334  0.590120  -0.710475
    O   O3    0.500276  0.938341  0.408278  -0.693659
    O   O4    0.501366  0.941334  0.590120  -0.710492
    O   O5    0.999826  0.544071  0.409009  -0.707827
    O   O6    0.998408  0.546970  0.593153  -0.691690
    O   O7    0.499826  0.044071  0.409009  -0.707839
    O   O8    0.498408  0.046970  0.593153  -0.691699
    C   C1    0.000007  0.491266  0.380247  0.641507
    C   C2    0.999964  0.494113  0.620004  0.641273
    C   C3    0.500007  0.991266  0.380247  0.641304
    C   C4    0.499964  0.994113  0.620004  0.641295
    O   O9    0.937664  0.441373  0.558864  -0.704023
    O   O10   0.062352  0.438304  0.438709  -0.690324
    O   O11   0.437664  0.941373  0.558864  -0.704038
    O   O12   0.562352  0.938304  0.438709  -0.690322
    O   O13   0.937575  0.547083  0.560022  -0.678457
    O   O14   0.062259  0.543952  0.443035  -0.691520
    O   O15   0.437575  0.047083  0.560022  -0.678487
    O   O16   0.562259  0.043952  0.443035  -0.691511
    C   C5    0.918191  0.494213  0.577802  0.749860
    C   C6    0.081730  0.491141  0.422551  0.747337
    C   C7    0.418191  0.994213  0.577802  0.749962
    C   C8    0.581730  0.991141  0.422551  0.747233
    Zn  Zn1   0.999834  0.423329  0.500412  1.341135
    Zn  Zn2   0.499834  0.923329  0.500412  1.341152
    Zn  Zn3   0.000112  0.562028  0.499898  1.325966
    Zn  Zn4   0.500112  0.062028  0.499898  1.326003
    C   C9    0.735009  0.481640  0.698879  -0.223638
    C   C10   0.264987  0.480386  0.301485  -0.228642
    C   C11   0.235009  0.981640  0.698879  -0.223631
    C   C12   0.764987  0.980386  0.301485  -0.228615
    C   C13   0.762641  0.535562  0.688997  -0.157576
    C   C14   0.237191  0.533825  0.310561  -0.159977
    C   C15   0.262641  0.035562  0.688997  -0.157569
    C   C16   0.737191  0.033825  0.310561  -0.160044
    H   H1    0.721299  0.469916  0.666737  0.079452
    H   H2    0.278764  0.469577  0.333750  0.081299
    H   H3    0.221299  0.969916  0.666737  0.079453
    H   H4    0.778764  0.969577  0.333750  0.081296
    H   H5    0.724519  0.595552  0.794707  0.073229
    H   H6    0.275094  0.592745  0.203895  0.074356
    H   H7    0.224519  0.095552  0.794707  0.073225
    H   H8    0.775094  0.092745  0.203895  0.074354
    C   C17   0.873305  0.494153  0.620401  0.051799
    C   C18   0.126618  0.491222  0.379956  0.053504
    C   C19   0.373305  0.994153  0.620401  0.051708
    C   C20   0.626618  0.991222  0.379956  0.053674
    C   C21   0.626233  0.494617  0.865536  0.073251
    C   C22   0.373684  0.493175  0.134523  0.070236
    C   C23   0.126233  0.994617  0.865536  0.073212
    C   C24   0.873684  0.993175  0.134523  0.070219
    C   C25   0.762823  0.440036  0.711011  -0.209160
    C   C26   0.237264  0.437903  0.290090  -0.198470
    C   C27   0.262823  0.940036  0.711011  -0.209157
    C   C28   0.737264  0.937903  0.290090  -0.198518
    C   C29   0.789856  0.494443  0.701018  0.891729
    C   C30   0.210067  0.491848  0.299269  0.885928
    C   C31   0.289856  0.994443  0.701018  0.891686
    C   C32   0.710067  0.991848  0.299269  0.886073
    C   C33   0.736465  0.453619  0.792660  -0.168531
    C   C34   0.263551  0.450594  0.208224  -0.175109
    C   C35   0.236465  0.953619  0.792660  -0.168515
    C   C36   0.763551  0.950594  0.208224  -0.175098
    C   C37   0.709533  0.495274  0.779888  0.877554
    C   C38   0.290387  0.493119  0.220265  0.880051
    C   C39   0.209533  0.995274  0.779888  0.877511
    C   C40   0.790387  0.993119  0.220265  0.880045
    C   C41   0.764171  0.508015  0.781957  -0.224945
    C   C42   0.235679  0.504522  0.218118  -0.216986
    C   C43   0.264171  0.008015  0.781957  -0.224952
    C   C44   0.735679  0.004522  0.218118  -0.217016
    C   C45   0.736429  0.549812  0.770035  -0.208636
    C   C46   0.263323  0.547188  0.229306  -0.213624
    C   C47   0.236429  0.049812  0.770035  -0.208612
    C   C48   0.763323  0.047188  0.229306  -0.213611
    C   C49   0.835616  0.494181  0.656487  -0.573844
    C   C50   0.164307  0.491386  0.343851  -0.573959
    C   C51   0.335616  0.994181  0.656487  -0.573775
    C   C52   0.664307  0.991386  0.343851  -0.574127
    C   C53   0.663840  0.495155  0.826277  -0.606461
    C   C54   0.336077  0.493339  0.173821  -0.602116
    C   C55   0.163840  0.995155  0.826277  -0.606422
    C   C56   0.836077  0.993339  0.173821  -0.602104
    H   H9    0.777266  0.518636  0.815369  0.077461
    H   H10   0.222525  0.514216  0.184591  0.075933
    H   H11   0.277266  0.018636  0.815369  0.077463
    H   H12   0.722525  0.014216  0.184591  0.075936
    H   H13   0.724279  0.419301  0.837196  0.068643
    H   H14   0.275813  0.415746  0.164245  0.069331
    H   H15   0.224279  0.919301  0.837196  0.068642
    H   H16   0.775813  0.915746  0.164245  0.069329
    H   H17   0.774840  0.394468  0.685860  0.066908
    H   H18   0.225386  0.392525  0.315976  0.063871
    H   H19   0.274840  0.894468  0.685860  0.066908
    H   H20   0.725386  0.892525  0.315976  0.063881
    C   C57   0.028666  0.526398  0.254625  -0.237528
    C   C58   0.970613  0.527421  0.746516  -0.240413
    C   C59   0.528666  0.026398  0.254625  -0.237674
    C   C60   0.470613  0.027421  0.746516  -0.240409
    H   H21   0.051286  0.553616  0.257833  0.153153
    H   H22   0.947437  0.553791  0.744018  0.156262
    H   H23   0.551286  0.053616  0.257833  0.153211
    H   H24   0.447437  0.053791  0.744018  0.156258
    C   C61   0.029568  0.524951  0.190597  -0.167451
    C   C62   0.969706  0.525451  0.810538  -0.166746
    C   C63   0.529568  0.024951  0.190597  -0.167442
    C   C64   0.469706  0.025451  0.810538  -0.166757
    H   H25   0.052528  0.551913  0.144352  0.141159
    H   H26   0.946185  0.551167  0.857521  0.138410
    H   H27   0.552528  0.051913  0.144352  0.141161
    H   H28   0.446185  0.051167  0.857521  0.138415
    C   C65   0.000173  0.491299  0.186809  0.159420
    C   C66   0.999741  0.492824  0.813487  0.167932
    C   C67   0.500173  0.991299  0.186809  0.159424
    C   C68   0.499741  0.992824  0.813487  0.167952
    C   C69   0.970593  0.457805  0.246561  -0.127196
    C   C70   0.030032  0.460927  0.752857  -0.122637
    C   C71   0.470593  0.957805  0.246561  -0.127180
    C   C72   0.530032  0.960927  0.752857  -0.122651
    H   H29   0.947605  0.431066  0.243918  0.102506
    H   H30   0.053544  0.435041  0.754853  0.096057
    H   H31   0.447604  0.931066  0.243918  0.102512
    H   H32   0.553544  0.935041  0.754853  0.096060
    C   C73   0.971247  0.456531  0.309150  -0.240281
    C   C74   0.029443  0.460102  0.690202  -0.239965
    C   C75   0.471247  0.956531  0.309150  -0.240425
    C   C76   0.529443  0.960102  0.690202  -0.239947
    H   H33   0.948509  0.429414  0.355466  0.169346
    H   H34   0.052744  0.434174  0.643192  0.172543
    H   H35   0.448509  0.929414  0.355466  0.169383
    H   H36   0.552744  0.934174  0.643192  0.172537
    C   C77   0.999944  0.491430  0.313493  0.206188
    C   C78   0.000050  0.493946  0.686740  0.201829
    C   C79   0.499944  0.991430  0.313493  0.206486
    C   C80   0.500050  0.993946  0.686740  0.201815
    O   O17   0.496314  0.401980  0.952233  -0.635984
    O   O18   0.504138  0.401590  0.049987  -0.617349
    O   O19   0.996314  0.901980  0.952233  -0.636040
    O   O20   0.004138  0.901590  0.049987  -0.617385
    C   C81   0.500255  0.373109  0.000987  0.493960
    C   C82   0.000255  0.873109  0.000987  0.494054
    O   O21   0.558970  0.495225  0.884739  -0.707006
    O   O22   0.440953  0.491770  0.115284  -0.703862
    O   O23   0.058970  0.995225  0.884739  -0.707009
    O   O24   0.940953  0.991770  0.115284  -0.703857
    O   O25   0.565378  0.491674  0.984186  -0.702372
    O   O26   0.434540  0.493955  0.015812  -0.698680
    O   O27   0.065378  0.991674  0.984186  -0.702373
    O   O28   0.934540  0.993955  0.015812  -0.698663
    C   C83   0.581523  0.493645  0.913551  0.768600
    C   C84   0.418396  0.492754  0.086464  0.763851
    C   C85   0.081523  0.993645  0.913551  0.768634
    C   C86   0.918396  0.992754  0.086464  0.763851
    Zn  Zn5   0.495974  0.492907  0.934607  1.303667
    Zn  Zn6   0.503960  0.492970  0.065463  1.303184
    Zn  Zn7   0.995974  0.992907  0.934607  1.303657
    Zn  Zn8   0.003960  0.992970  0.065463  1.303182
    O   O29   0.495193  0.584329  0.950641  -0.669135
    O   O30   0.504212  0.583950  0.047297  -0.684758
    O   O31   0.995193  0.084329  0.950641  -0.669133
    O   O32   0.004212  0.083950  0.047297  -0.684757
    C   C87   0.499692  0.612567  0.999066  0.632805
    C   C88   0.999692  0.112567  0.999066  0.632798
    O   O33   0.035150  0.400917  0.969465  -0.678488
    O   O34   0.962962  0.400529  0.031915  -0.665252
    O   O35   0.535150  0.900917  0.969465  -0.678500
    O   O36   0.462962  0.900529  0.031915  -0.665256
    C   C89   0.999116  0.372305  0.000605  0.635459
    C   C90   0.499116  0.872305  0.000605  0.635468
    O   O37   0.036718  0.494078  0.057218  -0.704200
    O   O38   0.963112  0.491970  0.943146  -0.700848
    O   O39   0.536718  0.994078  0.057219  -0.704189
    O   O40   0.463112  0.991970  0.943146  -0.700847
    O   O41   0.964569  0.489141  0.124734  -0.668550
    O   O42   0.035344  0.492566  0.875537  -0.661233
    O   O43   0.464569  0.989141  0.124734  -0.668565
    O   O44   0.535344  0.992566  0.875537  -0.661235
    C   C91   0.000466  0.491369  0.119644  0.651906
    C   C92   0.999416  0.492308  0.880669  0.641226
    C   C93   0.500466  0.991369  0.119644  0.651907
    C   C94   0.499416  0.992308  0.880669  0.641221
    Zn  Zn9   0.047291  0.491843  0.955558  1.285896
    Zn  Zn10  0.952561  0.491868  0.044821  1.287426
    Zn  Zn11  0.547291  0.991843  0.955558  1.285896
    Zn  Zn12  0.452561  0.991868  0.044821  1.287436
    O   O45   0.036863  0.583217  0.966427  -0.604655
    O   O46   0.964723  0.582809  0.032899  -0.620142
    O   O47   0.536863  0.083217  0.966427  -0.604655
    O   O48   0.464723  0.082809  0.032899  -0.620153
    C   C95   0.000725  0.611696  0.999798  0.492478
    C   C96   0.500725  0.111696  0.999798  0.492470
    C   C97   0.474763  0.273826  0.064977  -0.194942
    C   C98   0.525969  0.274226  0.936051  -0.187252
    C   C99   0.974763  0.773826  0.064977  -0.194963
    C   C100  0.025969  0.774226  0.936051  -0.187242
    C   C101  0.975007  0.710590  0.064751  -0.181420
    C   C102  0.025924  0.710991  0.935731  -0.190681
    C   C103  0.475007  0.210590  0.064751  -0.181448
    C   C104  0.525924  0.210991  0.935731  -0.190694
    C   C105  0.000551  0.678875  0.000111  0.162217
    C   C106  0.500551  0.178875  0.000111  0.162237
    C   C107  0.500338  0.305953  0.000664  0.184956
    C   C108  0.000338  0.805953  0.000664  0.184932
    C   C109  0.526274  0.710910  0.012307  -0.197551
    C   C110  0.472717  0.710949  0.986954  -0.199002
    C   C111  0.026274  0.210910  0.012307  -0.197546
    C   C112  0.972717  0.210949  0.986954  -0.199000
    H   H37   0.547613  0.686468  0.021617  0.149147
    H   H38   0.451481  0.686539  0.977361  0.150446
    H   H39   0.047613  0.186468  0.021617  0.149148
    H   H40   0.951481  0.186539  0.977361  0.150443
    C   C113  0.026917  0.273944  0.010718  -0.172800
    C   C114  0.971788  0.273960  0.989312  -0.176220
    C   C115  0.526917  0.773944  0.010718  -0.172802
    C   C116  0.471788  0.773960  0.989312  -0.176221
    H   H41   0.048345  0.298372  0.019817  0.137322
    H   H42   0.950248  0.298401  0.980505  0.138884
    H   H43   0.548345  0.798372  0.019817  0.137321
    H   H44   0.450248  0.798401  0.980505  0.138884
    C   C117  0.999278  0.305567  0.000212  0.143657
    C   C118  0.499278  0.805567  0.000212  0.143662
    C   C119  0.499566  0.679311  0.999438  0.163912
    C   C120  0.999566  0.179311  0.999438  0.163907
    C   C121  0.779483  0.583269  0.630699  0.256182
    C   C122  0.770700  0.581885  0.576993  -0.391239
    C   C123  0.786579  0.626464  0.523644  0.122676
    C   C124  0.811404  0.672361  0.523475  -0.003317
    Cl  Cl1   0.831920  0.728515  0.455122  -0.124464
    C   C125  0.820111  0.673953  0.577079  -0.047971
    C   C126  0.804080  0.629617  0.630692  -0.245727
    H   H45   0.751478  0.546175  0.575992  0.186358
    H   H46   0.779681  0.625254  0.481675  0.046555
    H   H47   0.839519  0.709980  0.577102  0.102634
    H   H48   0.810989  0.631167  0.672637  0.135894
    C   C127  0.220264  0.582220  0.368067  0.260775
    C   C128  0.229110  0.582046  0.421710  -0.391735
    C   C129  0.213178  0.627269  0.474288  0.122324
    C   C130  0.188239  0.672608  0.473751  -0.001242
    Cl  Cl2   0.167677  0.729602  0.541111  -0.126165
    C   C131  0.179462  0.672988  0.420214  -0.048534
    C   C132  0.195545  0.628005  0.367368  -0.245640
    H   H49   0.248428  0.546795  0.423253  0.185326
    H   H50   0.220130  0.627012  0.516203  0.046293
    H   H51   0.159965  0.708576  0.419637  0.102690
    H   H52   0.188588  0.628610  0.325462  0.135886
    C   C133  0.279483  0.083269  0.630699  0.256150
    C   C134  0.270700  0.081885  0.576993  -0.391162
    C   C135  0.286579  0.126464  0.523644  0.122574
    C   C136  0.311404  0.172361  0.523475  -0.003301
    Cl  Cl3   0.331920  0.228515  0.455122  -0.124470
    C   C137  0.320111  0.173953  0.577079  -0.047947
    C   C138  0.304080  0.129617  0.630692  -0.245723
    H   H53   0.251478  0.046175  0.575992  0.186335
    H   H54   0.279681  0.125254  0.481675  0.046608
    H   H55   0.339519  0.209980  0.577102  0.102625
    H   H56   0.310989  0.131167  0.672637  0.135890
    C   C139  0.720264  0.082220  0.368067  0.260829
    C   C140  0.729110  0.082046  0.421710  -0.391783
    C   C141  0.713178  0.127269  0.474288  0.122411
    C   C142  0.688239  0.172608  0.473751  -0.001365
    Cl  Cl4   0.667677  0.229602  0.541111  -0.126113
    C   C143  0.679462  0.172988  0.420214  -0.048452
    C   C144  0.695545  0.128005  0.367368  -0.245682
    H   H57   0.748428  0.046795  0.423253  0.185334
    H   H58   0.720130  0.127012  0.516203  0.046270
    H   H59   0.659965  0.208576  0.419637  0.102668
    H   H60   0.688588  0.128610  0.325462  0.135891
    C   C145  0.445511  0.306033  0.133088  0.387542
    C   C146  0.454171  0.312632  0.186539  -0.349020
    C   C147  0.425715  0.341058  0.251682  -0.002825
    C   C148  0.388458  0.362512  0.263690  0.117865
    Cl  Cl5   0.352111  0.398118  0.346644  -0.120710
    C   C149  0.379712  0.355714  0.210487  -0.210711
    C   C150  0.408331  0.327909  0.145035  -0.092515
    H   H61   0.483215  0.295354  0.177406  0.146880
    H   H62   0.432503  0.346181  0.293528  0.083750
    H   H63   0.350324  0.371991  0.220229  0.148024
    H   H64   0.401331  0.322295  0.103511  0.073134
    C   C151  0.554984  0.306852  0.868143  0.390805
    C   C152  0.546031  0.313884  0.815110  -0.344216
    C   C153  0.574258  0.342723  0.750133  -0.006591
    C   C154  0.611585  0.364132  0.737856  0.112795
    Cl  Cl6   0.647641  0.400255  0.655096  -0.118145
    C   C155  0.620631  0.356876  0.790627  -0.208328
    C   C156  0.592232  0.328683  0.855936  -0.099340
    H   H65   0.516936  0.296628  0.824446  0.145145
    H   H66   0.567236  0.348200  0.708620  0.086342
    H   H67   0.650078  0.373109  0.780663  0.149136
    H   H68   0.599461  0.322723  0.897127  0.075246
    C   C157  0.945511  0.806033  0.133088  0.387555
    C   C158  0.954171  0.812632  0.186539  -0.349004
    C   C159  0.925715  0.841058  0.251682  -0.002836
    C   C160  0.888458  0.862512  0.263690  0.117864
    Cl  Cl7   0.852111  0.898118  0.346644  -0.120710
    C   C161  0.879712  0.855714  0.210487  -0.210698
    C   C162  0.908331  0.827909  0.145035  -0.092538
    H   H69   0.983215  0.795354  0.177406  0.146877
    H   H70   0.932503  0.846181  0.293528  0.083751
    H   H71   0.850324  0.871991  0.220229  0.148020
    H   H72   0.901331  0.822295  0.103511  0.073145
    C   C163  0.054984  0.806852  0.868143  0.390821
    C   C164  0.046031  0.813884  0.815110  -0.344213
    C   C165  0.074258  0.842723  0.750133  -0.006580
    C   C166  0.111585  0.864132  0.737856  0.112781
    Cl  Cl8   0.147641  0.900255  0.655096  -0.118141
    C   C167  0.120631  0.856876  0.790627  -0.208290
    C   C168  0.092232  0.828683  0.855936  -0.099388
    H   H73   0.016936  0.796628  0.824446  0.145145
    H   H74   0.067236  0.848200  0.708620  0.086343
    H   H75   0.150078  0.873109  0.780663  0.149130
    H   H76   0.099461  0.822723  0.897127  0.075251
    C   C169  0.949406  0.677758  0.133984  0.387159
    C   C170  0.967503  0.655764  0.169808  -0.138204
    C   C171  0.943424  0.625651  0.235614  -0.140312
    C   C172  0.901444  0.616305  0.264966  0.059081
    Cl  Cl9   0.871393  0.576032  0.347215  -0.088359
    C   C173  0.883263  0.638322  0.229351  -0.071857
    C   C174  0.907169  0.669348  0.164094  -0.294794
    H   H77   0.000509  0.662656  0.146588  0.081117
    H   H78   0.957466  0.609050  0.264124  0.131783
    H   H79   0.850278  0.631223  0.252554  0.102129
    H   H80   0.892916  0.686615  0.136172  0.130180
    C   C175  0.051351  0.678569  0.866152  0.384823
    C   C176  0.032945  0.656594  0.830842  -0.133639
    C   C177  0.056814  0.626840  0.764739  -0.141848
    C   C178  0.098916  0.617865  0.734534  0.062857
    Cl  Cl10  0.128735  0.578101  0.651850  -0.088994
    C   C179  0.117407  0.639856  0.769638  -0.073029
    C   C180  0.093696  0.670496  0.835225  -0.297372
    H   H81   0.999849  0.663207  0.854718  0.080528
    H   H82   0.042508  0.610232  0.736673  0.129060
    H   H83   0.150483  0.633033  0.745776  0.102899
    H   H84   0.108190  0.687727  0.862750  0.131839
    C   C181  0.449406  0.177758  0.133984  0.387171
    C   C182  0.467503  0.155764  0.169808  -0.138201
    C   C183  0.443424  0.125651  0.235614  -0.140301
    C   C184  0.401444  0.116305  0.264966  0.059073
    Cl  Cl11  0.371393  0.076032  0.347215  -0.088359
    C   C185  0.383263  0.138322  0.229351  -0.071847
    C   C186  0.407169  0.169348  0.164094  -0.294797
    H   H85   0.500509  0.162656  0.146588  0.081119
    H   H86   0.457466  0.109050  0.264124  0.131781
    H   H87   0.350278  0.131223  0.252554  0.102119
    H   H88   0.392916  0.186615  0.136172  0.130182
    C   C187  0.551351  0.178569  0.866152  0.384845
    C   C188  0.532945  0.156594  0.830842  -0.133636
    C   C189  0.556814  0.126840  0.764739  -0.141848
    C   C190  0.598916  0.117865  0.734534  0.062835
    Cl  Cl12  0.628735  0.078101  0.651850  -0.088988
    C   C191  0.617407  0.139856  0.769638  -0.073032
    C   C192  0.593696  0.170496  0.835225  -0.297375
    H   H89   0.499849  0.163207  0.854718  0.080525
    H   H90   0.542508  0.110232  0.736673  0.129066
    H   H91   0.650483  0.133033  0.745776  0.102903
    H   H92   0.608190  0.187727  0.862750  0.131836
