# Generated by REPEAT Assigner based on pymatgen
data_DB0-m2_o4_o28_f0_nbo.sym.57
_audit_creation_date              2022-05-24
_audit_creation_method            REPEAT_Assigner
_cell_length_a                    21.642344
_cell_length_b                    21.636937
_cell_length_c                    46.666970
_cell_angle_alpha                 90.000000
_cell_angle_beta                  90.000000
_cell_angle_gamma                 90.000000
_cell_volume                      21852.930032
_symmetry_space_group_name_H-M    P1
_symmetry_Int_Tables_number       1
loop_
    _symmetry_equiv_pos_site_id
    _symmetry_equiv_pos_as_xyz
    1  x,y,z
loop_
    _atom_site_type_symbol
    _atom_site_label
    _atom_site_fract_x
    _atom_site_fract_y
    _atom_site_fract_z
    _atom_type_partial_charge
    O   O1    0.981821  0.909054  0.024620  -0.647883
    O   O2    0.086367  0.980871  0.025209  -0.649571
    O   O3    0.014558  0.085422  0.025313  -0.650676
    O   O4    0.910030  0.013620  0.024721  -0.647435
    O   O5    0.504774  0.412487  0.527351  -0.650776
    O   O6    0.592464  0.504079  0.524266  -0.618377
    O   O7    0.505925  0.591788  0.523747  -0.617328
    O   O8    0.413120  0.505412  0.526800  -0.645239
    O   O9    0.020585  0.910950  0.977981  -0.632549
    O   O10   0.085851  0.019642  0.978563  -0.632777
    O   O11   0.977194  0.084915  0.978422  -0.633898
    O   O12   0.911933  0.976248  0.977839  -0.632385
    O   O13   0.495113  0.407393  0.478123  -0.606227
    O   O14   0.588476  0.493046  0.475096  -0.634345
    O   O15   0.497384  0.586545  0.474515  -0.628334
    O   O16   0.409293  0.495461  0.477562  -0.609999
    C   C1    0.002067  0.881105  0.001205  0.873125
    C   C2    0.115006  0.001247  0.001994  0.874765
    C   C3    0.994913  0.114055  0.001969  0.877149
    C   C4    0.882083  0.994094  0.001170  0.871653
    C   C5    0.499264  0.381342  0.503358  0.818324
    C   C6    0.619086  0.498082  0.499229  0.786926
    C   C7    0.501731  0.617843  0.498508  0.789829
    C   C8    0.382604  0.500342  0.502618  0.812345
    C   C9    0.490999  0.994600  0.855206  0.253140
    C   C10   0.996438  0.490105  0.855641  0.247874
    C   C11   0.003464  0.508245  0.355730  0.240829
    C   C12   0.511115  0.009561  0.355329  0.246782
    C   C13   0.053012  0.493218  0.132366  -0.239249
    C   C14   0.515303  0.057152  0.131312  -0.239013
    C   C15   0.944672  0.513542  0.132247  -0.244943
    C   C16   0.495031  0.948811  0.132490  -0.244002
    C   C17   0.540028  0.979223  0.632318  -0.219345
    C   C18   0.006852  0.538822  0.632963  -0.235517
    C   C19   0.432118  0.001541  0.631096  -0.210960
    C   C20   0.985027  0.430798  0.631461  -0.224198
    H   H1    0.095644  0.485139  0.143846  0.171458
    H   H2    0.524615  0.100195  0.142257  0.171320
    H   H3    0.902143  0.522807  0.143616  0.174167
    H   H4    0.487039  0.906683  0.144383  0.174383
    H   H5    0.581876  0.969899  0.644210  0.166898
    H   H6    0.015793  0.580623  0.644961  0.168644
    H   H7    0.389161  0.011157  0.642046  0.168424
    H   H8    0.975416  0.387698  0.642300  0.170590
    Cu  Cu1   0.998126  0.997168  0.029407  0.969523
    Cu  Cu2   0.503070  0.502558  0.529433  0.986214
    Cu  Cu3   0.998964  0.998004  0.973753  0.951929
    Cu  Cu4   0.498625  0.496532  0.472430  0.979609
    C   C21   0.998608  0.500937  0.087855  -0.079176
    C   C22   0.502415  0.001265  0.087452  -0.080258
    C   C23   0.488675  0.991227  0.587253  0.000113
    C   C24   0.997134  0.487529  0.587769  -0.044527
    C   C25   0.998911  0.504172  0.147199  0.196235
    C   C26   0.506031  0.003583  0.146794  0.194172
    C   C27   0.485406  0.990717  0.646607  0.169666
    C   C28   0.995328  0.484027  0.647102  0.186820
    C   C29   0.780383  0.037523  0.014235  0.231134
    C   C30   0.958943  0.779456  0.014520  0.236071
    C   C31   0.216717  0.958858  0.015895  0.235451
    C   C32   0.037578  0.215618  0.015822  0.234264
    C   C33   0.281069  0.537090  0.519828  0.174055
    C   C34   0.535684  0.279793  0.520656  0.147857
    C   C35   0.720518  0.537542  0.514232  0.072758
    C   C36   0.529921  0.719561  0.518168  0.160243
    C   C37   0.814594  0.992857  0.000795  -0.317832
    C   C38   0.003370  0.813616  0.000888  -0.322471
    C   C39   0.182491  0.003075  0.002136  -0.322022
    C   C40   0.993190  0.181525  0.002121  -0.319877
    C   C41   0.315555  0.497636  0.503413  -0.220885
    C   C42   0.495666  0.314326  0.504570  -0.218370
    C   C43   0.686200  0.497039  0.498323  -0.194684
    C   C44   0.501943  0.685066  0.497242  -0.252439
    C   C45   0.781918  0.946963  0.986539  -0.074512
    C   C46   0.049139  0.780888  0.986577  -0.068375
    C   C47   0.215167  0.049093  0.987974  -0.073265
    C   C48   0.947062  0.214304  0.988102  -0.079897
    C   C49   0.283717  0.455559  0.486562  -0.146299
    C   C50   0.452668  0.282497  0.488223  -0.154216
    C   C51   0.718252  0.454236  0.481944  -0.101569
    C   C52   0.472660  0.717137  0.475335  -0.082417
    H   H9    0.806427  0.910255  0.975693  0.131366
    H   H10   0.085677  0.805351  0.975590  0.130287
    H   H11   0.190670  0.085477  0.976890  0.131869
    H   H12   0.910551  0.189875  0.977079  0.133541
    H   H13   0.308801  0.423178  0.473303  0.144994
    H   H14   0.419888  0.307629  0.475197  0.146019
    H   H15   0.693303  0.420811  0.469199  0.131989
    H   H16   0.449137  0.692356  0.458444  0.130861
    C   C53   0.717345  0.946778  0.986755  -0.109688
    C   C54   0.049414  0.716307  0.986910  -0.117160
    C   C55   0.279712  0.049675  0.988451  -0.110992
    C   C56   0.946525  0.278855  0.988683  -0.105684
    C   C57   0.219446  0.453762  0.487012  -0.065857
    C   C58   0.450815  0.218185  0.488706  -0.053839
    C   C59   0.782660  0.452499  0.482715  -0.085631
    C   C60   0.471057  0.781587  0.475600  -0.090662
    H   H17   0.692782  0.910222  0.975830  0.129395
    H   H18   0.085842  0.691700  0.975919  0.131840
    H   H19   0.304214  0.086152  0.977440  0.129794
    H   H20   0.909955  0.303480  0.977803  0.128229
    H   H21   0.195346  0.420404  0.473885  0.120337
    H   H22   0.416993  0.194141  0.475819  0.114052
    H   H23   0.807065  0.418233  0.470229  0.120758
    H   H24   0.446898  0.806136  0.458824  0.116583
    C   C61   0.684762  0.994121  0.000039  -0.246303
    C   C62   0.002316  0.683776  0.000400  -0.238387
    C   C63   0.312350  0.002679  0.001967  -0.240030
    C   C64   0.993681  0.311357  0.002143  -0.241479
    C   C65   0.186443  0.496205  0.503150  -0.282332
    C   C66   0.494059  0.185116  0.504370  -0.287433
    C   C67   0.815364  0.495451  0.498785  -0.286651
    C   C68   0.501269  0.814292  0.496964  -0.307706
    C   C69   0.719148  0.039035  0.013258  0.162729
    C   C70   0.957534  0.718205  0.013680  0.155353
    C   C71   0.277995  0.957759  0.015209  0.154829
    C   C72   0.038731  0.276899  0.015216  0.156579
    C   C73   0.219861  0.537564  0.519088  0.198720
    C   C74   0.536060  0.218563  0.519942  0.226513
    C   C75   0.781633  0.537850  0.513879  0.275924
    C   C76   0.530981  0.780680  0.517558  0.242930
    C   C77   0.713970  0.096875  0.030128  -0.095024
    C   C78   0.899933  0.713082  0.030719  -0.090142
    C   C79   0.283173  0.899835  0.032017  -0.094628
    C   C80   0.096795  0.281923  0.031918  -0.098047
    C   C81   0.213736  0.590230  0.539205  -0.105502
    C   C82   0.590243  0.212488  0.539176  -0.176411
    C   C83   0.787376  0.590602  0.533970  -0.234867
    C   C84   0.565775  0.787070  0.544732  -0.183108
    C   C85   0.786065  0.095348  0.031055  -0.218537
    C   C86   0.901345  0.785201  0.031494  -0.222322
    C   C87   0.211053  0.900905  0.032620  -0.215363
    C   C88   0.095660  0.209782  0.032427  -0.213879
    C   C89   0.285879  0.590007  0.539859  -0.207221
    C   C90   0.590097  0.284647  0.539791  -0.133793
    C   C91   0.715270  0.590627  0.534135  -0.121676
    C   C92   0.564896  0.714967  0.545423  -0.128577
    H   H25   0.695430  0.135739  0.017245  0.064233
    H   H26   0.860947  0.694350  0.017981  0.063535
    H   H27   0.302207  0.861171  0.019160  0.065952
    H   H28   0.135351  0.301008  0.019011  0.066427
    H   H29   0.194178  0.631859  0.528728  0.070633
    H   H30   0.577905  0.191429  0.560070  0.071585
    H   H31   0.807723  0.576659  0.554799  0.091440
    H   H32   0.612593  0.806590  0.541380  0.088127
    H   H33   0.692374  0.089083  0.051373  0.054289
    H   H34   0.908031  0.691699  0.051986  0.053314
    H   H35   0.304284  0.907605  0.053368  0.053299
    H   H36   0.089238  0.302914  0.053312  0.054311
    H   H37   0.192638  0.576270  0.559871  0.048935
    H   H38   0.631036  0.192922  0.528023  0.084336
    H   H39   0.807426  0.632103  0.523584  0.088263
    H   H40   0.537526  0.808305  0.561942  0.060161
    H   H41   0.807781  0.133113  0.018531  0.081902
    H   H42   0.863386  0.806736  0.019034  0.082921
    H   H43   0.189861  0.863067  0.019951  0.081506
    H   H44   0.133350  0.188622  0.019657  0.080811
    H   H45   0.306544  0.631324  0.529568  0.081351
    H   H46   0.578035  0.304022  0.561065  0.073302
    H   H47   0.695217  0.577285  0.555106  0.077265
    H   H48   0.611221  0.694221  0.542436  0.032499
    H   H49   0.804775  0.087067  0.052839  0.088979
    H   H50   0.909879  0.804134  0.053216  0.090196
    H   H51   0.191822  0.908942  0.054326  0.087802
    H   H52   0.087797  0.190419  0.054122  0.087754
    H   H53   0.305169  0.576293  0.560932  0.090970
    H   H54   0.630596  0.305249  0.528802  0.060970
    H   H55   0.695249  0.631839  0.523527  0.101426
    H   H56   0.536430  0.696029  0.563120  0.077022
    C   C93   0.052967  0.491856  0.102839  0.013279
    C   C94   0.513261  0.056107  0.101805  0.018637
    C   C95   0.944416  0.511692  0.102732  0.018921
    C   C96   0.493478  0.947554  0.102962  0.014218
    C   C97   0.541780  0.979764  0.602835  -0.016986
    C   C98   0.007463  0.540690  0.603491  0.014854
    C   C99   0.433646  0.001535  0.601531  -0.041879
    C   C100  0.986182  0.432442  0.601903  -0.026127
    H   H57   0.095883  0.483015  0.091746  0.095087
    H   H58   0.520856  0.098662  0.090220  0.092823
    H   H59   0.901382  0.519375  0.091554  0.093301
    H   H60   0.484589  0.904153  0.092282  0.095726
    H   H61   0.585308  0.971002  0.592257  0.091831
    H   H62   0.016703  0.584280  0.593049  0.088527
    H   H63   0.391601  0.010934  0.589835  0.108732
    H   H64   0.977737  0.390336  0.590089  0.107708
    O   O17   0.502385  0.050049  0.958984  -0.608731
    O   O18   0.944760  0.501587  0.959825  -0.608624
    O   O19   0.491691  0.944078  0.959788  -0.605581
    O   O20   0.050722  0.490828  0.959735  -0.607652
    O   O21   0.005349  0.553650  0.461092  -0.612329
    O   O22   0.449398  0.005428  0.458157  -0.602556
    O   O23   0.001184  0.447333  0.458587  -0.597985
    O   O24   0.555724  0.002513  0.460720  -0.608122
    C   C101  0.496418  0.996662  0.945962  0.622379
    C   C102  0.997626  0.495641  0.946362  0.625745
    C   C103  0.004016  0.501872  0.446438  0.609484
    C   C104  0.504025  0.005144  0.446040  0.604168
    O   O25   0.589822  0.049831  0.001716  -0.609762
    O   O26   0.946692  0.588865  0.002620  -0.610074
    O   O27   0.407408  0.947068  0.003817  -0.608494
    O   O28   0.049396  0.406355  0.003706  -0.607429
    O   O29   0.090624  0.549752  0.504709  -0.619058
    O   O30   0.442513  0.088485  0.502490  -0.587118
    O   O31   0.911089  0.442125  0.499888  -0.582477
    O   O32   0.552861  0.910473  0.501269  -0.637086
    O   O33   0.587020  0.943407  0.001064  -0.606697
    O   O34   0.053044  0.586017  0.001072  -0.608911
    O   O35   0.410118  0.053408  0.001673  -0.607599
    O   O36   0.943015  0.409125  0.002448  -0.606542
    O   O37   0.090642  0.443306  0.502527  -0.604644
    O   O38   0.548785  0.089911  0.505622  -0.640394
    O   O39   0.910986  0.548445  0.502857  -0.633726
    O   O40   0.446497  0.909001  0.498813  -0.611142
    C   C105  0.617216  0.995919  0.999999  0.783714
    C   C106  0.000523  0.616232  0.000444  0.782567
    C   C107  0.379902  0.000860  0.001687  0.780152
    C   C108  0.995527  0.378897  0.001973  0.778465
    C   C109  0.119289  0.496620  0.502722  0.802727
    C   C110  0.495337  0.117924  0.503460  0.807521
    C   C111  0.882524  0.495466  0.499627  0.797437
    C   C112  0.500303  0.881366  0.497928  0.850901
    Cu  Cu5   0.500189  0.060013  0.000562  0.995144
    Cu  Cu6   0.936417  0.499224  0.001477  0.994414
    Cu  Cu7   0.496918  0.936772  0.001432  0.991172
    Cu  Cu8   0.059645  0.495890  0.001313  0.993213
    Cu  Cu9   0.000835  0.557601  0.502862  1.009372
    Cu  Cu10  0.436205  0.998731  0.499422  0.983502
    Cu  Cu11  0.000958  0.434408  0.499988  0.977761
    Cu  Cu12  0.559327  0.000429  0.502542  1.012140
    O   O41   0.502552  0.053026  0.042267  -0.597796
    O   O42   0.945028  0.501408  0.043120  -0.598266
    O   O43   0.497571  0.946408  0.043044  -0.597305
    O   O44   0.051631  0.496380  0.042997  -0.597480
    O   O45   0.001426  0.544773  0.544266  -0.594737
    O   O46   0.439744  0.997281  0.541252  -0.587882
    O   O47   0.995678  0.438310  0.541745  -0.590150
    O   O48   0.546250  0.993012  0.543789  -0.581346
    C   C113  0.500666  0.000155  0.056060  0.657147
    C   C114  0.998421  0.499417  0.056462  0.657522
    C   C115  0.997994  0.490176  0.556396  0.632374
    C   C116  0.491528  0.993669  0.555897  0.600690
    C   C117  0.962368  0.466274  0.192274  0.398367
    C   C118  0.548083  0.968887  0.191440  0.398977
    C   C119  0.035750  0.546038  0.191493  0.401174
    C   C120  0.468356  0.042322  0.191512  0.404241
    C   C121  0.447225  0.953644  0.691656  0.403230
    C   C122  0.033091  0.445632  0.691966  0.404911
    C   C123  0.522199  0.031909  0.690947  0.387773
    C   C124  0.954670  0.520454  0.691610  0.400850
    N   N1    0.998997  0.505564  0.177773  -0.163958
    N   N2    0.507530  0.004925  0.177366  -0.164135
    N   N3    0.484555  0.992335  0.677184  -0.154894
    N   N4    0.993958  0.482823  0.677672  -0.166150
    C   C125  0.040057  0.545020  0.221274  -0.053165
    C   C126  0.472021  0.047907  0.221195  -0.062124
    C   C127  0.958436  0.469659  0.222017  -0.054216
    C   C128  0.547346  0.966241  0.221267  -0.054328
    C   C129  0.527162  0.030116  0.720677  -0.051347
    C   C130  0.957190  0.525513  0.721321  -0.052572
    C   C131  0.443999  0.956478  0.721459  -0.061194
    C   C132  0.030940  0.442431  0.721775  -0.059412
    C   C133  0.999389  0.507875  0.236495  -0.036258
    C   C134  0.510427  0.007817  0.236076  -0.029906
    C   C135  0.486101  0.993469  0.735920  -0.031331
    C   C136  0.994210  0.484502  0.736397  -0.034547
    C   C137  0.082538  0.581332  0.236338  0.070480
    C   C138  0.436940  0.090957  0.236531  0.072309
    C   C139  0.916217  0.434463  0.237782  0.071162
    C   C140  0.583737  0.924546  0.236757  0.068362
    C   C141  0.570853  0.065101  0.735664  0.071134
    C   C142  0.922660  0.569332  0.736450  0.073508
    C   C143  0.401483  0.921794  0.737306  0.069539
    C   C144  0.066152  0.400070  0.737462  0.066791
    C   C145  0.570807  0.065013  0.765128  -0.096969
    C   C146  0.923432  0.569367  0.765912  -0.098141
    C   C147  0.403770  0.922430  0.766772  -0.088605
    C   C148  0.066186  0.402424  0.766925  -0.092400
    C   C149  0.081722  0.581931  0.265813  -0.096252
    C   C150  0.438532  0.091044  0.265990  -0.100934
    C   C151  0.917858  0.435672  0.267235  -0.099129
    C   C152  0.584693  0.927067  0.266213  -0.092126
    C   C153  0.529169  0.029610  0.780165  -0.096176
    C   C154  0.959170  0.527747  0.780790  -0.102699
    C   C155  0.446571  0.958043  0.780999  -0.097847
    C   C156  0.030827  0.445198  0.781302  -0.092803
    C   C157  0.040575  0.545860  0.280809  -0.097579
    C   C158  0.475479  0.050151  0.280668  -0.087845
    C   C159  0.959622  0.472406  0.281495  -0.088317
    C   C160  0.548871  0.969132  0.280789  -0.100302
    C   C161  0.487245  0.993732  0.765598  0.082515
    C   C162  0.994690  0.485766  0.766067  0.085970
    C   C163  0.999818  0.508769  0.266169  0.083310
    C   C164  0.511673  0.009097  0.265746  0.080734
    C   C165  0.530399  0.028880  0.809790  0.480308
    C   C166  0.960701  0.529131  0.810404  0.482667
    C   C167  0.447859  0.959137  0.810643  0.481153
    C   C168  0.030525  0.446635  0.810941  0.475296
    C   C169  0.041331  0.545406  0.310457  0.479278
    C   C170  0.476944  0.050836  0.310288  0.471252
    C   C171  0.960517  0.473657  0.311112  0.467571
    C   C172  0.548615  0.969940  0.310440  0.480707
    N   N5    0.489727  0.994133  0.824599  -0.208145
    N   N6    0.995894  0.488567  0.825046  -0.202506
    N   N7    0.001494  0.509506  0.325152  -0.195103
    N   N8    0.512840  0.010570  0.324739  -0.198761
    O   O49   0.932154  0.422379  0.177504  -0.432199
    O   O50   0.590538  0.937909  0.176119  -0.432836
    O   O51   0.065863  0.588635  0.175886  -0.434389
    O   O52   0.424355  0.071737  0.176470  -0.433126
    O   O53   0.415719  0.910794  0.676811  -0.433038
    O   O54   0.075780  0.414326  0.676934  -0.430275
    O   O55   0.552741  0.074346  0.675423  -0.424496
    O   O56   0.911876  0.550957  0.676283  -0.434955
    H   H65   0.605494  0.091873  0.776162  0.116623
    H   H66   0.896936  0.604164  0.777062  0.116642
    H   H67   0.370033  0.895691  0.778483  0.113103
    H   H68   0.093323  0.368816  0.778520  0.113203
    H   H69   0.115533  0.609773  0.276909  0.115632
    H   H70   0.411337  0.125054  0.277300  0.115876
    H   H71   0.884435  0.408442  0.278896  0.114616
    H   H72   0.612546  0.893803  0.277654  0.114091
    O   O57   0.573341  0.061820  0.823915  -0.491562
    O   O58   0.928138  0.572138  0.824676  -0.491629
    O   O59   0.406241  0.926297  0.825642  -0.492150
    O   O60   0.063812  0.405129  0.825795  -0.490061
    O   O61   0.083150  0.579511  0.324708  -0.493394
    O   O62   0.443097  0.092475  0.324790  -0.489745
    O   O63   0.919584  0.439794  0.326029  -0.487103
    O   O64   0.582650  0.928724  0.325101  -0.493033
    C   C173  0.498874  0.940230  0.870283  -0.207714
    C   C174  0.051297  0.498164  0.870292  -0.205751
    C   C175  0.484765  0.049550  0.869979  -0.212799
    C   C176  0.942023  0.483869  0.870820  -0.209180
    C   C177  0.013299  0.453119  0.369884  -0.205010
    C   C178  0.564458  0.017834  0.371144  -0.205022
    C   C179  0.995099  0.561790  0.371386  -0.202105
    C   C180  0.455803  0.999882  0.369332  -0.212493
    H   H73   0.504665  0.896978  0.859005  0.150367
    H   H74   0.094128  0.503973  0.858685  0.149646
    H   H75   0.477706  0.092350  0.858488  0.152218
    H   H76   0.898857  0.476685  0.859653  0.151147
    H   H77   0.020861  0.411041  0.357898  0.149200
    H   H78   0.607997  0.026054  0.360453  0.151886
    H   H79   0.986704  0.605165  0.360572  0.150526
    H   H80   0.413881  0.992333  0.357235  0.150494
    C   C181  0.500176  0.940745  0.899823  -0.038069
    C   C182  0.051819  0.499551  0.899822  -0.039717
    C   C183  0.487047  0.050288  0.899486  -0.034067
    C   C184  0.942317  0.486245  0.900324  -0.034248
    C   C185  0.013612  0.451197  0.399369  -0.042504
    C   C186  0.562471  0.016191  0.400696  -0.050468
    C   C187  0.996223  0.560112  0.400937  -0.044416
    C   C188  0.453576  0.999034  0.398806  -0.031251
    H   H81   0.506590  0.897644  0.911129  0.113578
    H   H82   0.095296  0.506058  0.910794  0.114640
    H   H83   0.481939  0.093888  0.910519  0.113235
    H   H84   0.899139  0.481082  0.911695  0.112710
    H   H85   0.021130  0.407332  0.409863  0.113982
    H   H86   0.604716  0.022847  0.412642  0.119233
    H   H87   0.988915  0.602428  0.412754  0.116046
    H   H88   0.409623  0.991105  0.409145  0.111758
    C   C189  0.494596  0.995853  0.914578  -0.036403
    C   C190  0.997262  0.493892  0.914988  -0.038280
    C   C191  0.004966  0.504653  0.415075  -0.021343
    C   C192  0.506906  0.007009  0.414678  -0.019511
    C   C193  0.132701  0.615805  0.222657  0.043993
    C   C194  0.179197  0.584813  0.208437  -0.041278
    C   C195  0.227399  0.617274  0.196392  -0.340736
    C   C196  0.230206  0.680771  0.198751  0.467051
    O   O65   0.278343  0.710582  0.186577  -0.345792
    C   C197  0.286516  0.773477  0.187475  0.113668
    C   C198  0.184007  0.711758  0.213558  -0.243274
    C   C199  0.135812  0.679121  0.225578  -0.159688
    H   H89   0.177801  0.535017  0.206671  0.097700
    H   H90   0.263442  0.592774  0.185083  0.155299
    H   H91   0.329509  0.785558  0.175827  0.057048
    H   H92   0.291074  0.789075  0.210023  -0.000754
    H   H93   0.247093  0.796991  0.176890  0.023719
    H   H94   0.184254  0.761336  0.216169  0.130148
    H   H95   0.100030  0.703478  0.237137  0.132870
    C   C200  0.401054  0.140415  0.223071  0.053288
    C   C201  0.430502  0.186489  0.207879  -0.054922
    C   C202  0.396722  0.233963  0.195984  -0.340424
    C   C203  0.333460  0.236455  0.199445  0.469878
    O   O66   0.302313  0.283856  0.187362  -0.347996
    C   C204  0.239490  0.291631  0.189291  0.114124
    C   C205  0.304066  0.190699  0.215216  -0.246113
    C   C206  0.338017  0.143240  0.227086  -0.159646
    H   H96   0.480108  0.185316  0.205225  0.102302
    H   H97   0.419996  0.269669  0.183910  0.157595
    H   H98   0.226136  0.334029  0.177467  0.058510
    H   H99   0.225710  0.297069  0.212050  -0.001748
    H   H100  0.215438  0.251578  0.179496  0.022830
    H   H101  0.254749  0.190725  0.218702  0.131628
    H   H102  0.314888  0.107780  0.239381  0.131966
    C   C207  0.865773  0.399044  0.224846  0.044924
    C   C208  0.819175  0.428973  0.210212  -0.045358
    C   C209  0.770722  0.395680  0.198889  -0.348187
    C   C210  0.767763  0.332432  0.202384  0.480860
    O   O67   0.719356  0.301786  0.190903  -0.349789
    C   C211  0.710964  0.239047  0.192978  0.106944
    C   C212  0.814087  0.302551  0.217587  -0.251529
    C   C213  0.862535  0.336013  0.228881  -0.154508
    H   H103  0.820670  0.478583  0.207565  0.100473
    H   H104  0.734589  0.419338  0.187260  0.158053
    H   H105  0.667752  0.226151  0.181697  0.060199
    H   H106  0.706688  0.225397  0.215807  -0.000316
    H   H107  0.750140  0.214491  0.182707  0.023494
    H   H108  0.813745  0.253223  0.221072  0.133827
    H   H109  0.898411  0.312502  0.240749  0.131020
    C   C214  0.617767  0.873398  0.223617  0.042651
    C   C215  0.586359  0.826368  0.209976  -0.033364
    C   C216  0.618371  0.777222  0.198499  -0.350040
    C   C217  0.681830  0.774001  0.200866  0.476366
    O   O68   0.711186  0.724904  0.189284  -0.348813
    C   C218  0.773985  0.716182  0.190294  0.118618
    C   C219  0.713239  0.820773  0.215087  -0.247473
    C   C220  0.681051  0.869918  0.226536  -0.157940
    H   H110  0.536581  0.828060  0.208232  0.095502
    H   H111  0.593539  0.740748  0.187648  0.156685
    H   H112  0.785655  0.672408  0.179185  0.055546
    H   H113  0.789529  0.712776  0.212893  -0.002518
    H   H114  0.797873  0.754764  0.179228  0.020892
    H   H115  0.762807  0.820248  0.217677  0.132196
    H   H116  0.705740  0.906130  0.237650  0.131856
    C   C221  0.621454  0.098756  0.721883  0.036838
    C   C222  0.666847  0.067072  0.707228  -0.036292
    C   C223  0.715485  0.098722  0.695096  -0.354774
    C   C224  0.719845  0.162069  0.697797  0.478351
    O   O69   0.768366  0.191072  0.685530  -0.349129
    C   C225  0.778062  0.253725  0.686755  0.103439
    C   C226  0.674761  0.193726  0.713031  -0.241747
    C   C227  0.626122  0.161903  0.725136  -0.157998
    H   H117  0.664243  0.017373  0.705193  0.096771
    H   H118  0.750655  0.073692  0.683449  0.161015
    H   H119  0.821039  0.265109  0.674945  0.060666
    H   H120  0.783551  0.268577  0.709366  0.003155
    H   H121  0.738952  0.278466  0.676526  0.024179
    H   H122  0.676236  0.243212  0.715919  0.128747
    H   H123  0.591218  0.186781  0.737029  0.132046
    C   C228  0.889039  0.620124  0.722798  0.036911
    C   C229  0.920695  0.665219  0.707929  -0.029723
    C   C230  0.889132  0.714067  0.695924  -0.357353
    C   C231  0.825911  0.718936  0.698967  0.479064
    O   O70   0.796989  0.767643  0.686813  -0.346427
    C   C232  0.734462  0.777825  0.688360  0.091088
    C   C233  0.794298  0.674156  0.714416  -0.244358
    C   C234  0.826034  0.625305  0.726393  -0.155843
    H   H124  0.970308  0.662228  0.705628  0.093548
    H   H125  0.914136  0.749000  0.684111  0.160993
    H   H126  0.723120  0.820848  0.676569  0.066195
    H   H127  0.720216  0.783525  0.711043  0.004922
    H   H128  0.709181  0.738852  0.678300  0.025565
    H   H129  0.744915  0.676036  0.717573  0.130088
    H   H130  0.801193  0.590644  0.738456  0.131689
    C   C235  0.350184  0.887489  0.724461  0.036790
    C   C236  0.303720  0.918488  0.710221  -0.042988
    C   C237  0.254521  0.886214  0.698956  -0.344246
    C   C238  0.250698  0.822929  0.702117  0.475126
    O   O71   0.201600  0.793299  0.690695  -0.342846
    C   C239  0.192347  0.730635  0.692447  0.085680
    C   C240  0.296899  0.791974  0.716935  -0.247735
    C   C241  0.346089  0.824419  0.728174  -0.151079
    H   H131  0.305915  0.968134  0.707831  0.101633
    H   H132  0.218494  0.910703  0.687631  0.155829
    H   H133  0.148713  0.718669  0.681296  0.067881
    H   H134  0.188366  0.716428  0.715214  0.003670
    H   H135  0.230941  0.705802  0.681850  0.029212
    H   H136  0.295898  0.742571  0.720152  0.131752
    H   H137  0.381877  0.800079  0.739736  0.130099
    C   C242  0.100492  0.348947  0.724475  0.041591
    C   C243  0.069509  0.302274  0.710372  -0.043902
    C   C244  0.101850  0.253230  0.698995  -0.343160
    C   C245  0.165195  0.249765  0.701912  0.475079
    O   O72   0.194885  0.200788  0.690402  -0.339678
    C   C246  0.257606  0.191849  0.691941  0.082902
    C   C247  0.196149  0.296184  0.716585  -0.253394
    C   C248  0.163638  0.345220  0.727934  -0.152354
    H   H138  0.019822  0.304178  0.708181  0.101236
    H   H139  0.077367  0.217032  0.687782  0.155330
    H   H140  0.269608  0.148235  0.680773  0.066301
    H   H141  0.272196  0.187994  0.714661  0.005605
    H   H142  0.282070  0.230549  0.681239  0.029273
    H   H143  0.245603  0.295470  0.719608  0.134868
    H   H144  0.187982  0.381174  0.739387  0.131520
