# Generated by REPEAT Assigner based on pymatgen
data_DB0-m29_o89_o44_f0_pts.sym.81
_audit_creation_date              2022-05-24
_audit_creation_method            REPEAT_Assigner
_cell_length_a                    14.167153
_cell_length_b                    9.422018
_cell_length_c                    18.370701
_cell_angle_alpha                 86.183639
_cell_angle_beta                  90.792458
_cell_angle_gamma                 109.901029
_cell_volume                      2300.525333
_symmetry_space_group_name_H-M    P1
_symmetry_Int_Tables_number       1
loop_
    _symmetry_equiv_pos_site_id
    _symmetry_equiv_pos_as_xyz
    1  x,y,z
loop_
    _atom_site_type_symbol
    _atom_site_label
    _atom_site_fract_x
    _atom_site_fract_y
    _atom_site_fract_z
    _atom_type_partial_charge
    C   C1   0.864594  0.046913  0.086747  -0.192510
    C   C2   0.776229  0.051304  0.055107  0.088035
    C   C3   0.769316  0.061860  0.979570  -0.039911
    C   C4   0.850408  0.067740  0.937523  -0.207842
    C   C5   0.936952  0.057995  0.969445  0.219927
    C   C6   0.945524  0.049866  0.044171  0.093535
    C   C7   0.013264  0.051827  0.925661  -0.226922
    C   C8   0.101252  0.041517  0.955760  0.096786
    C   C9   0.110700  0.033563  0.030815  0.160659
    C   C10  0.033119  0.038849  0.075287  -0.181248
    C   C11  0.179687  0.040002  0.911257  -0.166063
    C   C12  0.270247  0.038476  0.941535  0.030682
    C   C13  0.278500  0.029349  0.017118  0.040590
    C   C14  0.199105  0.024861  0.060692  -0.243900
    H   H1   0.867460  0.035918  0.145345  0.137980
    H   H2   0.843186  0.070246  0.878838  0.150869
    H   H3   0.000943  0.054563  0.867677  0.102390
    H   H4   0.211962  0.025116  0.118628  0.140223
    N   N1   0.052936  0.919001  0.196520  -0.202827
    C   C15  0.063550  0.960215  0.265762  0.047028
    C   C16  0.060805  0.105135  0.268321  -0.158781
    C   C17  0.049192  0.154075  0.197372  -0.226627
    C   C18  0.044819  0.036926  0.154731  0.260313
    H   H5   0.052001  0.816076  0.178243  0.291588
    H   H6   0.061866  0.166877  0.315986  0.139937
    H   H7   0.043135  0.262017  0.178987  0.155948
    O   O1   0.613043  0.071662  0.077502  -0.426484
    C   C19  0.692151  0.043601  0.103204  0.480505
    O   O2   0.520079  0.757287  0.145790  -0.449643
    O   O3   0.696909  0.011650  0.173481  -0.525911
    O   O4   0.500532  0.888785  0.239831  -0.503434
    C   C20  0.510567  0.765953  0.216157  0.542371
    Fe  Fe1  0.512745  0.038491  0.156394  1.414383
    O   O5   0.376846  0.956063  0.111149  -0.631850
    O   O6   0.452771  0.164378  0.036170  -0.488076
    C   C21  0.373749  0.045195  0.053538  0.635397
    O   O7   0.556320  0.243612  0.196519  -0.586479
    O   O8   0.448053  0.115190  0.288024  -0.499577
    C   C22  0.507792  0.242929  0.256928  0.550670
    O   O9   0.496287  0.843077  0.799974  -0.580923
    O   O10  0.603166  0.975635  0.708419  -0.530613
    C   C23  0.545650  0.846427  0.739630  0.564634
    O   O11  0.668648  0.135703  0.887313  -0.575665
    O   O12  0.597149  0.919139  0.957718  -0.479310
    C   C24  0.674058  0.042761  0.942556  0.642145
    O   O13  0.361117  0.107531  0.826246  -0.412497
    O   O14  0.545678  0.196761  0.756745  -0.466205
    C   C25  0.547442  0.326157  0.780533  0.473301
    O   O15  0.431328  0.008670  0.917931  -0.426909
    C   C26  0.356578  0.050630  0.893711  0.447734
    O   O16  0.546974  0.340235  0.851115  -0.434604
    Fe  Fe2  0.534338  0.047670  0.840331  1.368680
    C   C27  0.544196  0.451716  0.729602  0.105063
    C   C28  0.540853  0.439185  0.654767  -0.243047
    H   H8   0.539406  0.335473  0.632153  0.177094
    C   C29  0.538667  0.560034  0.608363  0.302479
    C   C30  0.542229  0.693693  0.636100  -0.290834
    H   H9   0.541477  0.787915  0.599435  0.179073
    C   C31  0.542307  0.704987  0.710253  0.142200
    C   C32  0.542234  0.584036  0.756939  -0.216819
    C   C33  0.530908  0.548430  0.530895  -0.161732
    C   C34  0.523868  0.541368  0.465705  -0.164099
    C   C35  0.512725  0.396462  0.360374  -0.130214
    H   H10  0.512294  0.301599  0.397027  0.120704
    C   C36  0.513570  0.385659  0.286204  0.070324
    C   C37  0.515341  0.507625  0.239567  -0.182762
    C   C38  0.513149  0.639836  0.266995  0.041983
    C   C39  0.515038  0.651445  0.341862  -0.212006
    H   H11  0.516489  0.755127  0.364511  0.172043
    C   C40  0.516501  0.530134  0.388204  0.250508
    H   H12  0.543928  0.595888  0.815076  0.159477
    H   H13  0.514061  0.496197  0.181401  0.153084
    C   C41  0.165913  0.037080  0.832168  0.427095
    C   C42  0.156766  0.907042  0.798019  -0.137785
    Cl  Cl1  0.157822  0.744503  0.849622  -0.073642
    C   C43  0.146434  0.904800  0.723311  -0.060303
    C   C44  0.146217  0.033004  0.682576  -0.110542
    C   C45  0.156836  0.163716  0.716504  -0.093996
    C   C46  0.167163  0.166030  0.791210  -0.225159
    H   H14  0.138737  0.802605  0.696658  0.120330
    H   H15  0.138224  0.031255  0.624005  0.087147
    H   H16  0.157327  0.264504  0.684514  0.112448
    H   H17  0.176110  0.268817  0.817720  0.151193
    C   C47  0.071808  0.860344  0.328356  0.139975
    C   C48  0.134476  0.915993  0.386113  0.024859
    Cl  Cl2  0.213654  0.105265  0.384050  -0.064880
    C   C49  0.140174  0.819606  0.444591  -0.061057
    C   C50  0.083933  0.667983  0.445820  -0.148482
    C   C51  0.022601  0.611945  0.388065  -0.062301
    C   C52  0.016920  0.707643  0.329357  -0.197255
    H   H18  0.189794  0.862961  0.489293  0.120463
    H   H19  0.088652  0.592852  0.491746  0.130298
    H   H20  0.978738  0.492874  0.388827  0.115035
    H   H21  0.967512  0.662545  0.284831  0.122541
