# Generated by REPEAT Assigner based on pymatgen
data_DB0-m3_o9_o23_f0_nbo.sym.112_sqe
_audit_creation_date              2022-05-24
_audit_creation_method            REPEAT_Assigner
_cell_length_a                    21.872095
_cell_length_b                    21.871337
_cell_length_c                    22.207525
_cell_angle_alpha                 119.491462
_cell_angle_beta                  119.497957
_cell_angle_gamma                 90.010497
_cell_volume                      7624.560479
_symmetry_space_group_name_H-M    P1
_symmetry_Int_Tables_number       1
loop_
    _symmetry_equiv_pos_site_id
    _symmetry_equiv_pos_as_xyz
    1  x,y,z
loop_
    _atom_site_type_symbol
    _atom_site_label
    _atom_site_fract_x
    _atom_site_fract_y
    _atom_site_fract_z
    _atom_type_partial_charge
    O   O1    0.449236  0.091955  0.505002  -0.662317
    O   O2    0.552699  0.090111  0.500793  -0.652671
    C   C1    0.501845  0.120395  0.504638  0.558218
    O   O3    0.514148  0.056014  0.625864  -0.686376
    O   O4    0.616688  0.056776  0.619958  -0.687924
    C   C2    0.586128  0.074367  0.661793  0.791432
    Zn  Zn1   0.430306  0.999839  0.502652  1.293847
    Zn  Zn2   0.564273  0.995371  0.493752  1.294280
    O   O5    0.441078  0.904387  0.494145  -0.628438
    O   O6    0.545957  0.903994  0.492795  -0.663164
    O   O7    0.377906  0.939361  0.376422  -0.666705
    O   O8    0.480471  0.938273  0.370506  -0.697413
    C   C3    0.492748  0.874808  0.491794  0.529090
    C   C4    0.408575  0.920697  0.334543  0.788498
    C   C5    0.691945  0.262626  0.950468  -0.141856
    C   C6    0.799770  0.229499  0.950062  -0.105540
    C   C7    0.845671  0.283543  0.044676  -0.149000
    H   H1    0.754869  0.365736  0.072142  0.051730
    H   H2    0.699423  0.299646  0.932360  0.002212
    H   H3    0.822819  0.183389  0.932517  0.005094
    H   H4    0.801405  0.258501  0.921379  0.031401
    H   H5    0.861946  0.340638  0.061794  0.014638
    H   H6    0.896355  0.269178  0.072835  0.036237
    C   C8    0.881806  0.366712  0.244422  -0.007099
    C   C9    0.720476  0.198907  0.918932  0.743314
    C   C10   0.734864  0.305885  0.044828  -0.148040
    C   C11   0.800089  0.279309  0.077191  0.757262
    C   C12   0.771703  0.199689  0.046522  -0.104473
    C   C13   0.718052  0.153100  0.951825  -0.184811
    C   C14   0.845572  0.326661  0.168921  -0.534819
    C   C15   0.673595  0.153009  0.827184  -0.521045
    C   C16   0.633956  0.116572  0.751652  -0.019003
    H   H7    0.661097  0.135164  0.934329  0.024486
    H   H8    0.733900  0.103420  0.924273  0.054761
    H   H9    0.742909  0.196834  0.074954  0.031250
    H   H10   0.632250  0.240997  0.922796  0.050336
    H   H11   0.698126  0.297057  0.062685  0.005169
    H   H12   0.818939  0.178127  0.064712  0.008560
    H   H13   0.475256  0.274827  0.798619  0.102958
    C   C17   0.427533  0.280836  0.692346  -0.076832
    H   H14   0.381293  0.295114  0.695206  0.101764
    C   C18   0.434071  0.274283  0.630970  -0.235445
    H   H15   0.392578  0.283258  0.585692  0.118794
    C   C19   0.492664  0.255356  0.626513  0.330484
    C   C20   0.545686  0.244695  0.685103  -0.147795
    H   H16   0.592859  0.231856  0.683657  0.099727
    C   C21   0.539207  0.251709  0.746706  -0.108133
    H   H17   0.580703  0.243685  0.792632  0.121848
    C   C22   0.480098  0.269432  0.750204  -0.147846
    C   C23   0.502158  0.312256  0.559369  -0.132245
    H   H18   0.501210  0.362178  0.605770  0.097054
    C   C24   0.502413  0.309892  0.496236  0.305891
    C   C25   0.500029  0.244119  0.434496  -0.163942
    C   C26   0.502337  0.184362  0.440809  -0.305604
    H   H19   0.501835  0.133690  0.393767  0.157533
    C   C27   0.502203  0.187006  0.504039  0.277147
    C   C28   0.499480  0.250795  0.562209  -0.274476
    C   C29   0.431931  0.180249  0.281704  -0.227060
    H   H20   0.389275  0.146956  0.274642  0.135731
    C   C30   0.424382  0.169546  0.211492  -0.129546
    H   H21   0.376127  0.127815  0.149796  0.114699
    C   C31   0.478238  0.212091  0.219928  -0.139569
    H   H22   0.472313  0.203714  0.164879  0.106844
    C   C32   0.539843  0.265062  0.298618  -0.036856
    H   H23   0.582372  0.298208  0.305368  0.062006
    C   C33   0.547382  0.275732  0.368804  -0.197169
    H   H24   0.596009  0.316679  0.429901  0.090488
    C   C34   0.492986  0.234082  0.360746  0.308023
    C   C35   0.219925  0.731396  0.043467  0.001862
    C   C36   0.327692  0.772526  0.047025  -0.148121
    C   C37   0.280687  0.721111  0.952274  -0.075636
    H   H25   0.167407  0.629315  0.921137  0.062628
    H   H26   0.247503  0.695379  0.062044  -0.012392
    H   H27   0.367419  0.821188  0.067453  0.025579
    H   H28   0.359033  0.742721  0.073831  0.037414
    H   H29   0.283005  0.664226  0.932846  0.007635
    H   H30   0.302355  0.740542  0.926719  -0.006407
    C   C38   0.121199  0.636131  0.751709  -0.021021
    C   C39   0.278024  0.798270  0.077296  0.654830
    C   C40   0.170186  0.688325  0.948729  -0.297753
    C   C41   0.201223  0.720638  0.918997  0.803958
    C   C42   0.198981  0.799341  0.951324  -0.136425
    C   C43   0.240102  0.844200  0.046011  -0.158581
    C   C44   0.157036  0.674989  0.827250  -0.523363
    C   C45   0.323093  0.842777  0.169065  -0.472901
    C   C46   0.361398  0.878625  0.244629  -0.037335
    H   H31   0.200318  0.859310  0.063701  0.020364
    H   H32   0.281956  0.895582  0.074551  0.043716
    H   H33   0.140636  0.799015  0.923200  0.017320
    H   H34   0.186135  0.749694  0.069379  0.018876
    H   H35   0.113611  0.692052  0.928764  0.055341
    H   H36   0.225714  0.824695  0.933976  0.023479
    H   H37   0.164152  0.733728  0.223686  0.112658
    C   C47   0.229174  0.730712  0.331448  -0.054920
    H   H38   0.183269  0.721954  0.335816  0.093247
    C   C48   0.298336  0.734890  0.388478  -0.255332
    H   H39   0.306307  0.729542  0.437520  0.139085
    C   C49   0.357348  0.746839  0.383708  0.313008
    C   C50   0.346216  0.752614  0.320060  -0.144125
    H   H40   0.391471  0.759809  0.314201  0.091541
    C   C51   0.276879  0.747923  0.262752  -0.081671
    H   H41   0.268164  0.752090  0.212819  0.100434
    C   C52   0.218457  0.737348  0.268652  -0.174153
    C   C53   0.434859  0.687860  0.447279  -0.192519
    H   H42   0.385321  0.641271  0.408189  0.126147
    C   C54   0.501886  0.685544  0.500614  0.155208
    C   C55   0.565519  0.745062  0.550221  -0.134702
    C   C56   0.560895  0.805397  0.545042  -0.259520
    H   H43   0.610699  0.851479  0.583438  0.146153
    C   C57   0.493805  0.807983  0.492132  0.272682
    C   C58   0.429990  0.748714  0.443024  -0.221581
    C   C59   0.679490  0.799807  0.690737  -0.175706
    H   H44   0.656291  0.840880  0.716302  0.110243
    C   C60   0.749520  0.801849  0.743392  -0.125743
    H   H45   0.781002  0.844421  0.809950  0.108528
    C   C61   0.779634  0.749999  0.711110  -0.097917
    H   H46   0.834749  0.751881  0.752288  0.093666
    C   C62   0.739782  0.696258  0.626139  -0.164833
    H   H47   0.764139  0.656640  0.600826  0.117529
    C   C63   0.669303  0.693494  0.573499  -0.123132
    H   H48   0.638638  0.651666  0.506779  0.095266
    C   C64   0.638730  0.745013  0.605835  0.258160
    O   O9    0.905543  0.548415  0.487711  -0.655489
    O   O10   0.910740  0.449194  0.499700  -0.651904
    C   C65   0.878801  0.498066  0.492078  0.551011
    O   O11   0.942371  0.486903  0.369530  -0.671927
    O   O12   0.941941  0.385046  0.376705  -0.700262
    C   C66   0.923978  0.415061  0.334240  0.783434
    Zn  Zn3   0.999363  0.568725  0.493504  1.297323
    Zn  Zn4   0.003366  0.434797  0.502513  1.296571
    O   O13   0.092768  0.555176  0.497735  -0.639627
    O   O14   0.096464  0.454358  0.506848  -0.667533
    O   O15   0.059925  0.618484  0.619337  -0.684841
    O   O16   0.061366  0.516585  0.626523  -0.684146
    C   C67   0.123976  0.505444  0.503965  0.544344
    C   C68   0.078933  0.588360  0.661833  0.786370
    O   O17   0.630727  0.537322  0.574785  -0.562252
    O   O18   0.558293  0.463015  0.430126  -0.664241
    C   C69   0.623216  0.499464  0.502579  0.507646
    O   O19   0.537336  0.441453  0.567715  -0.670166
    O   O20   0.463064  0.368938  0.423071  -0.580833
    C   C70   0.501156  0.376500  0.495290  0.523527
    Zn  Zn5   0.548716  0.545173  0.593795  1.266728
    Zn  Zn6   0.454531  0.450971  0.404080  1.264488
    O   O21   0.445108  0.534328  0.567886  -0.695163
    O   O22   0.372565  0.457884  0.423228  -0.674059
    O   O23   0.541126  0.627182  0.574678  -0.652066
    O   O24   0.464742  0.554574  0.430030  -0.684564
    C   C71   0.380354  0.495701  0.495699  0.694500
    C   C72   0.503138  0.619370  0.502191  0.634946
    H   H49   0.721754  0.521692  0.195559  0.102506
    C   C73   0.717928  0.571581  0.303389  -0.091269
    H   H50   0.704152  0.617876  0.300330  0.103939
    C   C74   0.725266  0.566184  0.365732  -0.210892
    H   H51   0.717353  0.608570  0.411535  0.110453
    C   C75   0.743564  0.507520  0.370418  0.314146
    C   C76   0.752730  0.453267  0.311087  -0.136193
    H   H52   0.765036  0.406045  0.312749  0.097690
    C   C77   0.744852  0.458560  0.248471  -0.120295
    H   H53   0.751606  0.416031  0.201908  0.121557
    C   C78   0.727826  0.517766  0.244761  -0.138230
    C   C79   0.687540  0.499624  0.438947  -0.145282
    H   H54   0.637664  0.500949  0.392876  0.095027
    C   C80   0.689844  0.498634  0.501678  0.320614
    C   C81   0.755411  0.500112  0.562765  -0.170681
    C   C82   0.815042  0.497752  0.556212  -0.290680
    H   H55   0.865527  0.497551  0.602768  0.153684
    C   C83   0.812381  0.498284  0.493151  0.265159
    C   C84   0.748716  0.501695  0.435529  -0.257143
    C   C85   0.820112  0.565395  0.715404  -0.229222
    H   H56   0.854262  0.608197  0.723485  0.142148
    C   C86   0.830830  0.571365  0.784924  -0.125216
    H   H57   0.873470  0.618471  0.847081  0.115732
    C   C87   0.787155  0.517400  0.775232  -0.140590
    H   H58   0.795538  0.522114  0.829746  0.106905
    C   C88   0.733027  0.457237  0.695959  -0.031923
    H   H59   0.698953  0.414623  0.688195  0.060414
    C   C89   0.722399  0.451226  0.626472  -0.200978
    H   H60   0.680507  0.403707  0.564892  0.095909
    C   C90   0.765220  0.505747  0.635806  0.296835
    H   H61   0.260978  0.834585  0.767354  0.110997
    C   C91   0.264757  0.768788  0.660262  -0.054532
    H   H62   0.272842  0.814161  0.654867  0.093429
    C   C92   0.261505  0.699591  0.604346  -0.260318
    H   H63   0.266910  0.691058  0.555155  0.139370
    C   C93   0.250412  0.641248  0.610424  0.328338
    C   C94   0.244593  0.653132  0.674300  -0.141615
    H   H64   0.238126  0.608449  0.681235  0.085607
    C   C95   0.248373  0.722517  0.730519  -0.098508
    H   H65   0.244197  0.731844  0.780672  0.122186
    C   C96   0.258070  0.780237  0.723268  -0.169202
    C   C97   0.310733  0.564080  0.548683  -0.163099
    H   H66   0.356767  0.613902  0.586985  0.122805
    C   C98   0.314099  0.496920  0.497042  0.070062
    C   C99   0.255540  0.432896  0.448736  -0.003060
    C   C100  0.194767  0.437147  0.453075  -0.328230
    H   H67   0.149425  0.386980  0.415665  0.162983
    C   C101  0.191032  0.504402  0.504158  0.295196
    C   C102  0.249577  0.568586  0.552367  -0.245630
    C   C103  0.207363  0.317790  0.310852  -0.353611
    H   H68   0.167643  0.340302  0.282094  0.142236
    C   C104  0.207136  0.247489  0.261106  0.483226
    C   C105  0.258970  0.219393  0.298504  -0.343538
    H   H69   0.263244  0.165966  0.262594  0.155803
    C   C106  0.308209  0.260626  0.384464  -0.113199
    H   H70   0.347164  0.237699  0.413241  0.133425
    C   C107  0.308125  0.330723  0.433612  -0.182308
    H   H71   0.346895  0.362558  0.501034  0.098135
    C   C108  0.258042  0.359726  0.396754  0.225825
    N   N1    0.156077  0.207932  0.172927  -0.709589
    C   C109  0.143876  0.130819  0.126207  0.468764
    C   C110  0.158101  0.099809  0.065103  -0.270481
    C   C111  0.144943  0.024375  0.018408  -0.051064
    C   C112  0.116572  0.979588  0.031758  -0.231266
    C   C113  0.100977  0.010160  0.091563  -0.066072
    C   C114  0.114188  0.085574  0.138419  -0.246744
    H   H72   0.163952  0.234591  0.148718  0.328714
    H   H73   0.180361  0.134424  0.054117  0.118328
    H   H74   0.156778  0.000308  0.971170  0.099446
    H   H75   0.106092  0.920455  0.994953  0.149320
    H   H76   0.078162  0.974958  0.101558  0.105406
    H   H77   0.101195  0.109122  0.184697  0.136167
