# Generated by REPEAT Assigner based on pymatgen
data_DB0-m3_o1480_o18_f0_fsc.sym.33
_audit_creation_date              2022-05-24
_audit_creation_method            REPEAT_Assigner
_cell_length_a                    8.531453
_cell_length_b                    10.738307
_cell_length_c                    14.272272
_cell_angle_alpha                 101.920865
_cell_angle_beta                  90.108421
_cell_angle_gamma                 89.991623
_cell_volume                      1279.330139
_symmetry_space_group_name_H-M    P1
_symmetry_Int_Tables_number       1
loop_
    _symmetry_equiv_pos_site_id
    _symmetry_equiv_pos_as_xyz
    1  x,y,z
loop_
    _atom_site_type_symbol
    _atom_site_label
    _atom_site_fract_x
    _atom_site_fract_y
    _atom_site_fract_z
    _atom_type_partial_charge
    C   C1   0.012680  0.673160  0.965002  -0.098830
    C   C2   0.871784  0.735441  0.980090  -0.027810
    C   C3   0.868185  0.865873  0.003949  -0.343475
    C   C4   0.151035  0.739952  0.980204  -0.125275
    C   C5   0.148547  0.872366  0.999014  -0.184990
    C   C6   0.006139  0.936282  0.007699  0.414199
    C   C7   0.005922  0.069037  0.022152  -0.335977
    C   C8   0.867403  0.138260  0.025466  -0.081917
    C   C9   0.870962  0.268231  0.037640  -0.078666
    C   C10  0.286746  0.941273  0.007881  0.322437
    N   N1   0.283979  0.069141  0.020875  -0.664759
    C   C11  0.147885  0.133834  0.027586  0.627467
    C   C12  0.149617  0.265542  0.038991  -0.298279
    C   C13  0.011106  0.331587  0.047638  -0.093263
    H   H1   0.398596  0.893106  0.001692  0.024175
    H   H2   0.015075  0.570553  0.951172  0.107206
    H   H3   0.012685  0.433553  0.054861  0.156476
    H   H4   0.754579  0.907399  0.020585  0.171075
    H   H5   0.753571  0.095657  0.017073  0.080890
    O   O1   0.679847  0.661419  0.074881  -0.717907
    O   O2   0.674356  0.587031  0.910709  -0.742515
    C   C14  0.730520  0.661850  0.988161  0.878767
    O   O3   0.678041  0.340943  0.941738  -0.638808
    O   O4   0.674296  0.414842  0.105654  -0.710103
    C   C15  0.728920  0.339831  0.028470  0.764135
    O   O5   0.339891  0.341958  0.942958  -0.679945
    O   O6   0.346218  0.415386  0.106286  -0.699835
    C   C16  0.291705  0.338462  0.029664  0.818966
    O   O7   0.342153  0.662812  0.075408  -0.744233
    O   O8   0.346142  0.589191  0.911515  -0.733364
    C   C17  0.292621  0.665886  0.988680  0.910071
    Zn  Zn1  0.508939  0.451171  0.902818  1.027226
    Zn  Zn2  0.510699  0.551977  0.114333  1.053879
    N   N2   0.507218  0.392306  0.778385  -0.074569
    N   N3   0.511872  0.610169  0.238450  0.116274
    C   C18  0.481820  0.226434  0.642454  -0.397253
    C   C19  0.484629  0.267695  0.740110  0.268933
    C   C20  0.519589  0.477663  0.720916  -0.098739
    C   C21  0.513436  0.439589  0.620886  -0.050723
    C   C22  0.495942  0.311477  0.583213  0.304871
    C   C23  0.521551  0.524658  0.557645  0.119885
    C   C24  0.511326  0.478529  0.458369  -0.012744
    C   C25  0.494973  0.348217  0.424418  -0.093265
    C   C26  0.487984  0.266612  0.486276  -0.295120
    C   C27  0.538560  0.655039  0.591119  -0.133442
    C   C28  0.541618  0.736658  0.528771  -0.292458
    C   C29  0.529455  0.692225  0.432112  0.222784
    C   C30  0.516161  0.563557  0.395202  0.099607
    C   C31  0.532254  0.778023  0.372332  -0.231611
    C   C32  0.522935  0.735407  0.274983  -0.099043
    C   C33  0.508932  0.524677  0.295668  -0.200596
    H   H6   0.473655  0.165907  0.457661  0.154303
    H   H7   0.503522  0.426574  0.260366  0.180418
    H   H8   0.526572  0.802355  0.227924  0.151233
    H   H9   0.554427  0.837278  0.555961  0.197434
    H   H10  0.465145  0.126974  0.611750  0.177988
    H   H11  0.530676  0.575614  0.755895  0.176086
    H   H12  0.484942  0.304106  0.350114  0.135012
    H   H13  0.549885  0.698772  0.665467  0.123441
    H   H14  0.542648  0.878922  0.401489  0.128082
    N   N4   0.453874  0.180593  0.799455  0.076551
    C   C34  0.308351  0.111216  0.779960  -0.205762
    C   C35  0.331906  0.971674  0.734044  0.457755
    O   O9   0.447812  0.916956  0.781666  -0.473942
    C   C36  0.587830  0.976775  0.766533  0.465217
    C   C37  0.587685  0.111587  0.822950  -0.113436
    H   H15  0.234199  0.156002  0.732209  0.032723
    H   H16  0.244238  0.117016  0.847975  0.099685
    H   H17  0.357643  0.958368  0.656718  -0.111835
    H   H18  0.219809  0.921515  0.739743  -0.047880
    H   H19  0.606955  0.976828  0.690089  -0.145969
    H   H20  0.686740  0.924955  0.791540  -0.044130
    H   H21  0.696753  0.158359  0.805898  0.013271
    H   H22  0.583117  0.109605  0.899994  0.063944
