# Generated by REPEAT Assigner based on pymatgen
data_DB0-m3_o6_o22_f0_nbo.sym.172
_audit_creation_date              2022-05-24
_audit_creation_method            REPEAT_Assigner
_cell_length_a                    38.324396
_cell_length_b                    32.263151
_cell_length_c                    21.525487
_cell_angle_alpha                 90.000000
_cell_angle_beta                  57.416375
_cell_angle_gamma                 90.000000
_cell_volume                      22426.412842
_symmetry_space_group_name_H-M    P1
_symmetry_Int_Tables_number       1
loop_
    _symmetry_equiv_pos_site_id
    _symmetry_equiv_pos_as_xyz
    1  x,y,z
loop_
    _atom_site_type_symbol
    _atom_site_label
    _atom_site_fract_x
    _atom_site_fract_y
    _atom_site_fract_z
    _atom_type_partial_charge
    O   O1    0.938400  0.537600  0.560911  -0.717101
    O   O2    0.061822  0.537932  0.437279  -0.705669
    O   O3    0.438400  0.037600  0.560911  -0.717098
    O   O4    0.561822  0.037932  0.437279  -0.705659
    O   O5    0.937100  0.466047  0.564585  -0.711710
    O   O6    0.060669  0.466374  0.441737  -0.730316
    O   O7    0.437100  0.966047  0.564585  -0.711683
    O   O8    0.560669  0.966374  0.441737  -0.730292
    C   C1    0.918498  0.502167  0.581990  0.877089
    C   C2    0.080495  0.501857  0.420220  0.894069
    C   C3    0.418498  0.002167  0.581990  0.877049
    C   C4    0.580495  0.001857  0.420220  0.894028
    O   O9    0.999305  0.538601  0.408594  -0.692860
    O   O10   0.002831  0.536812  0.590260  -0.711874
    O   O11   0.499305  0.038601  0.408594  -0.692853
    O   O12   0.502831  0.036812  0.590261  -0.711858
    O   O13   0.996476  0.467131  0.411735  -0.669324
    O   O14   0.999381  0.465347  0.593994  -0.658056
    O   O15   0.496476  0.967131  0.411735  -0.669299
    O   O16   0.499381  0.965347  0.593994  -0.658043
    C   C5    0.997463  0.502797  0.381595  0.345172
    C   C6    0.001684  0.501103  0.620504  0.350407
    C   C7    0.497463  0.002797  0.381595  0.345161
    C   C8    0.501684  0.001103  0.620504  0.350390
    Zn  Zn1   0.000127  0.548917  0.500597  1.351011
    Zn  Zn2   0.500127  0.048917  0.500597  1.351002
    Zn  Zn3   0.998873  0.455050  0.501697  1.336704
    Zn  Zn4   0.498873  0.955050  0.501697  1.336685
    C   C9    0.000649  0.378198  0.001361  -0.126765
    C   C10   0.500649  0.878198  0.001361  -0.126788
    C   C11   0.499367  0.629167  0.002557  -0.039667
    C   C12   0.999367  0.129167  0.002557  -0.039686
    C   C13   0.000474  0.296404  0.001625  0.291378
    C   C14   0.500474  0.796404  0.001625  0.291376
    C   C15   0.974516  0.275226  0.986788  -0.203898
    C   C16   0.026132  0.274873  0.016763  -0.209824
    C   C17   0.474516  0.775226  0.986788  -0.203907
    C   C18   0.526132  0.774873  0.016763  -0.209830
    C   C19   0.973595  0.539508  0.310512  -0.300533
    C   C20   0.018730  0.542375  0.697517  -0.270729
    C   C21   0.473595  0.039508  0.310512  -0.300589
    C   C22   0.518730  0.042375  0.697517  -0.270743
    H   H1    0.986003  0.569249  0.316233  0.030645
    H   H2    0.999954  0.568911  0.699097  0.026568
    H   H3    0.486003  0.069249  0.316233  0.030658
    H   H4    0.499954  0.068911  0.699097  0.026574
    H   H5    0.940910  0.536984  0.357097  0.087792
    H   H6    0.050918  0.546775  0.649984  0.079098
    H   H7    0.440910  0.036984  0.357097  0.087800
    H   H8    0.550918  0.046775  0.649984  0.079094
    C   C23   0.975255  0.540317  0.238697  -0.006647
    C   C24   0.018626  0.542663  0.767929  -0.054068
    C   C25   0.475255  0.040317  0.238697  -0.006600
    C   C26   0.518626  0.042663  0.767929  -0.054073
    H   H9    0.943799  0.541400  0.248876  0.025228
    H   H10   0.049799  0.549105  0.756642  0.039404
    H   H11   0.443799  0.041400  0.248876  0.025222
    H   H12   0.549799  0.049105  0.756642  0.039410
    H   H13   0.991013  0.569215  0.208839  -0.025739
    H   H14   0.998467  0.568345  0.803259  -0.012194
    H   H15   0.491013  0.069215  0.208839  -0.025752
    H   H16   0.498467  0.068345  0.803259  -0.012200
    H   H17   0.055870  0.539456  0.151493  0.069651
    H   H18   0.939944  0.527829  0.853724  0.085992
    H   H19   0.555870  0.039456  0.151493  0.069646
    H   H20   0.439944  0.027828  0.853724  0.085991
    C   C27   0.042759  0.502882  0.246004  0.122798
    C   C28   0.958405  0.492523  0.755205  0.177747
    C   C29   0.542759  0.002882  0.246004  0.122748
    C   C30   0.458405  0.992523  0.755205  0.177591
    C   C31   0.977683  0.463041  0.307438  -0.557277
    C   C32   0.030139  0.466697  0.685741  -0.502023
    C   C33   0.477683  0.963041  0.307438  -0.557319
    C   C34   0.530139  0.966698  0.685741  -0.502031
    C   C35   0.997986  0.502521  0.311835  0.819665
    C   C36   0.002023  0.501118  0.689378  0.808966
    C   C37   0.497986  0.002521  0.311835  0.819666
    C   C38   0.502023  0.001118  0.689378  0.809020
    H   H21   0.993502  0.435303  0.311271  0.068222
    H   H22   0.020556  0.436401  0.675382  0.054712
    H   H23   0.493502  0.935303  0.311271  0.068233
    H   H24   0.520556  0.936401  0.675382  0.054710
    H   H25   0.945095  0.461670  0.354066  0.148920
    H   H26   0.062178  0.472396  0.639363  0.135930
    H   H27   0.445095  0.961670  0.354066  0.148933
    H   H28   0.562178  0.972396  0.639363  0.135928
    C   C39   0.999829  0.503388  0.191786  0.546245
    C   C40   0.001366  0.501981  0.808363  0.564573
    C   C41   0.499829  0.003388  0.191786  0.546276
    C   C42   0.501366  0.001981  0.808363  0.564591
    C   C43   0.043625  0.508324  0.175066  -0.330861
    C   C44   0.957184  0.498998  0.826275  -0.396562
    C   C45   0.543625  0.008324  0.175066  -0.330832
    C   C46   0.457184  0.998998  0.826275  -0.396495
    C   C47   0.983366  0.461810  0.231941  0.458461
    C   C48   0.024875  0.464006  0.760857  0.417948
    C   C49   0.483366  0.961810  0.231941  0.458508
    C   C50   0.524875  0.964006  0.760857  0.417938
    H   H29   0.009026  0.439588  0.199534  -0.055792
    H   H30   0.003524  0.437574  0.788904  -0.048927
    H   H31   0.509026  0.939588  0.199534  -0.055802
    H   H32   0.503524  0.937574  0.788904  -0.048932
    H   H33   0.055974  0.472173  0.245170  0.006865
    H   H34   0.951522  0.459564  0.751470  0.003201
    H   H35   0.555974  0.972173  0.245170  0.006880
    H   H36   0.451522  0.959564  0.751470  0.003235
    H   H37   0.064654  0.484505  0.135239  0.069343
    H   H38   0.940745  0.472297  0.863184  0.088156
    H   H39   0.564654  0.984505  0.135239  0.069328
    H   H40   0.440745  0.972297  0.863184  0.088162
    C   C51   0.728375  0.469585  0.796711  -0.347924
    C   C52   0.270558  0.470092  0.197862  -0.348569
    C   C53   0.228375  0.969585  0.796711  -0.347927
    C   C54   0.770558  0.970092  0.197862  -0.348575
    H   H41   0.711678  0.442871  0.829792  0.207367
    H   H42   0.287222  0.445148  0.159540  0.201335
    H   H43   0.211678  0.942871  0.829792  0.207367
    H   H44   0.787222  0.945148  0.159540  0.201338
    C   C55   0.706783  0.503890  0.797233  0.371035
    C   C56   0.292190  0.502331  0.203866  0.368757
    C   C57   0.206783  0.003890  0.797233  0.371030
    C   C58   0.792190  0.002331  0.203866  0.368765
    C   C59   0.727909  0.537806  0.754384  -0.281815
    C   C60   0.271102  0.533920  0.253321  -0.285469
    C   C61   0.227909  0.037806  0.754384  -0.281819
    C   C62   0.771102  0.033920  0.253321  -0.285474
    H   H45   0.711018  0.564729  0.754736  0.169843
    H   H46   0.288015  0.559214  0.258089  0.172985
    H   H47   0.211018  0.064729  0.754736  0.169843
    H   H48   0.788015  0.059214  0.258089  0.172985
    C   C63   0.770574  0.537302  0.710731  -0.135556
    C   C64   0.228454  0.533164  0.296987  -0.138470
    C   C65   0.270574  0.037302  0.710731  -0.135546
    C   C66   0.728454  0.033164  0.296987  -0.138467
    H   H49   0.787079  0.563920  0.677115  0.150910
    H   H50   0.211985  0.557976  0.335752  0.149239
    H   H51   0.287079  0.063920  0.677116  0.150906
    H   H52   0.711985  0.057976  0.335752  0.149237
    C   C67   0.792270  0.502896  0.709615  0.021239
    C   C68   0.206705  0.500827  0.291533  0.022716
    C   C69   0.292270  0.002896  0.709615  0.021237
    C   C70   0.706705  0.000827  0.291533  0.022727
    C   C71   0.771152  0.468984  0.753285  0.385465
    C   C72   0.227768  0.469277  0.241311  0.401975
    C   C73   0.271152  0.968984  0.753285  0.385465
    C   C74   0.727768  0.969277  0.241311  0.401964
    C   C75   0.662306  0.504010  0.841585  -0.187700
    C   C76   0.336667  0.502752  0.159362  -0.182115
    C   C77   0.162306  0.004010  0.841585  -0.187688
    C   C78   0.836667  0.002752  0.159362  -0.182120
    C   C79   0.836749  0.503109  0.664308  -0.011742
    C   C80   0.162229  0.500985  0.337019  0.005891
    C   C81   0.336749  0.003109  0.664308  -0.011745
    C   C82   0.662229  0.000985  0.337019  0.005883
    C   C83   0.874063  0.502898  0.626629  -0.241266
    C   C84   0.124925  0.501243  0.375085  -0.259141
    C   C85   0.374063  0.002898  0.626629  -0.241250
    C   C86   0.624925  0.001243  0.375085  -0.259124
    C   C87   0.624964  0.503983  0.878581  -0.072182
    C   C88   0.374009  0.503084  0.122317  -0.079278
    C   C89   0.124964  0.003983  0.878581  -0.072191
    C   C90   0.874009  0.003084  0.122317  -0.079267
    C   C91   0.499567  0.666505  0.002441  -0.232158
    C   C92   0.999567  0.166505  0.002441  -0.232140
    O   O17   0.965401  0.565082  0.030592  -0.714218
    O   O18   0.036845  0.565860  0.967251  -0.700786
    O   O19   0.465401  0.065082  0.030592  -0.714234
    O   O20   0.536845  0.065860  0.967251  -0.700800
    C   C93   0.000939  0.584716  0.998818  0.879967
    C   C94   0.500939  0.084716  0.998818  0.880014
    O   O21   0.965282  0.503267  0.125568  -0.628031
    O   O22   0.035999  0.504761  0.874555  -0.625947
    O   O23   0.465282  0.003267  0.125568  -0.628085
    O   O24   0.535999  0.004761  0.874555  -0.625958
    O   O25   0.036665  0.505283  0.059094  -0.625450
    O   O26   0.964672  0.501962  0.941017  -0.622913
    O   O27   0.536665  0.005283  0.059094  -0.625438
    O   O28   0.464672  0.001962  0.941017  -0.622994
    C   C95   0.000649  0.503863  0.121671  0.294174
    C   C96   0.000696  0.502655  0.878388  0.299510
    C   C97   0.500650  0.003863  0.121671  0.294162
    C   C98   0.500696  0.002655  0.878388  0.299546
    Zn  Zn5   0.953720  0.503365  0.044174  1.308299
    Zn  Zn6   0.047518  0.503966  0.956000  1.308052
    Zn  Zn7   0.453720  0.003365  0.044174  1.308324
    Zn  Zn8   0.547518  0.003966  0.956000  1.308045
    O   O29   0.964354  0.441497  0.033562  -0.684205
    O   O30   0.035886  0.442259  0.968964  -0.705094
    O   O31   0.464354  0.941497  0.033562  -0.684178
    O   O32   0.535886  0.942259  0.968964  -0.705073
    C   C99   0.000679  0.340861  0.001455  -0.175231
    C   C100  0.500679  0.840861  0.001455  -0.175213
    C   C101  0.000295  0.422647  0.001365  0.798288
    C   C102  0.500295  0.922647  0.001365  0.798285
    O   O33   0.498154  0.441967  0.946295  -0.673052
    O   O34   0.501195  0.441880  0.050665  -0.688100
    O   O35   0.998154  0.941967  0.946295  -0.673029
    O   O36   0.001195  0.941880  0.050665  -0.688072
    C   C103  0.499758  0.422683  0.998343  0.732816
    C   C104  0.999758  0.922683  0.998343  0.732797
    O   O37   0.560585  0.503041  0.888339  -0.682661
    O   O38   0.438397  0.504223  0.112539  -0.686195
    O   O39   0.060585  0.003041  0.888339  -0.682662
    O   O40   0.938397  0.004223  0.112539  -0.686194
    O   O41   0.561837  0.504531  0.994450  -0.662905
    O   O42   0.437140  0.502613  0.006441  -0.662584
    O   O43   0.061837  0.004531  0.994450  -0.662907
    O   O44   0.937140  0.002613  0.006441  -0.662582
    C   C105  0.580477  0.503885  0.922432  0.740621
    C   C106  0.418500  0.503418  0.078452  0.744482
    C   C107  0.080477  0.003885  0.922432  0.740630
    C   C108  0.918500  0.003418  0.078452  0.744469
    Zn  Zn9   0.498850  0.503953  0.930678  1.318519
    Zn  Zn10  0.500127  0.503439  0.070261  1.321972
    Zn  Zn11  0.998850  0.003953  0.930678  1.318500
    Zn  Zn12  0.000127  0.003439  0.070261  1.321952
    O   O45   0.497850  0.565512  0.950219  -0.693021
    O   O46   0.500776  0.565422  0.054686  -0.680326
    O   O47   0.997850  0.065512  0.950219  -0.693025
    O   O48   0.000776  0.065422  0.054686  -0.680326
    C   C109  0.499244  0.584708  0.002579  0.749590
    C   C110  0.999244  0.084708  0.002579  0.749610
    H   H53   0.045302  0.715513  0.883050  0.148219
    H   H54   0.954836  0.715621  0.113827  0.149205
    H   H55   0.545302  0.215513  0.883050  0.148220
    H   H56   0.454836  0.215621  0.113827  0.149208
    C   C111  0.525293  0.275032  0.933582  -0.206132
    C   C112  0.474575  0.275091  0.062963  -0.206343
    C   C113  0.025293  0.775032  0.933582  -0.206133
    C   C114  0.974575  0.775091  0.062963  -0.206346
    H   H57   0.545151  0.291770  0.882849  0.155090
    H   H58   0.454686  0.291876  0.113626  0.154990
    H   H59   0.045151  0.791770  0.882849  0.155091
    H   H60   0.954686  0.791876  0.113626  0.154991
    C   C115  0.499904  0.296420  0.998224  0.337033
    C   C116  0.999904  0.796420  0.998224  0.337023
    C   C117  0.974655  0.732358  0.063075  -0.188277
    C   C118  0.025373  0.732299  0.933694  -0.185264
    C   C119  0.474655  0.232358  0.063075  -0.188283
    C   C120  0.525373  0.232299  0.933694  -0.185267
    C   C121  0.000062  0.710970  0.998444  0.279972
    C   C122  0.500062  0.210970  0.998444  0.279968
    C   C123  0.499878  0.340881  0.998160  -0.238285
    C   C124  0.999878  0.840881  0.998160  -0.238267
    C   C125  0.000265  0.666510  0.998606  -0.136253
    C   C126  0.500265  0.166510  0.998606  -0.136239
    C   C127  0.000516  0.629172  0.998725  -0.180689
    C   C128  0.500516  0.129172  0.998725  -0.180710
    C   C129  0.499841  0.378222  0.998188  -0.032451
    C   C130  0.999841  0.878222  0.998188  -0.032464
    H   H61   0.046464  0.291493  0.028422  0.159633
    H   H62   0.954397  0.292131  0.974954  0.159767
    H   H63   0.546464  0.791493  0.028422  0.159635
    H   H64   0.454397  0.792131  0.974954  0.159769
    C   C131  0.525828  0.732137  0.017048  -0.184723
    C   C132  0.474212  0.732498  0.987073  -0.188616
    C   C133  0.025828  0.232137  0.017048  -0.184726
    C   C134  0.974212  0.232498  0.987073  -0.188622
    H   H65   0.545937  0.715231  0.028902  0.150280
    H   H66   0.453870  0.715880  0.975434  0.152835
    H   H67   0.045937  0.215231  0.028902  0.150281
    H   H68   0.953870  0.215880  0.975434  0.152836
    C   C135  0.499863  0.710962  0.002213  0.327055
    C   C136  0.999863  0.210962  0.002213  0.327047
    N   N1    0.792841  0.433100  0.751337  -0.685967
    C   C137  0.795640  0.427883  0.810679  0.825244
    O   O49   0.773021  0.447153  0.867332  -0.588043
    C   C138  0.827020  0.398864  0.806591  -0.465955
    H   H69   0.818744  0.424366  0.701939  0.324901
    H   H70   0.858478  0.409021  0.762412  0.128916
    H   H71   0.821176  0.367173  0.794282  0.096438
    H   H72   0.824768  0.398756  0.860153  0.149813
    N   N2    0.206007  0.435441  0.236308  -0.714543
    C   C139  0.202920  0.436059  0.176786  0.869589
    O   O50   0.225572  0.458216  0.124238  -0.590554
    C   C140  0.171149  0.410032  0.175750  -0.500102
    H   H73   0.180111  0.424676  0.283836  0.325563
    H   H74   0.139839  0.419069  0.222078  0.139570
    H   H75   0.176744  0.376927  0.181410  0.099887
    H   H76   0.173196  0.414716  0.122845  0.151217
    N   N3    0.292841  0.933100  0.751337  -0.685963
    C   C141  0.295640  0.927883  0.810679  0.825255
    O   O51   0.273021  0.947153  0.867332  -0.588049
    C   C142  0.327020  0.898864  0.806591  -0.465955
    H   H77   0.318744  0.924366  0.701939  0.324896
    H   H78   0.358478  0.909021  0.762412  0.128917
    H   H79   0.321176  0.867173  0.794282  0.096434
    H   H80   0.324768  0.898756  0.860153  0.149815
    N   N4    0.706007  0.935441  0.236308  -0.714533
    C   C143  0.702920  0.936059  0.176786  0.869598
    O   O52   0.725572  0.958216  0.124238  -0.590560
    C   C144  0.671149  0.910032  0.175750  -0.500103
    H   H81   0.680111  0.924676  0.283836  0.325558
    H   H82   0.639839  0.919069  0.222078  0.139569
    H   H83   0.676744  0.876927  0.181410  0.099884
    H   H84   0.673196  0.914716  0.122845  0.151220
    N   N5    0.066460  0.535159  0.253334  -0.520812
    C   C145  0.108183  0.531642  0.210594  0.752370
    O   O53   0.124394  0.499058  0.179841  -0.557227
    C   C146  0.135021  0.567606  0.201455  -0.632768
    H   H85   0.055307  0.564979  0.262749  0.271494
    H   H86   0.116040  0.594445  0.234597  0.124785
    H   H87   0.153870  0.576519  0.142452  0.168103
    H   H88   0.155926  0.558548  0.219976  0.208194
    N   N6    0.928321  0.518634  0.753394  -0.584778
    C   C147  0.888108  0.508167  0.800064  0.780325
    O   O54   0.878693  0.474018  0.828805  -0.562068
    C   C148  0.854637  0.538315  0.816688  -0.668546
    H   H89   0.934007  0.549918  0.745316  0.283628
    H   H90   0.867745  0.566980  0.783630  0.131612
    H   H91   0.837292  0.546208  0.876168  0.176115
    H   H92   0.833124  0.523971  0.803431  0.230667
    N   N7    0.566460  0.035159  0.253334  -0.520781
    C   C149  0.608183  0.031642  0.210594  0.752349
    O   O55   0.624394  0.999058  0.179841  -0.557210
    C   C150  0.635021  0.067606  0.201455  -0.632775
    H   H93   0.555307  0.064979  0.262749  0.271484
    H   H94   0.616040  0.094445  0.234597  0.124790
    H   H95   0.653870  0.076519  0.142452  0.168103
    H   H96   0.655926  0.058548  0.219977  0.208191
    N   N8    0.428321  0.018634  0.753394  -0.584724
    C   C151  0.388108  0.008167  0.800064  0.780306
    O   O56   0.378693  0.974018  0.828805  -0.562054
    C   C152  0.354637  0.038315  0.816688  -0.668560
    H   H97   0.434007  0.049918  0.745316  0.283616
    H   H98   0.367745  0.066980  0.783630  0.131617
    H   H99   0.337292  0.046208  0.876168  0.176118
    H   H100  0.333124  0.023971  0.803431  0.230668
    N   N9    0.948435  0.444890  0.231262  -0.666880
    C   C153  0.908553  0.457486  0.276062  0.765264
    O   O57   0.899094  0.485627  0.320008  -0.614682
    C   C154  0.875166  0.436592  0.271799  -0.512390
    H   H101  0.954027  0.419318  0.198614  0.303379
    H   H102  0.888090  0.411960  0.229190  0.103307
    H   H103  0.859221  0.459869  0.257686  0.158620
    H   H104  0.852491  0.422649  0.326094  0.135826
    N   N10   0.062375  0.453178  0.758515  -0.661935
    C   C155  0.099545  0.472276  0.715695  0.751640
    O   O58   0.103657  0.502354  0.678189  -0.607685
    C   C156  0.136503  0.456480  0.714482  -0.502371
    H   H105  0.061620  0.426384  0.785118  0.308480
    H   H106  0.128329  0.429431  0.751607  0.100555
    H   H107  0.148866  0.481468  0.732746  0.157115
    H   H108  0.160628  0.447171  0.657452  0.133171
    N   N11   0.448435  0.944890  0.231262  -0.666896
    C   C157  0.408553  0.957486  0.276062  0.765286
    O   O59   0.399094  0.985627  0.320008  -0.614693
    C   C158  0.375166  0.936592  0.271799  -0.512403
    H   H109  0.454027  0.919318  0.198614  0.303377
    H   H110  0.388090  0.911960  0.229190  0.103307
    H   H111  0.359221  0.959869  0.257686  0.158625
    H   H112  0.352491  0.922649  0.326094  0.135829
    N   N12   0.562375  0.953178  0.758515  -0.661913
    C   C159  0.599545  0.972276  0.715695  0.751605
    O   O60   0.603657  0.002354  0.678189  -0.607665
    C   C160  0.636503  0.956480  0.714482  -0.502373
    H   H113  0.561620  0.926384  0.785118  0.308475
    H   H114  0.628329  0.929432  0.751607  0.100560
    H   H115  0.648866  0.981468  0.732746  0.157118
    H   H116  0.660628  0.947172  0.657452  0.133169
