# Generated by REPEAT Assigner based on pymatgen
data_DB0-m15_o15_o48_f0_fsc
_audit_creation_date              2022-05-24
_audit_creation_method            REPEAT_Assigner
_cell_length_a                    8.673629
_cell_length_b                    9.421134
_cell_length_c                    10.953808
_cell_angle_alpha                 90.000000
_cell_angle_beta                  90.000000
_cell_angle_gamma                 90.000000
_cell_volume                      895.095018
_symmetry_space_group_name_H-M    P1
_symmetry_Int_Tables_number       1
loop_
    _symmetry_equiv_pos_site_id
    _symmetry_equiv_pos_as_xyz
    1  x,y,z
loop_
    _atom_site_type_symbol
    _atom_site_label
    _atom_site_fract_x
    _atom_site_fract_y
    _atom_site_fract_z
    _atom_type_partial_charge
    Co  Co1  0.997587  0.858233  0.998504  0.714424
    Co  Co2  0.002413  0.141767  0.001496  0.714412
    O   O1   0.833159  0.884041  0.869069  -0.585472
    O   O2   0.166841  0.115959  0.130931  -0.585471
    O   O3   0.178581  0.119432  0.881335  -0.551198
    O   O4   0.821419  0.880568  0.118665  -0.551200
    O   O5   0.826997  0.121774  0.123159  -0.547482
    O   O6   0.173003  0.878226  0.876841  -0.547484
    O   O7   0.162538  0.874369  0.127757  -0.576558
    O   O8   0.837462  0.125631  0.872243  -0.576555
    C   C1   0.492560  0.987377  0.186335  -0.099637
    C   C2   0.507440  0.012623  0.813665  -0.099649
    C   C3   0.632416  0.000685  0.243197  -0.170287
    C   C4   0.367584  0.999315  0.756803  -0.170281
    C   C5   0.355959  0.989496  0.248851  -0.131715
    C   C6   0.644041  0.010504  0.751149  -0.131707
    C   C7   0.635242  0.009055  0.370230  0.104444
    C   C8   0.364758  0.990945  0.629770  0.104443
    C   C9   0.358542  0.989214  0.375605  0.106785
    C   C10  0.641458  0.010786  0.624395  0.106782
    C   C11  0.772551  0.025120  0.431980  -0.137544
    C   C12  0.227449  0.974880  0.568020  -0.137547
    C   C13  0.224259  0.974815  0.441983  -0.221243
    C   C14  0.775741  0.025185  0.558017  -0.221245
    C   C15  0.784918  0.006687  0.825947  0.777253
    C   C16  0.215082  0.993313  0.174053  0.777258
    C   C17  0.228951  0.998942  0.835921  0.752610
    C   C18  0.771049  0.001058  0.164079  0.752612
    C   C19  0.498493  0.999317  0.436416  0.037164
    C   C20  0.501507  0.000683  0.563584  0.037166
    H   H1   0.938536  0.371074  0.409401  0.104968
    H   H2   0.061464  0.628926  0.590599  0.104969
    H   H3   0.932172  0.630919  0.408261  0.083798
    H   H4   0.067828  0.369081  0.591739  0.083796
    C   C21  0.026615  0.355263  0.782193  -0.129838
    C   C22  0.973385  0.644737  0.217807  -0.129831
    C   C23  0.019514  0.642959  0.780949  -0.151920
    C   C24  0.980486  0.357041  0.219051  -0.151924
    C   C25  0.050246  0.427140  0.675451  -0.079165
    C   C26  0.949754  0.572860  0.324549  -0.079172
    C   C27  0.046744  0.571153  0.674794  -0.098484
    C   C28  0.953256  0.428847  0.325206  -0.098479
    C   C29  0.009683  0.573800  0.893252  0.127327
    C   C30  0.990317  0.426200  0.106748  0.127321
    C   C31  0.013779  0.425103  0.894220  0.093503
    C   C32  0.986221  0.574897  0.105780  0.093509
    H   H5   0.878052  0.039749  0.381942  0.127585
    H   H6   0.121948  0.960251  0.618058  0.127586
    H   H7   0.116255  0.959141  0.395707  0.138909
    H   H8   0.883745  0.040859  0.604293  0.138910
    N   N1   0.995610  0.649107  0.998887  -0.042408
    N   N2   0.004390  0.350893  0.001113  -0.042401
    H   H9   0.488781  0.975413  0.090020  0.144765
    H   H10  0.511219  0.024587  0.909980  0.144772
    H   H11  0.018627  0.244242  0.769847  0.100701
    H   H12  0.981373  0.755758  0.230153  0.100696
    H   H13  0.006011  0.753590  0.768706  0.108714
    H   H14  0.993989  0.246410  0.231294  0.108716
