# Generated by REPEAT Assigner based on pymatgen
data_DB0-m2_o58_o21_tfo
_audit_creation_date              2022-05-24
_audit_creation_method            REPEAT_Assigner
_cell_length_a                    28.237134
_cell_length_b                    27.972525
_cell_length_c                    21.245743
_cell_angle_alpha                 65.745512
_cell_angle_beta                  51.708274
_cell_angle_gamma                 94.912771
_cell_volume                      10564.624059
_symmetry_space_group_name_H-M    P1
_symmetry_Int_Tables_number       1
loop_
    _symmetry_equiv_pos_site_id
    _symmetry_equiv_pos_as_xyz
    1  x,y,z
loop_
    _atom_site_type_symbol
    _atom_site_label
    _atom_site_fract_x
    _atom_site_fract_y
    _atom_site_fract_z
    _atom_type_partial_charge
    O   O1   0.569241  0.500424  0.364154  -0.576380
    O   O2   0.490125  0.412965  0.520408  -0.574420
    C   C1   0.539275  0.441961  0.423256  0.588107
    O   O3   0.608719  0.549036  0.423550  -0.626812
    O   O4   0.529327  0.461445  0.580129  -0.637523
    C   C2   0.591547  0.506743  0.502788  0.850168
    Cu  Cu1  0.546962  0.551150  0.408899  1.012531
    Cu  Cu2  0.455612  0.450300  0.589071  1.020334
    O   O5   0.512796  0.588506  0.477584  -0.576390
    O   O6   0.433525  0.501027  0.633823  -0.573508
    O   O7   0.473171  0.540078  0.417944  -0.633960
    O   O8   0.393839  0.452411  0.574403  -0.637223
    C   C3   0.463763  0.559507  0.574744  0.587497
    C   C4   0.410954  0.494766  0.495255  0.876950
    C   C5   0.308087  0.688046  0.882229  0.842963
    C   C6   0.389223  0.778126  0.722446  0.821233
    C   C7   0.380083  0.688082  0.742430  0.841551
    N   N1   0.338073  0.747952  0.822123  -0.765980
    N   N2   0.410133  0.747988  0.683006  -0.766086
    N   N3   0.329213  0.658404  0.841915  -0.775522
    C   C8   0.232206  0.685078  0.033734  -0.043284
    C   C9   0.181215  0.653971  0.136052  -0.134462
    C   C10  0.150282  0.592447  0.197355  0.071056
    C   C11  0.170924  0.562447  0.154941  -0.135144
    C   C12  0.221947  0.593484  0.052722  -0.054963
    C   C13  0.253082  0.655074  0.991224  -0.151000
    H   H1   0.166017  0.678534  0.167240  0.121381
    H   H2   0.147629  0.514390  0.201038  0.122882
    H   H3   0.255484  0.733136  0.987887  0.100251
    H   H4   0.236948  0.568616  0.022106  0.108719
    C   C14  0.370918  0.593555  0.760229  -0.072378
    C   C15  0.391017  0.562561  0.719763  -0.118598
    C   C16  0.442610  0.592628  0.617654  0.056874
    C   C17  0.473999  0.654176  0.556510  -0.126100
    C   C18  0.453943  0.685237  0.596908  -0.059435
    C   C19  0.402157  0.655158  0.699135  -0.136025
    H   H5   0.365636  0.514477  0.769292  0.117697
    H   H6   0.514495  0.678792  0.476443  0.121915
    H   H7   0.330310  0.568652  0.840335  0.112746
    H   H8   0.479378  0.733306  0.547094  0.103723
    C   C20  0.391834  0.874056  0.693667  -0.086172
    C   C21  0.422312  0.935440  0.631814  -0.127676
    C   C22  0.484233  0.967649  0.532377  0.076193
    C   C23  0.514621  0.936900  0.496184  -0.126681
    C   C24  0.483545  0.875464  0.557640  -0.087935
    C   C25  0.422049  0.843565  0.656955  -0.121903
    H   H9   0.395953  0.957521  0.662369  0.106539
    H   H10  0.563797  0.960349  0.419919  0.105653
    H   H11  0.343329  0.850330  0.770646  0.111277
    H   H12  0.508893  0.852978  0.527012  0.112808
    O   O9   0.922067  0.412343  0.652537  -0.568047
    O   O10  0.933254  0.499824  0.634918  -0.567931
    C   C26  0.903374  0.441308  0.692146  0.564823
    O   O11  0.062837  0.459883  0.509445  -0.636338
    O   O12  0.074091  0.547537  0.491728  -0.633154
    C   C27  0.091245  0.504855  0.501032  0.908799
    Cu  Cu3  0.993562  0.449867  0.509323  1.010474
    Cu  Cu4  0.006413  0.550702  0.489101  1.017185
    O   O13  0.066524  0.500755  0.363474  -0.568639
    O   O14  0.077557  0.588214  0.345909  -0.566837
    O   O15  0.925993  0.453070  0.506542  -0.624807
    O   O16  0.937118  0.540661  0.489053  -0.640716
    C   C28  0.096128  0.559260  0.306270  0.565427
    C   C29  0.908801  0.495723  0.497325  0.890970
    C   C30  0.623285  0.313236  0.255887  0.841157
    C   C31  0.691203  0.312825  0.116132  0.840772
    C   C32  0.612222  0.222984  0.276041  0.823235
    N   N4   0.672084  0.342689  0.156372  -0.775947
    N   N5   0.660877  0.252898  0.176332  -0.766283
    N   N6   0.593717  0.253371  0.315416  -0.765986
    C   C33  0.632579  0.407831  0.237917  -0.071083
    C   C34  0.612215  0.438850  0.278299  -0.119816
    C   C35  0.560983  0.408852  0.380412  0.057629
    C   C36  0.530523  0.347375  0.441647  -0.127211
    C   C37  0.550906  0.316297  0.401338  -0.059588
    C   C38  0.602053  0.346281  0.299102  -0.135726
    H   H13  0.636919  0.486881  0.228702  0.118540
    H   H14  0.490400  0.322815  0.521720  0.121978
    H   H15  0.672648  0.432657  0.157800  0.111713
    H   H16  0.525971  0.268268  0.451225  0.104451
    C   C39  0.541443  0.127608  0.441325  -0.085277
    C   C40  0.511122  0.066235  0.502823  -0.127470
    C   C41  0.517231  0.033468  0.466254  0.073457
    C   C42  0.554942  0.063665  0.366432  -0.123259
    C   C43  0.586245  0.125116  0.304564  -0.090459
    C   C44  0.579487  0.157556  0.341622  -0.122487
    H   H17  0.483844  0.044604  0.579440  0.106488
    H   H18  0.559389  0.039766  0.335539  0.105433
    H   H19  0.535951  0.151743  0.472247  0.111097
    H   H20  0.614913  0.147192  0.227257  0.112779
    C   C45  0.777079  0.407271  0.945521  -0.058276
    C   C46  0.828343  0.438239  0.843327  -0.134197
    C   C47  0.848669  0.408146  0.801043  0.073022
    C   C48  0.816868  0.346571  0.862452  -0.133261
    C   C49  0.765579  0.315525  0.964753  -0.048829
    C   C50  0.745306  0.345647  0.007134  -0.145436
    H   H21  0.852258  0.486334  0.797150  0.122312
    H   H22  0.831734  0.321931  0.831363  0.121410
    H   H23  0.762591  0.432234  0.976026  0.109853
    H   H24  0.741856  0.267440  0.010694  0.101839
    C   C51  0.360927  0.491520  0.493255  -0.266247
    C   C52  0.285532  0.511702  0.463178  -0.063423
    C   C53  0.217560  0.487632  0.531338  -0.094848
    C   C54  0.184236  0.503837  0.501485  0.068019
    C   C55  0.318855  0.495496  0.493032  0.021192
    C   C56  0.141777  0.507398  0.501986  -0.297759
    H   H25  0.187224  0.455770  0.609468  0.167819
    H   H26  0.315867  0.543564  0.385048  0.156520
    C   C57  0.858346  0.493194  0.496263  -0.266841
    C   C58  0.751252  0.490334  0.533489  -0.087644
    C   C59  0.746444  0.509342  0.470087  -0.032792
    C   C60  0.680544  0.497174  0.506514  -0.025765
    C   C61  0.817153  0.502500  0.497063  0.036977
    C   C62  0.641497  0.510075  0.504896  -0.216327
    H   H27  0.792201  0.534015  0.390918  0.150126
    H   H28  0.705495  0.465661  0.612659  0.167720
