# Generated by REPEAT Assigner based on pymatgen
data_DB0-m29_o97_o51_f0_pts.sym.4
_audit_creation_date              2022-05-24
_audit_creation_method            REPEAT_Assigner
_cell_length_a                    17.783320
_cell_length_b                    9.423523
_cell_length_c                    17.293113
_cell_angle_alpha                 89.240377
_cell_angle_beta                  78.509113
_cell_angle_gamma                 106.862654
_cell_volume                      2710.001629
_symmetry_space_group_name_H-M    P1
_symmetry_Int_Tables_number       1
loop_
    _symmetry_equiv_pos_site_id
    _symmetry_equiv_pos_as_xyz
    1  x,y,z
loop_
    _atom_site_type_symbol
    _atom_site_label
    _atom_site_fract_x
    _atom_site_fract_y
    _atom_site_fract_z
    _atom_type_partial_charge
    C   C1   0.233404  0.060233  0.131596  -0.268941
    C   C2   0.105436  0.098513  0.163933  -0.174988
    C   C3   0.292273  0.022043  0.079579  0.049353
    C   C4   0.278731  0.976027  0.006078  -0.065732
    C   C5   0.161496  0.054236  0.111819  0.234283
    C   C6   0.145246  0.002526  0.041126  -0.002590
    C   C7   0.202465  0.956324  0.990051  0.075991
    C   C8   0.181405  0.886681  0.924564  -0.102682
    C   C9   0.034021  0.096911  0.144889  -0.176819
    C   C10  0.017249  0.051683  0.072144  0.062949
    C   C11  0.072499  0.999116  0.021298  0.011524
    C   C12  0.055599  0.943313  0.950803  0.047272
    C   C13  0.109247  0.879464  0.905461  -0.135009
    C   C14  0.891616  0.116245  0.096189  -0.138899
    C   C15  0.945780  0.053947  0.050420  0.053335
    C   C16  0.929086  0.998775  0.979713  0.002992
    C   C17  0.984401  0.946432  0.928854  0.066454
    C   C18  0.968089  0.902503  0.855783  -0.173518
    C   C19  0.819518  0.109008  0.076953  -0.093459
    C   C20  0.799055  0.041214  0.010815  0.057347
    C   C21  0.856507  0.995822  0.959640  0.005987
    C   C22  0.840651  0.945384  0.888583  0.234570
    C   C23  0.723084  0.022495  0.994337  -0.045508
    C   C24  0.709965  0.978047  0.920532  0.040056
    C   C25  0.896915  0.901678  0.836417  -0.178401
    C   C26  0.768961  0.940208  0.868498  -0.265447
    H   H1   0.245359  0.100822  0.187442  0.156590
    H   H2   0.117135  0.135437  0.220476  0.145935
    H   H3   0.218616  0.829727  0.888615  0.123650
    H   H4   0.992852  0.129182  0.190334  0.149560
    H   H5   0.097170  0.818333  0.855080  0.124468
    H   H6   0.903035  0.175857  0.147171  0.125053
    H   H7   0.009637  0.871220  0.810273  0.148023
    H   H8   0.781870  0.164597  0.113372  0.123060
    H   H9   0.885579  0.865896  0.779584  0.147042
    H   H10  0.757300  0.900642  0.812383  0.153658
    O   O1   0.590060  0.048798  0.043070  -0.524699
    C   C27  0.654769  0.024741  0.058501  0.575720
    O   O2   0.512796  0.739825  0.129474  -0.500510
    O   O3   0.654072  0.984090  0.131577  -0.507852
    O   O4   0.498168  0.883900  0.231737  -0.547179
    C   C28  0.504421  0.756643  0.205622  0.587805
    Fe  Fe1  0.507544  0.024573  0.141709  1.466440
    O   O5   0.400113  0.941704  0.113074  -0.624263
    O   O6   0.408100  0.186668  0.115186  -0.513325
    C   C29  0.370521  0.051007  0.101094  0.679366
    O   O7   0.538344  0.230004  0.179074  -0.642579
    O   O8   0.446932  0.113779  0.289672  -0.522620
    C   C30  0.496003  0.235856  0.249624  0.631029
    O   O9   0.463860  0.773186  0.820709  -0.640875
    O   O10  0.554949  0.889415  0.709901  -0.520724
    C   C31  0.505766  0.767357  0.749874  0.617926
    O   O11  0.602635  0.060051  0.887155  -0.636145
    O   O12  0.594052  0.814878  0.884383  -0.519162
    C   C32  0.631877  0.950142  0.898842  0.691825
    O   O13  0.346359  0.009313  0.868315  -0.520724
    O   O14  0.504885  0.119847  0.768587  -0.502139
    C   C33  0.492689  0.244222  0.793356  0.549285
    O   O15  0.412640  0.954094  0.957184  -0.531104
    C   C34  0.346836  0.973130  0.941722  0.603691
    O   O16  0.480112  0.260931  0.869621  -0.498864
    Fe  Fe2  0.495108  0.978430  0.858421  1.459997
    C   C35  0.495859  0.367418  0.737485  0.140792
    C   C36  0.501750  0.354409  0.656302  -0.131584
    C   C37  0.507918  0.476741  0.606666  0.304197
    C   C38  0.510956  0.612032  0.637670  -0.362637
    H   H11  0.520475  0.710305  0.599770  0.205334
    C   C39  0.501827  0.623581  0.717830  0.168469
    C   C40  0.493183  0.501742  0.767552  -0.299655
    C   C41  0.514055  0.463322  0.520891  -0.202447
    C   C42  0.486451  0.546224  0.476263  -0.201391
    C   C43  0.495099  0.647748  0.340808  -0.284166
    H   H12  0.493458  0.752328  0.364880  0.182135
    C   C44  0.502040  0.633353  0.260162  0.086689
    C   C45  0.506509  0.499993  0.230354  -0.234565
    C   C46  0.498779  0.379744  0.280791  0.115633
    C   C47  0.489773  0.393136  0.360836  -0.238503
    H   H13  0.481119  0.295784  0.399090  0.127381
    C   C48  0.491580  0.528833  0.391026  0.278584
    H   H14  0.488428  0.515044  0.830107  0.238311
    H   H15  0.511876  0.486342  0.167765  0.214221
    H   H16  0.543248  0.385342  0.493418  0.119936
    H   H17  0.459299  0.628329  0.502083  0.133489
    Cl  Cl1  0.496719  0.183075  0.615302  0.012297
