# Generated by REPEAT Assigner based on pymatgen
data_DB0-m3_o11_o27_f0_nbo.sym.100
_audit_creation_date              2022-05-24
_audit_creation_method            REPEAT_Assigner
_cell_length_a                    31.517198
_cell_length_b                    31.250458
_cell_length_c                    24.993601
_cell_angle_alpha                 90.000000
_cell_angle_beta                  129.072191
_cell_angle_gamma                 90.000000
_cell_volume                      19111.365845
_symmetry_space_group_name_H-M    P1
_symmetry_Int_Tables_number       1
loop_
    _symmetry_equiv_pos_site_id
    _symmetry_equiv_pos_as_xyz
    1  x,y,z
loop_
    _atom_site_type_symbol
    _atom_site_label
    _atom_site_fract_x
    _atom_site_fract_y
    _atom_site_fract_z
    _atom_type_partial_charge
    C   C1    0.798931  0.823043  0.495020  0.670496
    C   C2    0.300261  0.692347  0.495990  0.509283
    C   C3    0.853101  0.161764  0.465204  -0.377332
    C   C4    0.673271  0.656022  0.509310  0.443002
    C   C5    0.326730  0.656022  0.490691  0.443017
    C   C6    0.173271  0.156022  0.509310  0.443009
    C   C7    0.826730  0.156022  0.490691  0.443022
    C   C8    0.446772  0.567921  0.509796  0.725062
    C   C9    0.553229  0.567921  0.490205  0.725108
    C   C10   0.946772  0.067921  0.509796  0.725063
    C   C11   0.053229  0.067921  0.490205  0.725108
    C   C12   0.946837  0.948459  0.509810  0.594530
    C   C13   0.199740  0.192347  0.504011  0.509267
    C   C14   0.053163  0.948460  0.490191  0.594559
    C   C15   0.446837  0.448459  0.509810  0.594531
    C   C16   0.553163  0.448460  0.490191  0.594559
    C   C17   0.619654  0.864215  0.276030  0.807714
    C   C18   0.616994  0.901752  0.310433  -0.518096
    C   C19   0.380346  0.864215  0.723970  0.807699
    C   C20   0.383006  0.901753  0.689567  -0.518048
    C   C21   0.119654  0.364215  0.276030  0.807706
    C   C22   0.116994  0.401752  0.310433  -0.518094
    C   C23   0.880346  0.364215  0.723970  0.807693
    C   C24   0.800261  0.192347  0.495990  0.509270
    C   C25   0.883006  0.401753  0.689567  -0.518047
    C   C26   0.829893  0.817292  0.839435  0.844671
    C   C27   0.805047  0.826886  0.872679  -0.536027
    C   C28   0.170106  0.817291  0.160564  0.844588
    C   C29   0.194952  0.826884  0.127319  -0.535827
    C   C30   0.329893  0.317292  0.839435  0.844672
    C   C31   0.305047  0.326886  0.872679  -0.536030
    C   C32   0.670106  0.317291  0.160564  0.844590
    C   C33   0.694952  0.326884  0.127319  -0.535833
    C   C34   0.012957  0.698181  0.835001  0.851151
    C   C35   0.818308  0.759165  0.634471  0.708709
    C   C36   0.071339  0.690859  0.867487  -0.551717
    C   C37   0.987043  0.698181  0.165001  0.851174
    C   C38   0.928660  0.690859  0.132514  -0.551737
    C   C39   0.512957  0.198181  0.835001  0.851150
    C   C40   0.571339  0.190859  0.867487  -0.551704
    C   C41   0.487043  0.198181  0.165001  0.851173
    C   C42   0.428660  0.190859  0.132514  -0.551724
    C   C43   0.935989  0.780245  0.683005  0.784987
    C   C44   0.957698  0.774654  0.645063  -0.494829
    C   C45   0.064011  0.780245  0.316997  0.784967
    C   C46   0.181692  0.759164  0.365530  0.708762
    C   C47   0.042302  0.774654  0.354939  -0.494823
    C   C48   0.435989  0.280245  0.683005  0.784992
    C   C49   0.457698  0.274654  0.645063  -0.494836
    C   C50   0.564011  0.280245  0.316997  0.784971
    C   C51   0.542302  0.274654  0.354939  -0.494826
    C   C52   0.705393  0.584830  0.536481  0.791291
    C   C53   0.702953  0.540817  0.511912  -0.483789
    C   C54   0.294608  0.584830  0.463521  0.791241
    C   C55   0.297048  0.540816  0.488090  -0.483770
    C   C56   0.205393  0.084830  0.536481  0.791294
    C   C57   0.318308  0.259165  0.634471  0.708717
    C   C58   0.202953  0.040817  0.511912  -0.483793
    C   C59   0.794608  0.084830  0.463521  0.791244
    C   C60   0.797048  0.040816  0.488090  -0.483774
    C   C61   0.496504  0.831050  0.156803  0.850558
    C   C62   0.461456  0.869651  0.122875  -0.529080
    C   C63   0.503496  0.831051  0.843197  0.850550
    C   C64   0.538544  0.869652  0.877125  -0.529086
    C   C65   0.996504  0.331050  0.156803  0.850546
    C   C66   0.961456  0.369651  0.122875  -0.529070
    C   C67   0.003496  0.331051  0.843198  0.850529
    C   C68   0.681692  0.259164  0.365530  0.708769
    C   C69   0.038544  0.369652  0.877125  -0.529074
    C   C70   0.618894  0.648963  0.166744  0.770498
    C   C71   0.632717  0.618233  0.134302  -0.502904
    C   C72   0.381108  0.648963  0.833257  0.770488
    C   C73   0.367286  0.618233  0.865699  -0.502939
    C   C74   0.118894  0.148963  0.166744  0.770500
    C   C75   0.132717  0.118233  0.134302  -0.502900
    C   C76   0.881108  0.148963  0.833257  0.770492
    C   C77   0.867286  0.118233  0.865699  -0.502937
    C   C78   0.828145  0.878713  0.338451  0.749967
    C   C79   0.605948  0.790203  0.252091  0.080047
    C   C80   0.828673  0.879466  0.279331  -0.592865
    C   C81   0.171856  0.878714  0.661550  0.749932
    C   C82   0.171327  0.879466  0.720670  -0.592860
    C   C83   0.328145  0.378713  0.338451  0.749971
    C   C84   0.328673  0.379466  0.279331  -0.592865
    C   C85   0.671856  0.378714  0.661550  0.749938
    C   C86   0.671327  0.379466  0.720670  -0.592863
    C   C87   0.981252  0.894455  0.632471  0.823178
    C   C88   0.996251  0.896629  0.702035  -0.518294
    C   C89   0.018748  0.894455  0.367530  0.823203
    C   C90   0.394053  0.790203  0.747909  0.080112
    C   C91   0.003750  0.896629  0.297966  -0.518277
    C   C92   0.481252  0.394455  0.632471  0.823207
    C   C93   0.496251  0.396629  0.702035  -0.518318
    C   C94   0.518748  0.394455  0.367530  0.823234
    C   C95   0.503750  0.396629  0.297966  -0.518302
    C   C96   0.754986  0.745727  0.723904  0.800589
    C   C97   0.697401  0.756914  0.691175  -0.594653
    C   C98   0.245014  0.745727  0.276096  0.800538
    C   C99   0.302599  0.756913  0.308824  -0.594613
    C   C100  0.254986  0.245727  0.723904  0.800590
    C   C101  0.105948  0.290203  0.252091  0.080046
    C   C102  0.197401  0.256914  0.691175  -0.594662
    C   C103  0.745014  0.245727  0.276096  0.800540
    C   C104  0.802599  0.256913  0.308824  -0.594627
    C   C105  0.201069  0.823043  0.504982  0.670503
    C   C106  0.894053  0.290203  0.747909  0.080110
    C   C107  0.569149  0.789074  0.180474  0.465778
    C   C108  0.430852  0.789074  0.819526  0.465700
    C   C109  0.069149  0.289074  0.180475  0.465770
    C   C110  0.930852  0.289074  0.819526  0.465689
    C   C111  0.571078  0.755856  0.145181  -0.707261
    C   C112  0.428924  0.755856  0.854820  -0.707196
    C   C113  0.071078  0.255856  0.145181  -0.707256
    C   C114  0.928924  0.255856  0.854820  -0.707190
    C   C115  0.607152  0.722199  0.181825  0.568732
    C   C116  0.298931  0.323043  0.495020  0.670492
    C   C117  0.392850  0.722199  0.818177  0.568644
    C   C118  0.107152  0.222199  0.181825  0.568728
    C   C119  0.892850  0.222199  0.818177  0.568643
    C   C120  0.641993  0.722699  0.253125  -0.437795
    C   C121  0.358009  0.722698  0.746876  -0.437703
    C   C122  0.141993  0.222699  0.253125  -0.437795
    C   C123  0.858009  0.222698  0.746876  -0.437704
    C   C124  0.641218  0.756202  0.288465  0.063960
    C   C125  0.358783  0.756202  0.711536  0.063916
    C   C126  0.141218  0.256202  0.288465  0.063964
    C   C127  0.701069  0.323042  0.504982  0.670492
    C   C128  0.858783  0.256202  0.711536  0.063921
    C   C129  0.466166  0.755792  0.930856  0.967988
    C   C130  0.533836  0.755792  0.069145  0.967997
    C   C131  0.966166  0.255792  0.930856  0.967986
    C   C132  0.033836  0.255792  0.069145  0.967994
    C   C133  0.880419  0.889198  0.460209  0.016841
    C   C134  0.119582  0.889198  0.539792  0.016828
    C   C135  0.380419  0.389198  0.460209  0.016836
    C   C136  0.619582  0.389198  0.539792  0.016827
    C   C137  0.917776  0.913484  0.514799  0.229188
    C   C138  0.680104  0.756239  0.364251  0.790747
    C   C139  0.082225  0.913484  0.485203  0.229162
    C   C140  0.417776  0.413484  0.514799  0.229192
    C   C141  0.582225  0.413484  0.485203  0.229166
    C   C142  0.855274  0.853145  0.469106  -0.021851
    C   C143  0.144727  0.853145  0.530895  -0.021803
    C   C144  0.355274  0.353145  0.469106  -0.021852
    C   C145  0.644727  0.353145  0.530895  -0.021816
    C   C146  0.826570  0.859098  0.491061  -0.114399
    C   C147  0.173431  0.859097  0.508940  -0.114420
    C   C148  0.326570  0.359098  0.491061  -0.114399
    C   C149  0.319897  0.756239  0.635750  0.790668
    C   C150  0.673431  0.359097  0.508940  -0.114411
    C   C151  0.837393  0.765266  0.746301  -0.042782
    C   C152  0.162607  0.765265  0.253700  -0.042747
    C   C153  0.337393  0.265266  0.746301  -0.042763
    C   C154  0.662607  0.265265  0.253700  -0.042735
    C   C155  0.873454  0.766807  0.817839  0.500002
    C   C156  0.126546  0.766806  0.182161  0.499924
    C   C157  0.373454  0.266807  0.817839  0.500012
    C   C158  0.626546  0.266806  0.182161  0.499935
    C   C159  0.927850  0.755139  0.854108  -0.722862
    C   C160  0.180104  0.256239  0.364251  0.790744
    C   C161  0.072150  0.755138  0.145894  -0.722835
    C   C162  0.427850  0.255139  0.854108  -0.722868
    C   C163  0.572150  0.255138  0.145894  -0.722842
    C   C164  0.946250  0.745236  0.817485  0.537501
    C   C165  0.053750  0.745235  0.182516  0.537442
    C   C166  0.446250  0.245236  0.817485  0.537489
    C   C167  0.553750  0.245235  0.182516  0.537431
    C   C168  0.911721  0.749733  0.746416  -0.095091
    C   C169  0.088279  0.749732  0.253585  -0.095010
    C   C170  0.411721  0.249733  0.746416  -0.095087
    C   C171  0.819897  0.256239  0.635750  0.790666
    C   C172  0.588279  0.249732  0.253585  -0.095007
    C   C173  0.856778  0.758663  0.710361  0.110216
    C   C174  0.143222  0.758663  0.289640  0.110171
    C   C175  0.356778  0.258663  0.710361  0.110197
    C   C176  0.643222  0.258663  0.289640  0.110157
    C   C177  0.034281  0.754174  0.069391  0.997077
    C   C178  0.965719  0.754174  0.930611  0.996906
    C   C179  0.534281  0.254174  0.069391  0.997089
    C   C180  0.465719  0.254174  0.930611  0.996917
    C   C181  0.617671  0.627137  0.539302  0.018924
    C   C182  0.699740  0.692347  0.504011  0.509276
    C   C183  0.382329  0.627137  0.460698  0.018839
    C   C184  0.117671  0.127137  0.539302  0.018927
    C   C185  0.882329  0.127137  0.460698  0.018842
    C   C186  0.583125  0.601568  0.485750  -0.222396
    C   C187  0.416876  0.601568  0.514251  -0.222321
    C   C188  0.083125  0.101568  0.485750  -0.222397
    C   C189  0.916876  0.101568  0.514251  -0.222321
    C   C190  0.646899  0.661764  0.534797  -0.377343
    C   C191  0.353101  0.661764  0.465204  -0.377332
    C   C192  0.146899  0.161764  0.534797  -0.377348
    H   H1    0.671501  0.697349  0.281710  0.229728
    H   H2    0.178905  0.891097  0.497428  0.123100
    H   H3    0.364024  0.635677  0.901613  0.133074
    H   H4    0.399834  0.593656  0.894571  0.172647
    H   H5    0.327737  0.602531  0.825099  0.150042
    H   H6    0.135979  0.135678  0.098389  0.133056
    H   H7    0.100169  0.093657  0.105430  0.172637
    H   H8    0.172266  0.102532  0.174902  0.150037
    H   H9    0.864024  0.135677  0.901613  0.133072
    H   H10   0.899834  0.093656  0.894571  0.172648
    H   H11   0.827737  0.102531  0.825099  0.150040
    H   H12   0.868229  0.892570  0.296617  0.162188
    H   H13   0.321096  0.391097  0.502573  0.123100
    H   H14   0.794842  0.899959  0.237778  0.187002
    H   H15   0.823375  0.846474  0.259628  0.170861
    H   H16   0.131772  0.892570  0.703384  0.162192
    H   H17   0.205158  0.899959  0.762223  0.186993
    H   H18   0.176625  0.846474  0.740373  0.170865
    H   H19   0.368229  0.392570  0.296617  0.162187
    H   H20   0.294842  0.399959  0.237778  0.187003
    H   H21   0.323375  0.346474  0.259628  0.170861
    H   H22   0.631772  0.392570  0.703384  0.162192
    H   H23   0.705158  0.399959  0.762223  0.186995
    H   H24   0.678905  0.391097  0.497428  0.123103
    H   H25   0.676625  0.346474  0.740373  0.170865
    H   H26   0.959951  0.906148  0.696931  0.149042
    H   H27   0.029154  0.920623  0.733726  0.145845
    H   H28   0.011054  0.864940  0.727418  0.161163
    H   H29   0.040050  0.906148  0.303070  0.149043
    H   H30   0.970847  0.920623  0.266275  0.145835
    H   H31   0.988947  0.864940  0.272583  0.161148
    H   H32   0.459951  0.406148  0.696931  0.149044
    H   H33   0.529154  0.420623  0.733726  0.145850
    H   H34   0.511054  0.364940  0.727418  0.161170
    H   H35   0.621177  0.625002  0.585222  0.144415
    H   H36   0.540050  0.406148  0.303070  0.149046
    H   H37   0.470847  0.420623  0.266275  0.145840
    H   H38   0.488947  0.364940  0.272583  0.161155
    H   H39   0.685149  0.785636  0.658309  0.138699
    H   H40   0.693935  0.763742  0.731824  0.176430
    H   H41   0.670316  0.729742  0.659192  0.187615
    H   H42   0.314851  0.785635  0.341691  0.138677
    H   H43   0.306065  0.763742  0.268176  0.176428
    H   H44   0.329684  0.729741  0.340807  0.187611
    H   H45   0.185149  0.285636  0.658309  0.138701
    H   H46   0.378824  0.625001  0.414778  0.144437
    H   H47   0.193935  0.263742  0.731824  0.176433
    H   H48   0.170316  0.229742  0.659192  0.187618
    H   H49   0.814851  0.285635  0.341691  0.138681
    H   H50   0.806065  0.263742  0.268176  0.176432
    H   H51   0.829684  0.229741  0.340807  0.187616
    H   H52   0.121177  0.125002  0.585222  0.144413
    H   H53   0.878824  0.125001  0.414778  0.144436
    H   H54   0.574954  0.606750  0.437134  0.152695
    H   H55   0.425047  0.606750  0.562867  0.152677
    H   H56   0.074954  0.106750  0.437134  0.152696
    H   H57   0.328501  0.697349  0.718292  0.229692
    H   H58   0.925047  0.106750  0.562867  0.152678
    H   H59   0.648996  0.692547  0.556237  0.202437
    H   H60   0.351004  0.692546  0.443763  0.202451
    H   H61   0.148996  0.192547  0.556238  0.202437
    H   H62   0.851004  0.192546  0.443763  0.202450
    H   H63   0.646113  0.897109  0.367084  0.152297
    H   H64   0.574934  0.904861  0.293070  0.128996
    H   H65   0.627936  0.931162  0.296737  0.164347
    H   H66   0.353887  0.897109  0.632917  0.152279
    H   H67   0.425065  0.904861  0.706930  0.128987
    H   H68   0.171501  0.197349  0.281710  0.229728
    H   H69   0.372063  0.931162  0.703264  0.164338
    H   H70   0.146113  0.397109  0.367084  0.152297
    H   H71   0.074934  0.404861  0.293070  0.128998
    H   H72   0.127936  0.431162  0.296737  0.164345
    H   H73   0.853887  0.397109  0.632917  0.152280
    H   H74   0.925065  0.404861  0.706930  0.128990
    H   H75   0.872063  0.431162  0.703264  0.164337
    H   H76   0.837095  0.825592  0.929484  0.162345
    H   H77   0.772981  0.802849  0.856126  0.144317
    H   H78   0.786580  0.859282  0.857151  0.163047
    H   H79   0.828501  0.197349  0.718292  0.229692
    H   H80   0.162903  0.825591  0.070515  0.162279
    H   H81   0.227017  0.802846  0.143871  0.144280
    H   H82   0.213420  0.859281  0.142847  0.162998
    H   H83   0.337095  0.325592  0.929484  0.162346
    H   H84   0.272981  0.302849  0.856126  0.144319
    H   H85   0.286580  0.359282  0.857151  0.163047
    H   H86   0.662903  0.325591  0.070515  0.162281
    H   H87   0.727017  0.302846  0.143871  0.144282
    H   H88   0.713420  0.359281  0.142847  0.162999
    H   H89   0.096110  0.690072  0.924320  0.177076
    H   H90   0.856429  0.821804  0.451495  0.127682
    H   H91   0.085894  0.717185  0.852937  0.138979
    H   H92   0.075434  0.659930  0.849365  0.162485
    H   H93   0.903890  0.690071  0.075681  0.177082
    H   H94   0.914105  0.717186  0.147063  0.138981
    H   H95   0.924566  0.659930  0.150637  0.162489
    H   H96   0.596110  0.190072  0.924320  0.177071
    H   H97   0.585894  0.217185  0.852937  0.138978
    H   H98   0.575434  0.159930  0.849365  0.162484
    H   H99   0.403890  0.190071  0.075681  0.177078
    H   H100  0.414105  0.217186  0.147063  0.138980
    H   H101  0.143572  0.821804  0.548506  0.127663
    H   H102  0.424566  0.159930  0.150637  0.162489
    H   H103  0.966838  0.740353  0.645344  0.108770
    H   H104  0.995657  0.793629  0.670484  0.144116
    H   H105  0.926890  0.785722  0.591170  0.171509
    H   H106  0.033163  0.740353  0.354658  0.108776
    H   H107  0.004344  0.793629  0.329518  0.144122
    H   H108  0.073111  0.785722  0.408832  0.171513
    H   H109  0.466838  0.240353  0.645344  0.108771
    H   H110  0.495657  0.293629  0.670484  0.144115
    H   H111  0.426890  0.285722  0.591170  0.171512
    H   H112  0.356429  0.321804  0.451495  0.127683
    H   H113  0.533163  0.240353  0.354658  0.108777
    H   H114  0.504344  0.293629  0.329518  0.144121
    H   H115  0.573111  0.285722  0.408832  0.171513
    H   H116  0.676723  0.540856  0.454882  0.121239
    H   H117  0.685452  0.518715  0.528208  0.163650
    H   H118  0.744729  0.530138  0.534280  0.146881
    H   H119  0.323278  0.540855  0.545120  0.121240
    H   H120  0.314549  0.518715  0.471794  0.163642
    H   H121  0.255272  0.530137  0.465723  0.146880
    H   H122  0.176723  0.040856  0.454883  0.121242
    H   H123  0.643572  0.321804  0.548506  0.127665
    H   H124  0.185452  0.018715  0.528208  0.163653
    H   H125  0.244729  0.030138  0.534280  0.146881
    H   H126  0.823278  0.040855  0.545120  0.121241
    H   H127  0.814549  0.018715  0.471794  0.163645
    H   H128  0.755272  0.030137  0.465723  0.146880
    H   H129  0.470331  0.885185  0.090995  0.139786
    H   H130  0.470234  0.892396  0.162808  0.156450
    H   H131  0.417832  0.860110  0.089625  0.169105
    H   H132  0.529669  0.885186  0.909005  0.139788
    H   H133  0.529766  0.892397  0.837192  0.156452
    H   H134  0.821096  0.891097  0.502573  0.123096
    H   H135  0.582169  0.860111  0.910376  0.169106
    H   H136  0.970331  0.385185  0.090995  0.139785
    H   H137  0.970234  0.392396  0.162808  0.156449
    H   H138  0.917831  0.360110  0.089625  0.169099
    H   H139  0.029669  0.385186  0.909005  0.139781
    H   H140  0.029766  0.392397  0.837192  0.156454
    H   H141  0.082169  0.360111  0.910376  0.169102
    H   H142  0.635979  0.635678  0.098389  0.133058
    H   H143  0.600169  0.593657  0.105430  0.172637
    H   H144  0.672266  0.602532  0.174902  0.150038
    N   N1    0.516625  0.718652  0.034051  -0.336958
    N   N2    0.979840  0.754049  0.033553  -0.357152
    N   N3    0.520160  0.254038  0.966449  -0.356972
    N   N4    0.479840  0.254049  0.033553  -0.357159
    N   N5    0.053790  0.753851  0.034553  -0.320632
    N   N6    0.946210  0.753862  0.965449  -0.320461
    N   N7    0.553790  0.253851  0.034553  -0.320634
    N   N8    0.446210  0.253862  0.965449  -0.320461
    N   N9    0.483377  0.718652  0.965950  -0.336950
    N   N10   0.016625  0.218652  0.034051  -0.336959
    N   N11   0.983377  0.218652  0.965950  -0.336948
    N   N12   0.483290  0.792926  0.965953  -0.326188
    N   N13   0.516711  0.792926  0.034048  -0.326182
    N   N14   0.983290  0.292926  0.965953  -0.326192
    N   N15   0.016711  0.292926  0.034048  -0.326176
    N   N16   0.020160  0.754038  0.966449  -0.356966
    O   O1    0.813345  0.784025  0.493210  -0.709568
    O   O2    0.276456  0.731800  0.604720  -0.704376
    O   O3    0.388585  0.635762  0.793864  -0.536082
    O   O4    0.110385  0.190549  0.147783  -0.432312
    O   O5    0.111418  0.135762  0.206137  -0.536098
    O   O6    0.889617  0.190549  0.852219  -0.432286
    O   O7    0.888585  0.135762  0.793864  -0.536083
    O   O8    0.871797  0.894063  0.400218  -0.192324
    O   O9    0.787076  0.866907  0.329186  -0.501339
    O   O10   0.128203  0.894063  0.599783  -0.192312
    O   O11   0.212925  0.866907  0.670815  -0.501333
    O   O12   0.371797  0.394063  0.400218  -0.192327
    O   O13   0.223545  0.231800  0.395281  -0.704437
    O   O14   0.287076  0.366907  0.329186  -0.501340
    O   O15   0.628203  0.394063  0.599783  -0.192316
    O   O16   0.712925  0.366907  0.670815  -0.501335
    O   O17   0.930163  0.904843  0.576216  -0.421872
    O   O18   0.014995  0.882718  0.626517  -0.572315
    O   O19   0.069838  0.904843  0.423785  -0.421893
    O   O20   0.985006  0.882718  0.373484  -0.572318
    O   O21   0.430163  0.404843  0.576216  -0.421880
    O   O22   0.514995  0.382718  0.626517  -0.572324
    O   O23   0.569838  0.404843  0.423785  -0.421904
    O   O24   0.776456  0.231800  0.604720  -0.704374
    O   O25   0.485006  0.382718  0.373484  -0.572329
    O   O26   0.783189  0.769950  0.711129  -0.246949
    O   O27   0.775857  0.714123  0.760533  -0.537429
    O   O28   0.216811  0.769949  0.288872  -0.246918
    O   O29   0.224143  0.714122  0.239467  -0.537421
    O   O30   0.283189  0.269950  0.711129  -0.246958
    O   O31   0.275857  0.214123  0.760533  -0.537431
    O   O32   0.716811  0.269949  0.288872  -0.246922
    O   O33   0.724143  0.214122  0.239467  -0.537423
    O   O34   0.670103  0.780452  0.398096  -0.679682
    O   O35   0.329898  0.780452  0.601905  -0.679637
    O   O36   0.170103  0.280452  0.398096  -0.679684
    O   O37   0.829898  0.280452  0.601905  -0.679639
    O   O38   0.737941  0.683991  0.499172  -0.612437
    O   O39   0.262059  0.683990  0.500829  -0.612461
    O   O40   0.237941  0.183991  0.499172  -0.612429
    O   O41   0.186656  0.784025  0.506791  -0.709568
    O   O42   0.762059  0.183990  0.500829  -0.612450
    O   O43   0.685214  0.731359  0.505809  -0.702435
    O   O44   0.314786  0.731359  0.494192  -0.702443
    O   O45   0.185214  0.231359  0.505809  -0.702432
    O   O46   0.814786  0.231359  0.494192  -0.702436
    O   O47   0.828259  0.734741  0.600690  -0.667486
    O   O48   0.171741  0.734741  0.399311  -0.667494
    O   O49   0.328259  0.234741  0.600690  -0.667489
    O   O50   0.671741  0.234741  0.399311  -0.667496
    O   O51   0.774913  0.783612  0.603376  -0.635584
    O   O52   0.313345  0.284025  0.493210  -0.709564
    O   O53   0.225087  0.783611  0.396624  -0.635614
    O   O54   0.274913  0.283612  0.603376  -0.635584
    O   O55   0.725087  0.283611  0.396624  -0.635616
    O   O56   0.428072  0.554409  0.448704  -0.696804
    O   O57   0.571929  0.554409  0.551297  -0.696836
    O   O58   0.928072  0.054409  0.448704  -0.696806
    O   O59   0.071929  0.054409  0.551297  -0.696838
    O   O60   0.491132  0.552783  0.567501  -0.707192
    O   O61   0.508869  0.552783  0.432500  -0.707223
    O   O62   0.991132  0.052783  0.567501  -0.707186
    O   O63   0.686656  0.284025  0.506791  -0.709545
    O   O64   0.008869  0.052783  0.432500  -0.707217
    O   O65   0.928190  0.962529  0.448933  -0.688143
    O   O66   0.071811  0.962529  0.551068  -0.688133
    O   O67   0.428190  0.462529  0.448933  -0.688138
    O   O68   0.571811  0.462529  0.551068  -0.688129
    O   O69   0.991030  0.964093  0.567234  -0.606008
    O   O70   0.008971  0.964093  0.432767  -0.605981
    O   O71   0.491030  0.464093  0.567234  -0.606020
    O   O72   0.508971  0.464093  0.432767  -0.605993
    O   O73   0.608839  0.824731  0.286573  -0.318728
    O   O74   0.760450  0.831411  0.499405  -0.662390
    O   O75   0.633438  0.869122  0.240502  -0.547513
    O   O76   0.391161  0.824732  0.713427  -0.318743
    O   O77   0.366562  0.869122  0.759499  -0.547532
    O   O78   0.108839  0.324731  0.286573  -0.318728
    O   O79   0.133438  0.369122  0.240502  -0.547508
    O   O80   0.891161  0.324732  0.713427  -0.318738
    O   O81   0.866562  0.369122  0.759499  -0.547529
    O   O82   0.855707  0.779615  0.852234  -0.454673
    O   O83   0.828470  0.844068  0.802836  -0.562799
    O   O84   0.144292  0.779614  0.147766  -0.454617
    O   O85   0.239551  0.831411  0.500595  -0.662421
    O   O86   0.171531  0.844067  0.197165  -0.562785
    O   O87   0.355707  0.279615  0.852234  -0.454679
    O   O88   0.328470  0.344068  0.802836  -0.562800
    O   O89   0.644292  0.279614  0.147766  -0.454623
    O   O90   0.671531  0.344067  0.197165  -0.562785
    O   O91   0.998676  0.733576  0.851273  -0.478823
    O   O92   0.978809  0.671278  0.796372  -0.540848
    O   O93   0.001324  0.733575  0.148728  -0.478803
    O   O94   0.021191  0.671278  0.203630  -0.540858
    O   O95   0.498676  0.233576  0.851273  -0.478823
    O   O96   0.260450  0.331411  0.499406  -0.662399
    O   O97   0.478809  0.171278  0.796372  -0.540851
    O   O98   0.501324  0.233575  0.148728  -0.478802
    O   O99   0.521191  0.171278  0.203630  -0.540863
    O   O100  0.932671  0.746204  0.713406  -0.257026
    O   O101  0.922118  0.815616  0.687436  -0.538051
    O   O102  0.067329  0.746203  0.286596  -0.257064
    O   O103  0.077883  0.815616  0.312566  -0.538040
    O   O104  0.432671  0.246204  0.713406  -0.257020
    O   O105  0.422118  0.315616  0.687436  -0.538051
    O   O106  0.567329  0.246203  0.286596  -0.257058
    O   O107  0.739551  0.331411  0.500595  -0.662425
    O   O108  0.577883  0.315616  0.312566  -0.538041
    O   O109  0.678015  0.616935  0.490502  -0.410788
    O   O110  0.732635  0.591805  0.598047  -0.537142
    O   O111  0.321986  0.616935  0.509499  -0.410774
    O   O112  0.267366  0.591805  0.401954  -0.537127
    O   O113  0.178015  0.116935  0.490502  -0.410793
    O   O114  0.232635  0.091805  0.598047  -0.537143
    O   O115  0.821986  0.116935  0.509499  -0.410778
    O   O116  0.767366  0.091805  0.401954  -0.537128
    O   O117  0.531164  0.820019  0.144660  -0.437321
    O   O118  0.723545  0.731800  0.395281  -0.704439
    O   O119  0.492368  0.808836  0.193426  -0.577905
    O   O120  0.468837  0.820019  0.855341  -0.437291
    O   O121  0.507633  0.808837  0.806575  -0.577899
    O   O122  0.031164  0.320019  0.144660  -0.437311
    O   O123  0.992368  0.308836  0.193426  -0.577902
    O   O124  0.968837  0.320019  0.855341  -0.437269
    O   O125  0.007633  0.308837  0.806575  -0.577906
    O   O126  0.610385  0.690549  0.147783  -0.432314
    O   O127  0.611418  0.635762  0.206137  -0.536096
    O   O128  0.389617  0.690549  0.852219  -0.432285
    Zn  Zn1   0.785464  0.726897  0.497934  1.286763
    Zn  Zn2   0.542639  0.508435  0.577542  1.305182
    Zn  Zn3   0.957361  0.008435  0.422459  1.305159
    Zn  Zn4   0.042639  0.008435  0.577542  1.305173
    Zn  Zn5   0.214537  0.726897  0.502068  1.286760
    Zn  Zn6   0.285464  0.226897  0.497934  1.286757
    Zn  Zn7   0.714537  0.226897  0.502068  1.286751
    Zn  Zn8   0.712980  0.788486  0.500793  1.284635
    Zn  Zn9   0.287021  0.788486  0.499208  1.284642
    Zn  Zn10  0.212980  0.288486  0.500793  1.284641
    Zn  Zn11  0.787021  0.288486  0.499208  1.284644
    Zn  Zn12  0.457361  0.508435  0.422459  1.305168
