# Generated by REPEAT Assigner based on pymatgen
data_DB0-m2_o12_o14_f0_pcu.sym.26_sqe
_audit_creation_date              2022-05-24
_audit_creation_method            REPEAT_Assigner
_cell_length_a                    10.829619
_cell_length_b                    11.080903
_cell_length_c                    9.905844
_cell_angle_alpha                 111.186379
_cell_angle_beta                  99.511217
_cell_angle_gamma                 90.003640
_cell_volume                      1090.825986
_symmetry_space_group_name_H-M    P1
_symmetry_Int_Tables_number       1
loop_
    _symmetry_equiv_pos_site_id
    _symmetry_equiv_pos_as_xyz
    1  x,y,z
loop_
    _atom_site_type_symbol
    _atom_site_label
    _atom_site_fract_x
    _atom_site_fract_y
    _atom_site_fract_z
    _atom_type_partial_charge
    O   O1   0.500940  0.315640  0.581996  -0.604308
    O   O2   0.460870  0.281002  0.335643  -0.609768
    C   C1   0.480303  0.238281  0.444538  0.820300
    O   O3   0.328312  0.510704  0.626825  -0.566657
    O   O4   0.295496  0.466674  0.378426  -0.584377
    C   C2   0.254020  0.492183  0.502212  0.824936
    Cu  Cu1  0.510459  0.504519  0.651505  0.861691
    Cu  Cu2  0.473383  0.464979  0.364234  0.852277
    O   O5   0.524519  0.688450  0.680519  -0.551292
    O   O6   0.482606  0.653882  0.433029  -0.524077
    O   O7   0.688512  0.502755  0.638196  -0.563349
    O   O8   0.655705  0.460728  0.389084  -0.668947
    C   C3   0.508413  0.730666  0.570925  0.618405
    C   C4   0.730147  0.483384  0.515156  0.848099
    C   C5   0.147594  0.709457  0.698188  -0.443145
    H   H1   0.244683  0.719434  0.689836  0.175993
    C   C6   0.099315  0.811752  0.798541  0.447334
    C   C7   0.973906  0.807448  0.804987  -0.223425
    H   H2   0.935372  0.888635  0.881410  0.122067
    C   C8   0.896244  0.701888  0.711882  -0.248988
    H   H3   0.797931  0.707563  0.717518  0.181160
    C   C9   0.943999  0.596270  0.613184  0.148842
    C   C10  0.070931  0.600203  0.606219  0.203649
    C   C11  0.118886  0.497861  0.502825  -0.387371
    C   C12  0.039891  0.395310  0.403961  0.255991
    C   C13  0.913405  0.391439  0.410654  0.319716
    C   C14  0.865725  0.489809  0.516732  -0.402792
    H   H4   0.457216  0.849858  0.382682  0.181068
    C   C15  0.471018  0.098514  0.414403  -0.496780
    C   C16  0.527627  0.050808  0.513770  0.540174
    H   H5   0.565964  0.932571  0.712641  0.107098
    C   C17  0.527533  0.869314  0.601403  -0.239828
    C   C18  0.501476  0.914127  0.491513  -0.320428
    H   H6   0.410655  0.035159  0.315194  0.174319
    N   N1   0.445193  0.436895  0.149669  -0.069838
    C   C19  0.513047  0.487084  0.083241  0.320155
    H   H7   0.591574  0.611337  0.939614  0.253224
    N   N2   0.536483  0.531799  0.865920  -0.449806
    C   C20  0.479650  0.463527  0.922951  0.522952
    N   N3   0.091304  0.291424  0.299579  -0.623377
    H   H8   0.046937  0.281702  0.193979  0.257269
    H   H9   0.074627  0.206076  0.317363  0.233714
    N   N4   0.397845  0.352674  0.831862  -1.013833
    H   H10  0.449293  0.274473  0.783970  0.412947
    H   H11  0.331457  0.373115  0.756104  0.390586
    N   N5   0.633767  0.549719  0.156642  -1.014226
    H   H12  0.695238  0.480036  0.167490  0.446769
    H   H13  0.626777  0.620118  0.258155  0.413114
    N   N6   0.317844  0.414428  0.091144  -0.430889
    H   H14  0.299584  0.318505  0.018160  0.296971
    H   H15  0.287916  0.483021  0.045291  0.235371
    N   N7   0.177556  0.923700  0.893514  -0.724283
    H   H16  0.268960  0.911556  0.872604  0.305965
    H   H17  0.144537  0.002606  0.867613  0.267313
    N   N8   0.831346  0.284129  0.311591  -0.658193
    H   H18  0.862791  0.199629  0.325438  0.264965
    H   H19  0.833711  0.277205  0.204160  0.240994
    N   N9   0.622231  0.128288  0.632772  -0.690702
    H   H20  0.597067  0.134959  0.732137  0.280652
    H   H21  0.705330  0.080612  0.623070  0.284602
