# Generated by REPEAT Assigner based on pymatgen
data_DB0-m3_o10_o27_f0_pcu.sym.80_sqe
_audit_creation_date              2022-05-24
_audit_creation_method            REPEAT_Assigner
_cell_length_a                    7.746221
_cell_length_b                    8.920800
_cell_length_c                    19.252359
_cell_angle_alpha                 90.000254
_cell_angle_beta                  83.884702
_cell_angle_gamma                 91.441818
_cell_volume                      1322.391736
_symmetry_space_group_name_H-M    P1
_symmetry_Int_Tables_number       1
loop_
    _symmetry_equiv_pos_site_id
    _symmetry_equiv_pos_as_xyz
    1  x,y,z
loop_
    _atom_site_type_symbol
    _atom_site_label
    _atom_site_fract_x
    _atom_site_fract_y
    _atom_site_fract_z
    _atom_type_partial_charge
    O   O1   0.383382  0.735412  0.504246  -0.597515
    O   O2   0.616618  0.264587  0.495754  -0.597530
    O   O3   0.681025  0.709194  0.492417  -0.639496
    O   O4   0.318975  0.290805  0.507583  -0.639495
    C   C1   0.542423  0.791755  0.497813  0.752083
    C   C2   0.457577  0.208244  0.502187  0.752086
    O   O5   0.348554  0.514382  0.609533  -0.564120
    O   O6   0.651446  0.485618  0.390468  -0.564118
    O   O7   0.646150  0.487316  0.597656  -0.593858
    O   O8   0.353850  0.512684  0.402344  -0.593829
    C   C3   0.496816  0.501089  0.635901  0.638824
    C   C4   0.503184  0.498910  0.364099  0.638778
    Zn  Zn1  0.303771  0.517209  0.507762  0.990640
    Zn  Zn2  0.696229  0.482791  0.492238  0.990657
    C   C5   0.344412  0.524462  0.754362  0.029408
    C   C6   0.655588  0.475538  0.245638  0.029398
    C   C7   0.345072  0.524238  0.825984  0.126746
    C   C8   0.654928  0.475762  0.174017  0.126666
    C   C9   0.497351  0.500638  0.855082  -0.260752
    C   C10  0.502649  0.499362  0.144919  -0.260756
    C   C11  0.648932  0.477412  0.812520  0.007656
    C   C12  0.351068  0.522588  0.187480  0.007877
    H   H1   0.768321  0.458862  0.835272  0.108349
    H   H2   0.231679  0.541138  0.164728  0.108300
    C   C13  0.648342  0.477749  0.740940  -0.036473
    C   C14  0.351658  0.522250  0.259060  -0.036703
    H   H3   0.767241  0.459064  0.707708  0.099325
    H   H4   0.232759  0.540935  0.292292  0.099376
    C   C15  0.496179  0.501156  0.711754  -0.043291
    C   C16  0.503821  0.498843  0.288246  -0.043177
    N   N1   0.647513  0.477330  0.958849  -0.264670
    N   N2   0.352487  0.522670  0.041151  -0.264685
    N   N3   0.648906  0.477012  0.027454  -0.051091
    N   N4   0.351094  0.522988  0.972546  -0.051080
    C   C17  0.501396  0.499682  0.069216  0.564389
    C   C18  0.498604  0.500317  0.930784  0.564414
    C   C19  0.567810  0.955012  0.496278  -0.100228
    C   C20  0.432190  0.044988  0.503722  -0.100196
    N   N5   0.953975  0.460452  0.482301  -0.119105
    N   N6   0.046025  0.539548  0.517699  -0.119116
    C   C21  0.185989  0.550440  0.724370  0.242508
    N   N7   0.058360  0.571564  0.700133  -0.334211
    C   C22  0.814011  0.449560  0.275630  0.242511
    N   N8   0.941640  0.428436  0.299867  -0.334225
    C   C23  0.187180  0.548858  0.870156  0.170267
    N   N9   0.059875  0.568708  0.905769  -0.347773
    C   C24  0.812820  0.451141  0.129844  0.170338
    N   N10  0.940125  0.431291  0.094231  -0.347805
    C   C25  0.741525  0.017647  0.486102  0.287131
    N   N11  0.881147  0.068350  0.477829  -0.319876
    C   C26  0.258475  0.982353  0.513898  0.287098
    N   N12  0.118853  0.931649  0.522172  -0.319853
    C   C27  0.046026  0.365460  0.435932  0.588741
    N   N13  0.122923  0.286101  0.397199  -0.333639
    C   C28  0.953974  0.634540  0.564068  0.588747
    N   N14  0.877077  0.713899  0.602801  -0.333647
