data_DB0-m3_o11_o29_f0_pcu.sym.109_repeat
_audit_creation_date              2024-02-20
_audit_creation_method            'Materials Studio'
_symmetry_space_group_name_H-M    'P1'
_symmetry_Int_Tables_number       1
_symmetry_cell_setting            triclinic
loop_
_symmetry_equiv_pos_as_xyz
  x,y,z
_cell_length_a                    27.6358
_cell_length_b                    11.1231
_cell_length_c                    9.9486
_cell_angle_alpha                 89.9974
_cell_angle_beta                  89.9930
_cell_angle_gamma                 89.9936
loop_
_atom_site_label
_atom_site_type_symbol
_atom_site_fract_x
_atom_site_fract_y
_atom_site_fract_z
_atom_site_U_iso_or_equiv
_atom_site_adp_type
_atom_site_occupancy
O1     O     0.49975   0.32236   0.62060   0.00000  Uiso   1.00
O2     O     0.49950   0.32344   0.38854   0.00000  Uiso   1.00
C1     C     0.49900   0.26689   0.50470   0.00000  Uiso   1.00
O3     O     0.43038   0.50717   0.62803   0.00000  Uiso   1.00
O4     O     0.43001   0.50690   0.39566   0.00000  Uiso   1.00
C2     C     0.40761   0.51040   0.51213   0.00000  Uiso   1.00
Zn1    Zn    0.50256   0.50017   0.66297   0.00000  Uiso   1.00
Zn2    Zn    0.50197   0.50347   0.35692   0.00000  Uiso   1.00
O5     O     0.50450   0.68006   0.63131   0.00000  Uiso   1.00
O6     O     0.50397   0.68155   0.39943   0.00000  Uiso   1.00
O7     O     0.57448   0.49542   0.62396   0.00000  Uiso   1.00
O8     O     0.57411   0.49503   0.39226   0.00000  Uiso   1.00
C3     C     0.50487   0.73692   0.51573   0.00000  Uiso   1.00
C4     C     0.59696   0.49346   0.50787   0.00000  Uiso   1.00
C5     C     0.17911   0.39646   0.49629   0.00000  Uiso   1.00
O9     O     0.20454   0.29564   0.47287   0.00000  Uiso   1.00
N1     N     0.20266   0.50076   0.51731   0.00000  Uiso   1.00
C6     C     0.17780   0.60305   0.53921   0.00000  Uiso   1.00
C7     C     0.27804   0.57155   0.41961   0.00000  Uiso   1.00
C8     C     0.32798   0.57928   0.41902   0.00000  Uiso   1.00
C9     C     0.33037   0.44751   0.60953   0.00000  Uiso   1.00
C10    C     0.28056   0.44173   0.61009   0.00000  Uiso   1.00
C11    C     0.25426   0.50358   0.51491   0.00000  Uiso   1.00
C12    C     0.10290   0.49706   0.51724   0.00000  Uiso   1.00
C13    C     0.12901   0.39352   0.49523   0.00000  Uiso   1.00
C14    C     0.10494   0.28733   0.47280   0.00000  Uiso   1.00
C15    C     0.12775   0.60232   0.54000   0.00000  Uiso   1.00
C16    C     0.35453   0.51451   0.51360   0.00000  Uiso   1.00
H1     H     0.35045   0.39658   0.68335   0.00000  Uiso   1.00
H2     H     0.26224   0.38919   0.68605   0.00000  Uiso   1.00
H3     H     0.12437   0.20408   0.45801   0.00000  Uiso   1.00
C17    C     0.65003   0.49009   0.50776   0.00000  Uiso   1.00
C18    C     0.97762   0.39015   0.47707   0.00000  Uiso   1.00
C19    C     0.97639   0.59637   0.55147   0.00000  Uiso   1.00
C20    C     0.95206   0.49261   0.51340   0.00000  Uiso   1.00
C21    C     0.95174   0.29098   0.43051   0.00000  Uiso   1.00
C22    C     0.90208   0.29193   0.42632   0.00000  Uiso   1.00
C23    C     0.87680   0.39141   0.46841   0.00000  Uiso   1.00
C24    C     0.90170   0.49134   0.51167   0.00000  Uiso   1.00
C25    C     0.87564   0.59003   0.55318   0.00000  Uiso   1.00
C26    C     0.82560   0.58745   0.55170   0.00000  Uiso   1.00
N2     N     0.80194   0.48891   0.50852   0.00000  Uiso   1.00
C27    C     0.82670   0.39158   0.46662   0.00000  Uiso   1.00
C28    C     0.72523   0.47615   0.38893   0.00000  Uiso   1.00
C29    C     0.67531   0.47795   0.38848   0.00000  Uiso   1.00
C30    C     0.67528   0.50016   0.62728   0.00000  Uiso   1.00
C31    C     0.72515   0.49951   0.62727   0.00000  Uiso   1.00
C32    C     0.75032   0.48765   0.50821   0.00000  Uiso   1.00
O10    O     0.80246   0.29333   0.42607   0.00000  Uiso   1.00
C33    C     0.02820   0.38951   0.48670   0.00000  Uiso   1.00
C34    C     0.05255   0.49546   0.51629   0.00000  Uiso   1.00
C35    C     0.02698   0.59991   0.54470   0.00000  Uiso   1.00
C36    C     0.05529   0.28504   0.46849   0.00000  Uiso   1.00
H4     H     0.65650   0.46976   0.29370   0.00000  Uiso   1.00
H5     H     0.74462   0.46778   0.29501   0.00000  Uiso   1.00
H6     H     0.88362   0.21299   0.38926   0.00000  Uiso   1.00
H7     H     0.96854   0.21106   0.39172   0.00000  Uiso   1.00
H8     H     0.03948   0.19767   0.45455   0.00000  Uiso   1.00
O11    O     0.20194   0.70575   0.56299   0.00000  Uiso   1.00
C37    C     0.10250   0.70687   0.56191   0.00000  Uiso   1.00
H9     H     0.25707   0.62175   0.34707   0.00000  Uiso   1.00
H10    H     0.12095   0.79138   0.57724   0.00000  Uiso   1.00
C38    C     0.94931   0.69406   0.59663   0.00000  Uiso   1.00
C39    C     0.89968   0.69064   0.59728   0.00000  Uiso   1.00
O12    O     0.80028   0.68455   0.59066   0.00000  Uiso   1.00
C40    C     0.05286   0.70601   0.56424   0.00000  Uiso   1.00
H11    H     0.96506   0.77465   0.63699   0.00000  Uiso   1.00
H12    H     0.65652   0.50986   0.72196   0.00000  Uiso   1.00
H13    H     0.88026   0.76855   0.63330   0.00000  Uiso   1.00
H14    H     0.74447   0.50766   0.72132   0.00000  Uiso   1.00
H15    H     0.03612   0.79241   0.57737   0.00000  Uiso   1.00
C41    C     0.50168   0.93349   0.40490   0.00000  Uiso   1.00
C42    C     0.50569   0.86873   0.51817   0.00000  Uiso   1.00
H16    H     0.49878   0.88742   0.30940   0.00000  Uiso   1.00
H17    H     0.50983   0.91033   0.61553   0.00000  Uiso   1.00
C43    C     0.50184   0.06658   0.40047   0.00000  Uiso   1.00
C44    C     0.49758   0.13536   0.50992   0.00000  Uiso   1.00
H18    H     0.50499   0.10892   0.30277   0.00000  Uiso   1.00
H19    H     0.49318   0.09666   0.60864   0.00000  Uiso   1.00
C45    C     0.50660   0.59340   0.93246   0.00000  Uiso   1.00
N3     N     0.50384   0.49585   0.86404   0.00000  Uiso   1.00
H20    H     0.50472   0.67861   0.88056   0.00000  Uiso   1.00
H21    H     0.51239   0.41797   0.91436   0.00000  Uiso   1.00
C46    C     0.51839   0.59262   0.07749   0.00000  Uiso   1.00
N4     N     0.50176   0.50937   0.15566   0.00000  Uiso   1.00
H22    H     0.47759   0.45181   0.11066   0.00000  Uiso   1.00
C47    C     0.54943   0.69061   0.12748   0.00000  Uiso   1.00
O13    O     0.57607   0.67469   0.22311   0.00000  Uiso   1.00
N5     N     0.55259   0.80076   0.05449   0.00000  Uiso   1.00
H23    H     0.57754   0.85546   0.10416   0.00000  Uiso   1.00
H24    H     0.51882   0.84262   0.05969   0.00000  Uiso   1.00
C48    C     0.35061   0.66269   0.32284   0.00000  Uiso   1.00
O14    O     0.33183   0.67936   0.21351   0.00000  Uiso   1.00
N6     N     0.39121   0.73415   0.36124   0.00000  Uiso   1.00
H25    H     0.39916   0.79136   0.28102   0.00000  Uiso   1.00
H26    H     0.38057   0.78717   0.44265   0.00000  Uiso   1.00
