# Generated by REPEAT Assigner based on pymatgen
data_DB0-m3_o24_o78_f0_fsc.sym.14_sqe
_audit_creation_date              2022-05-24
_audit_creation_method            REPEAT_Assigner
_cell_length_a                    13.341677
_cell_length_b                    6.606046
_cell_length_c                    9.220825
_cell_angle_alpha                 90.000000
_cell_angle_beta                  94.849350
_cell_angle_gamma                 90.000000
_cell_volume                      809.775139
_symmetry_space_group_name_H-M    P1
_symmetry_Int_Tables_number       1
loop_
    _symmetry_equiv_pos_site_id
    _symmetry_equiv_pos_as_xyz
    1  x,y,z
loop_
    _atom_site_type_symbol
    _atom_site_label
    _atom_site_fract_x
    _atom_site_fract_y
    _atom_site_fract_z
    _atom_type_partial_charge
    C   C1   0.180404  0.795838  0.014846  -0.327834
    C   C2   0.819597  0.204162  0.985155  -0.328026
    C   C3   0.824047  0.795320  0.037805  -0.237843
    C   C4   0.175954  0.204680  0.962195  -0.237912
    C   C5   0.268796  0.897223  0.996184  0.007111
    C   C6   0.731204  0.102777  0.003816  0.007196
    C   C7   0.733007  0.895897  0.026689  -0.031468
    C   C8   0.266993  0.104104  0.973311  -0.031364
    C   C9   0.450393  0.652551  0.530833  0.025305
    C   C10  0.549607  0.347449  0.469167  0.025187
    C   C11  0.541492  0.649149  0.448485  0.272427
    C   C12  0.458508  0.350851  0.551515  0.272523
    C   C13  0.415877  0.484228  0.431826  0.285410
    C   C14  0.584123  0.515772  0.568174  0.285525
    C   C15  0.087782  0.102199  0.979443  0.213656
    C   C16  0.912218  0.897801  0.020557  0.213557
    C   C17  0.909814  0.102216  0.992428  0.181853
    C   C18  0.090186  0.897784  0.007573  0.181669
    C   C19  0.997528  0.204865  0.971989  -0.381294
    C   C20  0.002472  0.795135  0.028012  -0.381216
    Zn  Zn1  0.496045  0.509699  0.838101  0.964995
    Zn  Zn2  0.503955  0.490301  0.161899  0.965075
    H   H1   0.182072  0.635121  0.035720  0.237794
    H   H2   0.817928  0.364879  0.964281  0.237815
    H   H3   0.825856  0.633864  0.055433  0.104056
    H   H4   0.174145  0.366136  0.944567  0.104057
    H   H5   0.995527  0.365640  0.950303  0.152960
    H   H6   0.004474  0.634360  0.049697  0.152938
    O   O1   0.612839  0.696404  0.139972  -0.731406
    O   O2   0.387161  0.303596  0.860028  -0.731464
    O   O3   0.388792  0.714955  0.871380  -0.537582
    O   O4   0.611209  0.285045  0.128621  -0.537823
    O   O5   0.602180  0.720803  0.889407  -0.682161
    O   O6   0.397821  0.279197  0.110594  -0.682157
    O   O7   0.399114  0.707299  0.122349  -0.539402
    O   O8   0.600886  0.292701  0.877651  -0.539422
    C   C21  0.641230  0.774547  0.019176  0.837670
    C   C22  0.358770  0.225453  0.980825  0.837728
    C   C23  0.360780  0.777862  0.996934  0.521740
    C   C24  0.639220  0.222138  0.003066  0.522076
    N   N1   0.506942  0.480899  0.352540  -0.008832
    N   N2   0.493058  0.519101  0.647460  -0.008939
    N   N3   0.392366  0.830809  0.561830  -0.454158
    H   H7   0.368050  0.897383  0.462330  0.145399
    H   H8   0.328868  0.781929  0.610755  0.180275
    N   N4   0.607635  0.169191  0.438170  -0.454102
    H   H9   0.631950  0.102617  0.537670  0.145370
    H   H10  0.671132  0.218071  0.389245  0.180295
    N   N5   0.591166  0.824742  0.392873  -0.415546
    H   H11  0.542788  0.886585  0.309545  0.222575
    H   H12  0.655512  0.773722  0.347106  0.218487
    N   N6   0.408834  0.175259  0.607127  -0.415524
    H   H13  0.344489  0.226278  0.652894  0.218495
    H   H14  0.457213  0.113415  0.690455  0.222551
    N   N7   0.316472  0.464264  0.356295  -0.784837
    H   H15  0.264245  0.474879  0.434129  0.268697
    H   H16  0.305566  0.587887  0.286187  0.292003
    N   N8   0.683528  0.535736  0.643705  -0.784810
    H   H17  0.735756  0.525121  0.565872  0.268690
    H   H18  0.694434  0.412113  0.713813  0.291963
