# Generated by REPEAT Assigner based on pymatgen
data_DB0-m29_o89_o420_f0_pts.sym.28
_audit_creation_date              2022-05-24
_audit_creation_method            REPEAT_Assigner
_cell_length_a                    14.086393
_cell_length_b                    12.306775
_cell_length_c                    13.240843
_cell_angle_alpha                 91.430796
_cell_angle_beta                  93.111681
_cell_angle_gamma                 108.985722
_cell_volume                      2165.125895
_symmetry_space_group_name_H-M    P1
_symmetry_Int_Tables_number       1
loop_
    _symmetry_equiv_pos_site_id
    _symmetry_equiv_pos_as_xyz
    1  x,y,z
loop_
    _atom_site_type_symbol
    _atom_site_label
    _atom_site_fract_x
    _atom_site_fract_y
    _atom_site_fract_z
    _atom_type_partial_charge
    C   C1   0.827949  0.987985  0.137462  -0.279842
    C   C2   0.736468  0.990434  0.095456  0.130345
    C   C3   0.722214  0.991890  0.990326  -0.148491
    C   C4   0.801919  0.998272  0.931577  -0.062524
    C   C5   0.893192  0.997998  0.974359  0.034610
    C   C6   0.906513  0.990710  0.077448  0.244036
    C   C7   0.970801  0.004720  0.912980  -0.232912
    C   C8   0.063118  0.005919  0.954181  0.186868
    C   C9   0.077490  0.997995  0.057079  0.199160
    C   C10  0.998974  0.989542  0.119384  -0.267343
    C   C11  0.140725  0.015010  0.891708  -0.205209
    C   C12  0.235429  0.019963  0.930907  0.018422
    C   C13  0.250021  0.013488  0.035427  -0.017104
    C   C14  0.170912  0.999499  0.096434  -0.312485
    H   H1   0.837720  0.988240  0.218739  0.147853
    H   H2   0.792370  0.000576  0.850234  0.147126
    H   H3   0.959525  0.010525  0.832154  0.149757
    H   H4   0.126548  0.019642  0.811207  0.145051
    H   H5   0.186264  0.995170  0.176598  0.235996
    N   N1   0.065326  0.068258  0.293066  -0.198960
    C   C15  0.062773  0.026705  0.386250  -0.084408
    C   C16  0.009046  0.910518  0.381340  -0.188775
    C   C17  0.977762  0.880541  0.280912  -0.217187
    C   C18  0.013784  0.979811  0.228823  0.298635
    H   H6   0.100544  0.153110  0.274261  0.286481
    H   H7   0.097967  0.077963  0.454006  0.145637
    H   H8   0.994336  0.854022  0.444005  0.162088
    H   H9   0.933816  0.796126  0.249387  0.151809
    O   O1   0.591258  0.042329  0.137950  -0.546472
    C   C19  0.659990  0.996194  0.165343  0.546437
    O   O2   0.475540  0.776470  0.247237  -0.516702
    O   O3   0.665220  0.963006  0.258211  -0.505774
    O   O4   0.473569  0.925912  0.352491  -0.619057
    C   C20  0.470701  0.818578  0.338129  0.655515
    Fe  Fe1  0.488583  0.028694  0.237465  1.508426
    O   O5   0.353743  0.961578  0.161913  -0.638623
    O   O6   0.422705  0.123640  0.077778  -0.513091
    C   C21  0.347751  0.028392  0.087687  0.760937
    O   O7   0.531014  0.190003  0.297458  -0.658080
    O   O8   0.362735  0.139541  0.310148  -0.597788
    C   C22  0.453035  0.213779  0.330333  0.713544
    O   O9   0.411099  0.881250  0.706058  -0.597993
    O   O10  0.528481  0.805627  0.767075  -0.485472
    C   C23  0.453421  0.800911  0.702272  0.587774
    O   O11  0.629438  0.037088  0.849980  -0.681276
    O   O12  0.539951  0.921837  0.967205  -0.475937
    C   C24  0.626424  0.986838  0.936672  0.780009
    O   O13  0.290388  0.015858  0.761516  -0.508198
    O   O14  0.536593  0.145991  0.681816  -0.597231
    C   C25  0.506275  0.235371  0.692811  0.502083
    O   O15  0.406667  0.035173  0.891766  -0.552980
    C   C26  0.314100  0.024985  0.859300  0.607597
    O   O16  0.456436  0.244599  0.771471  -0.465344
    Fe  Fe2  0.495223  0.026425  0.782851  1.479697
    C   C27  0.444952  0.737470  0.605758  0.086301
    C   C28  0.450537  0.628253  0.602419  -0.194824
    H   H10  0.436200  0.581841  0.670447  0.108909
    C   C29  0.472474  0.580357  0.514186  0.131819
    C   C30  0.479205  0.642768  0.426203  -0.218855
    H   H11  0.498930  0.611774  0.356154  0.156682
    C   C31  0.463602  0.748690  0.427928  0.034599
    C   C32  0.447921  0.795631  0.518498  -0.181180
    C   C33  0.462019  0.395597  0.424122  -0.245137
    H   H12  0.439208  0.425425  0.353997  0.123801
    C   C34  0.469606  0.286796  0.422406  0.094961
    C   C35  0.483425  0.238048  0.510943  -0.215932
    C   C36  0.499726  0.299463  0.601851  0.128803
    C   C37  0.510088  0.416051  0.603140  -0.141370
    C   C38  0.483588  0.463381  0.514002  0.103055
    H   H13  0.443266  0.881395  0.523161  0.153650
    H   H14  0.479037  0.148734  0.507547  0.166913
    C   C39  0.575440  0.489857  0.686170  0.165832
    C   C40  0.673188  0.552711  0.667631  -0.131483
    C   C41  0.739196  0.615364  0.745127  -0.313793
    C   C42  0.707787  0.615612  0.842042  0.384112
    C   C43  0.778837  0.679885  0.927099  -0.433936
    C   C44  0.609757  0.555208  0.860558  -0.304750
    C   C45  0.543816  0.492625  0.783126  -0.019601
    H   H15  0.699114  0.550600  0.592476  0.119701
    H   H16  0.815848  0.662557  0.729470  0.152432
    H   H17  0.853588  0.725622  0.899224  0.103684
    H   H18  0.786989  0.618664  0.984306  0.112500
    H   H19  0.748554  0.743064  0.962689  0.146181
    H   H20  0.584517  0.556357  0.936114  0.160276
    H   H21  0.466723  0.447598  0.798560  0.116017
