# Generated by REPEAT Assigner based on pymatgen
data_DB0-m2_o6_o20_f0_nbo.sym.172_sqe
_audit_creation_date              2022-05-24
_audit_creation_method            REPEAT_Assigner
_cell_length_a                    27.145467
_cell_length_b                    27.526624
_cell_length_c                    27.181227
_cell_angle_alpha                 109.746879
_cell_angle_beta                  110.615822
_cell_angle_gamma                 108.291753
_cell_volume                      15583.453934
_symmetry_space_group_name_H-M    P1
_symmetry_Int_Tables_number       1
loop_
    _symmetry_equiv_pos_site_id
    _symmetry_equiv_pos_as_xyz
    1  x,y,z
loop_
    _atom_site_type_symbol
    _atom_site_label
    _atom_site_fract_x
    _atom_site_fract_y
    _atom_site_fract_z
    _atom_type_partial_charge
    O   O1   0.062163  0.095652  0.537489  -0.592468
    O   O2   0.061724  0.022989  0.463277  -0.600482
    C   C1   0.083534  0.078625  0.502564  0.788054
    O   O3   0.067446  0.036194  0.600951  -0.594431
    O   O4   0.063456  0.960258  0.526822  -0.602488
    C   C2   0.086145  0.998151  0.584413  0.773636
    Cu  Cu1  0.002615  0.040392  0.544208  0.996887
    Cu  Cu2  0.002082  0.956468  0.458362  1.010016
    O   O5   0.939830  0.973890  0.536179  -0.597586
    O   O6   0.939252  0.901219  0.461834  -0.579720
    O   O7   0.941171  0.036625  0.475810  -0.549458
    O   O8   0.937302  0.960651  0.401524  -0.591012
    C   C3   0.922114  0.918247  0.500968  0.749855
    C   C4   0.918598  0.998745  0.418149  0.797981
    C   C5   0.133516  0.997936  0.631416  -0.194557
    C   C6   0.173065  0.997710  0.670638  0.074916
    C   C7   0.219630  0.997419  0.716816  -0.014013
    C   C8   0.259161  0.997180  0.756044  -0.006578
    C   C9   0.305704  0.996942  0.802296  0.066435
    C   C10  0.345214  0.996825  0.841667  -0.183837
    C   C11  0.243226  0.252059  0.451680  -0.367084
    H   H1   0.233435  0.256927  0.412025  0.209123
    C   C12  0.300050  0.288571  0.502935  0.323141
    C   C13  0.312690  0.283280  0.553973  -0.263244
    H   H2   0.357271  0.312062  0.594178  0.162339
    C   C14  0.268382  0.241384  0.553752  -0.098060
    H   H3   0.278291  0.237069  0.593722  0.146717
    C   C15  0.211429  0.204851  0.502604  -0.017553
    C   C16  0.198728  0.209805  0.451136  0.413749
    C   C17  0.345764  0.332833  0.503466  -0.077241
    C   C18  0.166391  0.160594  0.502826  0.021082
    C   C19  0.128518  0.123220  0.502728  -0.242246
    C   C20  0.383861  0.370382  0.503953  -0.210690
    C   C21  0.683261  0.948774  0.197621  -0.359349
    H   H4   0.639793  0.909093  0.165541  0.212509
    C   C22  0.693535  0.999246  0.193220  0.251652
    C   C23  0.749321  0.049675  0.235087  -0.382887
    H   H5   0.758164  0.089498  0.232314  0.172755
    C   C24  0.793681  0.050123  0.281186  0.425671
    C   C25  0.783611  0.999259  0.285234  -0.202705
    C   C26  0.727870  0.948329  0.242718  0.429164
    C   C27  0.646460  0.999338  0.145710  0.034393
    C   C28  0.831481  0.999077  0.331971  0.158645
    C   C29  0.871186  0.998919  0.371121  -0.315062
    C   C30  0.607054  0.999313  0.106039  -0.328067
    H   H6   0.843096  0.742395  0.506164  0.149581
    C   C31  0.762907  0.703732  0.508409  -0.181412
    H   H7   0.768724  0.667113  0.510051  0.148622
    C   C32  0.713840  0.708334  0.508550  0.274650
    C   C33  0.706201  0.754877  0.506269  -0.185513
    H   H8   0.667604  0.758313  0.506235  0.151134
    C   C34  0.747801  0.796988  0.503997  -0.189141
    H   H9   0.741983  0.833602  0.502345  0.153388
    C   C35  0.796906  0.792419  0.503927  0.277800
    C   C36  0.804503  0.745838  0.506138  -0.186106
    C   C37  0.670316  0.664256  0.510352  -0.113297
    C   C38  0.840513  0.836505  0.502213  -0.122549
    C   C39  0.877515  0.873714  0.501283  -0.161197
    C   C40  0.633447  0.626866  0.511228  -0.175550
    O   O9   0.436364  0.898672  0.917458  -0.568353
    O   O10  0.508818  0.963558  0.911215  -0.593940
    C   C41  0.469266  0.910170  0.893294  0.733400
    O   O11  0.376831  0.962800  0.911128  -0.603668
    O   O12  0.449460  0.031314  0.908556  -0.601848
    C   C42  0.392502  0.996872  0.889013  0.772242
    Cu  Cu3  0.434197  0.960521  0.977251  1.009308
    Cu  Cu4  0.518031  0.035393  0.970118  1.009002
    O   O13  0.446567  0.032389  0.039366  -0.590005
    O   O14  0.519298  0.097305  0.033390  -0.576743
    O   O15  0.502709  0.964660  0.038968  -0.602508
    O   O16  0.575496  0.033072  0.036146  -0.600381
    C   C43  0.482378  0.085680  0.053453  0.732484
    C   C44  0.559746  0.999084  0.058425  0.889775
    O   O17  0.548063  0.441075  0.478895  -0.603996
    O   O18  0.468979  0.439333  0.407013  -0.577422
    C   C45  0.508707  0.422058  0.422695  0.777407
    O   O19  0.485804  0.436390  0.542879  -0.601582
    O   O20  0.410222  0.434924  0.467584  -0.591704
    C   C46  0.428666  0.415636  0.504585  0.792185
    Cu  Cu5  0.552552  0.497624  0.549322  1.009980
    Cu  Cu6  0.465205  0.499824  0.466516  1.007493
    O   O21  0.548791  0.558128  0.608873  -0.580212
    O   O22  0.469723  0.556352  0.536944  -0.595268
    O   O23  0.607523  0.562532  0.548220  -0.582562
    O   O24  0.531916  0.561031  0.472924  -0.605480
    C   C47  0.509004  0.575353  0.593144  0.760836
    C   C48  0.589024  0.581753  0.511119  0.773286
    H   H10  0.578094  0.832919  0.834449  0.156950
    C   C49  0.547134  0.747226  0.763421  -0.174501
    H   H11  0.591466  0.756520  0.770088  0.150160
    C   C50  0.497371  0.693286  0.717746  0.248027
    C   C51  0.440407  0.680852  0.707682  -0.159378
    H   H12  0.401704  0.638423  0.670914  0.141484
    C   C52  0.432894  0.723450  0.743242  -0.198512
    H   H13  0.388311  0.714864  0.735243  0.149770
    C   C53  0.482526  0.777788  0.788116  0.294856
    C   C54  0.539630  0.789797  0.798995  -0.193411
    C   C55  0.503881  0.651666  0.676658  -0.099018
    C   C56  0.475016  0.822976  0.823209  -0.126439
    C   C57  0.470874  0.862304  0.854126  -0.153343
    C   C58  0.507468  0.616802  0.639621  -0.175249
    H   H14  0.499398  0.274155  0.153479  0.149657
    C   C59  0.505636  0.311008  0.239581  -0.178664
    H   H15  0.506438  0.350602  0.239837  0.146132
    C   C60  0.507643  0.302380  0.287047  0.268131
    C   C61  0.506250  0.252295  0.287614  -0.183759
    H   H16  0.507519  0.246160  0.325191  0.154025
    C   C62  0.502284  0.209846  0.239643  -0.184226
    H   H17  0.500503  0.169826  0.238962  0.152734
    C   C63  0.499721  0.218155  0.191915  0.281520
    C   C64  0.501656  0.268488  0.191531  -0.187331
    C   C65  0.509037  0.344867  0.335332  -0.105682
    C   C66  0.493774  0.173118  0.141906  -0.127760
    C   C67  0.488489  0.133745  0.100707  -0.147906
    C   C68  0.509256  0.380250  0.375609  -0.179540
    N   N1   0.140176  0.173426  0.398926  -0.677892
    C   C69  0.134862  0.128783  0.352896  0.827307
    O   O25  0.179583  0.130081  0.351350  -0.562550
    C   C70  0.074075  0.076979  0.304268  -0.532178
    H   H18  0.103625  0.162681  0.404864  0.318691
    H   H19  0.053305  0.054842  0.324690  0.135669
    H   H20  0.078710  0.045178  0.270570  0.156399
    H   H21  0.044959  0.092226  0.281247  0.130710
    N   N2   0.715378  0.896136  0.246149  -0.632019
    C   C71  0.717211  0.854008  0.204462  0.745513
    O   O26  0.714054  0.855433  0.159147  -0.559406
    C   C72  0.724350  0.806073  0.214421  -0.449070
    H   H22  0.732807  0.900184  0.288509  0.326274
    H   H23  0.767544  0.825790  0.257040  0.110363
    H   H24  0.724700  0.775746  0.175543  0.143328
    H   H25  0.686147  0.780903  0.217981  0.116949
    N   N3   0.850201  0.102244  0.322526  -0.656349
    C   C73  0.856772  0.134603  0.376669  0.803262
    O   O27  0.823921  0.112203  0.392916  -0.572656
    C   C74  0.903937  0.198279  0.416563  -0.459515
    H   H26  0.866064  0.127351  0.305244  0.322583
    H   H27  0.895116  0.222841  0.392552  0.103547
    H   H28  0.949040  0.202348  0.428075  0.116718
    H   H29  0.902805  0.217131  0.458970  0.145553
