# Generated by REPEAT Assigner based on pymatgen
data_DB0-m29_o81_o1510_f0_pts.sym.19
_audit_creation_date              2022-05-24
_audit_creation_method            REPEAT_Assigner
_cell_length_a                    16.030957
_cell_length_b                    19.232067
_cell_length_c                    12.429092
_cell_angle_alpha                 90.389163
_cell_angle_beta                  86.814361
_cell_angle_gamma                 70.130411
_cell_volume                      3596.955606
_symmetry_space_group_name_H-M    P1
_symmetry_Int_Tables_number       1
loop_
    _symmetry_equiv_pos_site_id
    _symmetry_equiv_pos_as_xyz
    1  x,y,z
loop_
    _atom_site_type_symbol
    _atom_site_label
    _atom_site_fract_x
    _atom_site_fract_y
    _atom_site_fract_z
    _atom_type_partial_charge
    C   C1   0.905491  0.996760  0.852543  -0.170856
    C   C2   0.305544  0.996651  0.943921  -0.003996
    C   C3   0.226099  0.995497  0.904129  -0.241420
    C   C4   0.158254  0.987117  0.970484  0.145703
    C   C5   0.079455  0.987536  0.929275  -0.254047
    C   C6   0.010531  0.979373  0.996675  0.097174
    C   C7   0.823212  0.999906  0.819797  -0.147636
    C   C8   0.762289  0.986064  0.890931  0.092383
    C   C9   0.928500  0.980796  0.958763  0.043217
    C   C10  0.865683  0.968253  0.030415  0.227957
    C   C11  0.784024  0.970119  0.995747  -0.191722
    C   C12  0.314480  0.989771  0.056622  0.059775
    C   C13  0.246593  0.978410  0.119727  -0.276978
    C   C14  0.169897  0.977336  0.077582  0.305252
    C   C15  0.104702  0.966902  0.144547  -0.316360
    C   C16  0.024553  0.969373  0.105997  0.058541
    C   C17  0.959426  0.960230  0.176575  0.006323
    C   C18  0.882220  0.957735  0.138211  -0.265339
    H   H1   0.948778  0.008907  0.792113  0.136880
    H   H2   0.215195  0.002501  0.819366  0.176006
    H   H3   0.074867  0.993729  0.843748  0.160309
    H   H4   0.807314  0.012389  0.737157  0.177229
    H   H5   0.252354  0.970489  0.205203  0.156691
    H   H6   0.118364  0.956202  0.227872  0.167536
    H   H7   0.833981  0.950464  0.196779  0.201522
    O   O1   0.643133  0.030746  0.083130  -0.587394
    C   C19  0.712538  0.970323  0.072588  0.602326
    O   O2   0.589606  0.843782  0.166429  -0.433978
    O   O3   0.714135  0.910015  0.122082  -0.446605
    O   O4   0.557135  0.944220  0.282062  -0.578816
    C   C20  0.577249  0.872782  0.264401  0.606541
    Fe  Fe1  0.541919  0.020994  0.172311  1.419573
    O   O5   0.463344  0.994459  0.071343  -0.459959
    O   O6   0.376558  0.006194  0.223258  -0.461919
    C   C21  0.388095  0.995952  0.118211  0.551586
    O   O7   0.498948  0.118628  0.253058  -0.611056
    O   O8   0.365481  0.150901  0.176514  -0.470005
    C   C22  0.414313  0.158170  0.254077  0.570019
    O   O9   0.529987  0.921781  0.684106  -0.603065
    O   O10  0.672528  0.915834  0.647272  -0.517764
    C   C23  0.609658  0.887285  0.638594  0.664638
    O   O11  0.626801  0.039571  0.796871  -0.635508
    O   O12  0.647445  0.931434  0.881750  -0.491944
    C   C24  0.675588  0.986140  0.855857  0.680623
    O   O13  0.362525  0.988861  0.759237  -0.496621
    O   O14  0.482006  0.093425  0.633945  -0.583032
    C   C25  0.401843  0.143663  0.644933  0.524982
    O   O15  0.440797  0.024008  0.880562  -0.575359
    C   C26  0.373271  0.002626  0.860053  0.683651
    O   O16  0.352705  0.150181  0.734914  -0.482138
    Fe  Fe2  0.518408  0.020697  0.749416  1.475988
    H   H8   0.469704  0.115704  0.445130  0.149330
    C   C27  0.372126  0.193686  0.356911  0.083878
    C   C28  0.292858  0.251592  0.362460  -0.179081
    H   H9   0.263889  0.275460  0.288976  0.122218
    C   C29  0.249832  0.278248  0.461581  0.089068
    C   C30  0.284232  0.243837  0.555331  -0.217351
    H   H10  0.249246  0.263381  0.632513  0.126580
    C   C31  0.364675  0.185769  0.549765  0.109524
    C   C32  0.408923  0.162688  0.450492  -0.158130
    C   C33  0.866325  0.546934  0.536070  -0.130469
    H   H11  0.876702  0.516419  0.609631  0.119538
    C   C34  0.792270  0.609762  0.532908  -0.139920
    H   H12  0.745874  0.624362  0.602685  0.107921
    C   C35  0.778710  0.653926  0.443499  0.089660
    C   C36  0.838457  0.631603  0.354827  -0.112818
    H   H13  0.831297  0.664855  0.284032  0.133984
    C   C37  0.911736  0.568017  0.357261  -0.168498
    H   H14  0.956609  0.552365  0.286224  0.116879
    C   C38  0.927856  0.526064  0.448967  0.110582
    C   C39  0.664352  0.756876  0.354332  -0.096035
    H   H15  0.683906  0.728272  0.277057  0.114739
    C   C40  0.601666  0.827407  0.359752  -0.065214
    C   C41  0.575405  0.863822  0.458456  -0.045468
    H   H16  0.527910  0.919406  0.464485  0.131496
    C   C42  0.618982  0.835717  0.548502  -0.024734
    C   C43  0.685062  0.767621  0.542639  -0.096923
    H   H17  0.723090  0.749197  0.612473  0.109782
    C   C44  0.705708  0.725948  0.446990  0.047747
    C   C45  0.088629  0.463324  0.402340  -0.093445
    H   H18  0.090874  0.511119  0.358809  0.109958
    C   C46  0.165988  0.403738  0.406030  -0.179565
    H   H19  0.225789  0.405888  0.363710  0.112329
    C   C47  0.167832  0.342603  0.464536  0.155204
    C   C48  0.091231  0.341784  0.520109  -0.154060
    H   H20  0.091173  0.293743  0.564717  0.135993
    C   C49  0.012934  0.400836  0.514519  -0.147867
    H   H21  0.953264  0.397142  0.554994  0.115964
    C   C50  0.010746  0.462157  0.454991  0.055652
    N   N1   0.969466  0.954658  0.290050  0.615399
    O   O17  0.941422  0.908065  0.343249  -0.388663
    O   O18  0.982360  0.008366  0.342965  -0.354089
