# Generated by REPEAT Assigner based on pymatgen
data_DB0-m3_o450_o158_f0_fsc.sym.18_sqe
_audit_creation_date              2022-05-24
_audit_creation_method            REPEAT_Assigner
_cell_length_a                    8.534204
_cell_length_b                    12.783488
_cell_length_c                    13.397962
_cell_angle_alpha                 90.879193
_cell_angle_beta                  90.065164
_cell_angle_gamma                 95.432731
_cell_volume                      1454.934059
_symmetry_space_group_name_H-M    P1
_symmetry_Int_Tables_number       1
loop_
    _symmetry_equiv_pos_site_id
    _symmetry_equiv_pos_as_xyz
    1  x,y,z
loop_
    _atom_site_type_symbol
    _atom_site_label
    _atom_site_fract_x
    _atom_site_fract_y
    _atom_site_fract_z
    _atom_type_partial_charge
    C   C1   0.171434  0.709584  0.008998  -0.134489
    C   C2   0.828566  0.290415  0.991002  -0.134474
    C   C3   0.181959  0.816672  0.993182  0.131237
    C   C4   0.818041  0.183328  0.006817  0.131239
    C   C5   0.046513  0.869228  0.993276  0.189286
    C   C6   0.953487  0.130772  0.006723  0.189275
    C   C7   0.899834  0.811582  0.997078  0.176925
    C   C8   0.100166  0.188418  0.002922  0.176928
    C   C9   0.891831  0.705093  0.012053  -0.232797
    C   C10  0.108169  0.294906  0.987947  -0.232777
    C   C11  0.026718  0.656484  0.024627  -0.145225
    C   C12  0.973282  0.343516  0.975373  -0.145251
    N   N1   0.061454  0.980289  0.988113  -0.125929
    N   N2   0.938546  0.019710  0.011887  -0.125927
    H   H1   0.018806  0.573931  0.039948  0.160951
    H   H2   0.981195  0.426069  0.960052  0.160961
    O   O1   0.686158  0.599730  0.090920  -0.736136
    O   O2   0.313842  0.400270  0.909080  -0.736143
    O   O3   0.683590  0.613641  0.919310  -0.700959
    O   O4   0.316411  0.386359  0.080689  -0.700961
    C   C13  0.742615  0.640032  0.007644  0.943428
    C   C14  0.257385  0.359968  0.992356  0.943429
    O   O5   0.651746  0.395327  0.911126  -0.733385
    O   O6   0.348255  0.604673  0.088874  -0.733387
    O   O7   0.642611  0.381642  0.082502  -0.711607
    O   O8   0.357389  0.618358  0.917497  -0.711613
    C   C15  0.693267  0.352884  0.994528  0.889712
    C   C16  0.306733  0.647115  0.005472  0.889723
    Zn  Zn1  0.501756  0.505488  0.888996  1.018119
    Zn  Zn2  0.498244  0.494512  0.111004  1.018121
    C   C17  0.477063  0.400568  0.292470  -0.227752
    C   C18  0.522937  0.599432  0.707530  -0.227758
    N   N3   0.496114  0.491091  0.241849  0.176518
    N   N4   0.503886  0.508909  0.758151  0.176535
    C   C19  0.506724  0.584561  0.290478  -0.212707
    C   C20  0.493276  0.415439  0.709522  -0.212724
    C   C21  0.505902  0.589356  0.393240  0.204192
    C   C22  0.494098  0.410644  0.606759  0.204213
    C   C23  0.498129  0.497838  0.445892  -0.030900
    C   C24  0.501871  0.502162  0.554108  -0.030929
    C   C25  0.476806  0.402585  0.395796  -0.036286
    C   C26  0.523194  0.597415  0.604204  -0.036274
    C   C27  0.489580  0.691149  0.446104  -0.348405
    C   C28  0.510419  0.308851  0.553896  -0.348401
    C   C29  0.568786  0.695198  0.547577  0.650224
    C   C30  0.431212  0.304802  0.452423  0.650213
    H   H3   0.512364  0.656312  0.248490  0.187015
    H   H4   0.487636  0.343687  0.751510  0.187018
    H   H5   0.362583  0.699953  0.456552  0.138155
    H   H6   0.637416  0.300046  0.543448  0.138155
    H   H7   0.457653  0.242781  0.599249  0.140098
    H   H8   0.542346  0.757219  0.400751  0.140103
    H   H9   0.458482  0.326823  0.251701  0.228642
    H   H10  0.541518  0.673177  0.748299  0.228645
    F   F1   0.324779  0.871045  0.981587  -0.155898
    F   F2   0.675221  0.128955  0.018413  -0.155902
    F   F3   0.763174  0.856132  0.984560  -0.168049
    F   F4   0.236826  0.143868  0.015440  -0.168051
    F   F5   0.525446  0.781621  0.600311  -0.266348
    F   F6   0.474551  0.218379  0.399689  -0.266343
    F   F7   0.730110  0.705450  0.534597  -0.267639
    F   F8   0.269889  0.294551  0.465404  -0.267633
