# Generated by REPEAT Assigner based on pymatgen
data_DB0-m18_o10_o50_f0_fsc
_audit_creation_date              2022-05-24
_audit_creation_method            REPEAT_Assigner
_cell_length_a                    7.698881
_cell_length_b                    8.606891
_cell_length_c                    13.296256
_cell_angle_alpha                 93.483156
_cell_angle_beta                  80.752076
_cell_angle_gamma                 89.976641
_cell_volume                      867.951115
_symmetry_space_group_name_H-M    P1
_symmetry_Int_Tables_number       1
loop_
    _symmetry_equiv_pos_site_id
    _symmetry_equiv_pos_as_xyz
    1  x,y,z
loop_
    _atom_site_type_symbol
    _atom_site_label
    _atom_site_fract_x
    _atom_site_fract_y
    _atom_site_fract_z
    _atom_type_partial_charge
    O   O1   0.844739  0.186439  0.114560  -0.695692
    O   O2   0.155261  0.813561  0.885440  -0.695740
    O   O3   0.141815  0.171692  0.106739  -0.660691
    O   O4   0.858185  0.828309  0.893260  -0.660692
    C   C1   0.988916  0.234382  0.146867  0.763089
    C   C2   0.011083  0.765618  0.853133  0.763113
    Fe  Fe1  0.192625  0.998365  0.987320  1.175971
    Fe  Fe2  0.807375  0.001635  0.012680  1.175881
    O   O5   0.150315  0.841634  0.098898  -0.667128
    O   O6   0.849685  0.158367  0.901102  -0.667086
    O   O7   0.850800  0.844259  0.116181  -0.728415
    O   O8   0.149200  0.155741  0.883819  -0.728415
    C   C3   0.996409  0.794157  0.143239  0.808022
    C   C4   0.003591  0.205843  0.856761  0.808055
    N   N1   0.542060  0.007134  0.036152  -0.211137
    N   N2   0.457940  0.992866  0.963848  -0.211190
    H   H1   0.462394  0.021412  0.106094  0.266433
    H   H2   0.537606  0.978589  0.893906  0.266457
    C   C5   0.010759  0.340826  0.795097  0.089430
    C   C6   0.989241  0.659174  0.204903  0.089446
    C   C7   0.986912  0.329355  0.694456  -0.373151
    C   C8   0.013088  0.670645  0.305544  -0.373153
    C   C9   0.986445  0.462312  0.640948  0.388908
    C   C10  0.013555  0.537688  0.359052  0.388931
    C   C11  0.992637  0.607775  0.691703  -0.346235
    C   C12  0.007363  0.392225  0.308297  -0.346263
    H   H3   0.977411  0.713749  0.654524  0.148943
    H   H4   0.022589  0.286251  0.345476  0.148929
    C   C13  0.015293  0.617690  0.792795  0.075264
    C   C14  0.984707  0.382311  0.207205  0.075251
    C   C15  0.032665  0.484261  0.841852  -0.234248
    C   C16  0.967335  0.515739  0.158148  -0.234203
    C   C17  0.974685  0.444128  0.531740  -0.250467
    C   C18  0.025315  0.555872  0.468260  -0.250469
    H   H5   0.927260  0.334510  0.503260  0.150538
    H   H6   0.072740  0.665490  0.496740  0.150523
    H   H7   0.052853  0.492666  0.920136  0.156468
    H   H8   0.947147  0.507334  0.079863  0.156440
    H   H9   0.972913  0.216334  0.656659  0.144138
    H   H10  0.027087  0.783666  0.343341  0.144145
