# Generated by REPEAT Assigner based on pymatgen
data_DB0-m3_o44_o4_f0_fsc.sym.13
_audit_creation_date              2022-05-24
_audit_creation_method            REPEAT_Assigner
_cell_length_a                    8.562057
_cell_length_b                    9.331080
_cell_length_c                    13.465416
_cell_angle_alpha                 90.000000
_cell_angle_beta                  90.000000
_cell_angle_gamma                 90.000000
_cell_volume                      1075.795662
_symmetry_space_group_name_H-M    P1
_symmetry_Int_Tables_number       1
loop_
    _symmetry_equiv_pos_site_id
    _symmetry_equiv_pos_as_xyz
    1  x,y,z
loop_
    _atom_site_type_symbol
    _atom_site_label
    _atom_site_fract_x
    _atom_site_fract_y
    _atom_site_fract_z
    _atom_type_partial_charge
    C   C1   0.860500  0.005370  0.306011  0.043086
    C   C2   0.139500  0.005370  0.306011  0.043096
    C   C3   0.859566  0.991932  0.204043  -0.321231
    C   C4   0.140434  0.991932  0.204043  -0.321243
    H   H1   0.750166  0.985942  0.164188  0.209636
    H   H2   0.249834  0.985942  0.164188  0.209639
    C   C5   0.000000  0.992348  0.152862  0.335479
    C   C6   0.000000  0.022365  0.354300  -0.267618
    C   C7   0.000000  0.997142  0.046335  -0.240534
    C   C8   0.000000  0.003366  0.956942  -0.120487
    C   C9   0.859541  0.008831  0.799247  -0.259063
    C   C10  0.140459  0.008831  0.799247  -0.259073
    H   H3   0.750156  0.014643  0.839129  0.123909
    H   H4   0.249844  0.014643  0.839129  0.123911
    C   C11  0.860439  0.995825  0.697250  0.041966
    C   C12  0.139561  0.995825  0.697250  0.041976
    C   C13  0.000000  0.979138  0.648927  -0.216149
    C   C14  0.000000  0.008288  0.850419  0.297407
    H   H5   0.000000  0.045850  0.431814  0.140239
    H   H6   0.000000  0.955997  0.571367  0.139816
    O   O1   0.667379  0.124604  0.401649  -0.671741
    O   O2   0.333521  0.877780  0.397115  -0.683939
    O   O3   0.332621  0.124604  0.401649  -0.671745
    O   O4   0.666479  0.877780  0.397115  -0.683937
    C   C15  0.718744  0.002547  0.366508  0.841549
    C   C16  0.281256  0.002547  0.366508  0.841553
    O   O5   0.667054  0.876213  0.601876  -0.675870
    O   O6   0.333788  0.123811  0.606366  -0.680642
    O   O7   0.332946  0.876213  0.601876  -0.675874
    O   O8   0.666212  0.123811  0.606366  -0.680638
    C   C17  0.718613  0.998669  0.636753  0.761822
    C   C18  0.281387  0.998669  0.636753  0.761827
    Zn  Zn1  0.500000  0.838437  0.499447  1.016761
    Zn  Zn2  0.500000  0.162795  0.503447  1.028897
    C   C19  0.500000  0.432428  0.585140  0.127065
    C   C20  0.500000  0.573176  0.583060  0.094566
    N   N1   0.500000  0.351203  0.503411  0.010899
    N   N2   0.500000  0.650107  0.499189  0.050540
    C   C21  0.500000  0.423781  0.416023  0.015416
    C   C22  0.500000  0.573732  0.413970  0.007490
    C   C23  0.500000  0.590368  0.692422  -0.140497
    C   C24  0.500000  0.421770  0.694870  -0.091001
    H   H7   0.610259  0.637912  0.720385  0.093397
    H   H8   0.389734  0.375887  0.724131  0.082658
    H   H9   0.389741  0.637912  0.720385  0.093396
    H   H10  0.610266  0.375887  0.724131  0.082659
    Br  Br1  0.500000  0.323687  0.292509  0.001148
    Br  Br2  0.500000  0.670078  0.289126  -0.000521
