# Generated by REPEAT Assigner based on pymatgen
data_DB0-m3_o146_o156_f0_fsc.sym.9_sqe
_audit_creation_date              2022-05-24
_audit_creation_method            REPEAT_Assigner
_cell_length_a                    15.367554
_cell_length_b                    11.837642
_cell_length_c                    17.547254
_cell_angle_alpha                 90.156807
_cell_angle_beta                  90.006393
_cell_angle_gamma                 90.000000
_cell_volume                      3192.107281
_symmetry_space_group_name_H-M    P1
_symmetry_Int_Tables_number       1
loop_
    _symmetry_equiv_pos_site_id
    _symmetry_equiv_pos_as_xyz
    1  x,y,z
loop_
    _atom_site_type_symbol
    _atom_site_label
    _atom_site_fract_x
    _atom_site_fract_y
    _atom_site_fract_z
    _atom_type_partial_charge
    C   C1    0.305303  0.737728  0.996788  -0.085953
    C   C2    0.694697  0.262273  0.003211  -0.085989
    C   C3    0.079782  0.944815  0.999027  0.051910
    C   C4    0.920218  0.055185  0.000972  0.051533
    C   C5    0.213072  0.870867  0.062169  -0.110076
    C   C6    0.786928  0.129133  0.937831  -0.109953
    C   C7    0.252447  0.748140  0.932393  0.115780
    C   C8    0.747553  0.251860  0.067607  0.115915
    C   C9    0.284513  0.799864  0.061309  -0.043437
    C   C10   0.715487  0.200136  0.938690  -0.043487
    H   H1    0.323200  0.792143  0.112463  0.097558
    H   H2    0.676800  0.207857  0.887537  0.097581
    C   C11   0.161580  0.881182  0.997982  0.255396
    C   C12   0.838420  0.118818  0.002018  0.255366
    C   C13   0.181513  0.819106  0.934024  -0.213192
    C   C14   0.818487  0.180895  0.065976  -0.213303
    H   H3    0.139636  0.823912  0.884629  0.103475
    H   H4    0.860364  0.176088  0.115371  0.103486
    C   C15   0.297525  0.276875  0.995040  0.054217
    C   C16   0.702475  0.723126  0.004960  0.054009
    C   C17   0.076847  0.061861  0.998638  -0.105689
    C   C18   0.923153  0.938139  0.001362  -0.105304
    C   C19   0.216306  0.124044  0.939898  -0.199407
    C   C20   0.783694  0.875956  0.060102  -0.199475
    H   H5    0.207973  0.063146  0.894498  0.116499
    H   H6    0.792027  0.936854  0.105501  0.116485
    C   C21   0.235158  0.285847  0.052238  0.048910
    C   C22   0.764842  0.714153  0.947761  0.048939
    C   C23   0.286783  0.196608  0.938421  -0.236848
    C   C24   0.713217  0.803392  0.061579  -0.236702
    H   H7    0.333950  0.189381  0.892973  0.178527
    H   H8    0.666050  0.810620  0.107027  0.178477
    C   C25   0.155640  0.131707  0.997861  0.254581
    C   C26   0.844360  0.868293  0.002139  0.254507
    C   C27   0.165131  0.213712  0.052951  -0.157842
    C   C28   0.834869  0.786288  0.947048  -0.157822
    H   H9    0.116921  0.222527  0.097434  0.103823
    H   H10   0.883079  0.777473  0.902565  0.103882
    C   C29   0.002988  0.884408  0.999320  -0.145278
    C   C30   0.997012  0.115592  0.000680  -0.144880
    H   H11   0.005833  0.793173  0.000184  0.087978
    H   H12   0.994167  0.206827  0.999815  0.087978
    O   O1    0.595527  0.612470  0.071793  -0.644308
    O   O2    0.404473  0.387530  0.928207  -0.644239
    O   O3    0.595200  0.614173  0.940607  -0.534036
    O   O4    0.404800  0.385827  0.059393  -0.534016
    C   C31   0.626593  0.647697  0.006158  0.598990
    C   C32   0.373407  0.352303  0.993842  0.598803
    O   O5    0.593942  0.379050  0.933558  -0.609063
    O   O6    0.406058  0.620951  0.066441  -0.609293
    O   O7    0.588404  0.379809  0.064318  -0.496541
    O   O8    0.411596  0.620192  0.935682  -0.496585
    C   C33   0.621252  0.342713  0.000195  0.631129
    C   C34   0.378748  0.657287  0.999805  0.631385
    Zn  Zn1   0.503143  0.499035  0.915321  0.921423
    Zn  Zn2   0.496857  0.500965  0.084679  0.921591
    C   C35   0.495072  0.407907  0.777758  -0.195104
    C   C36   0.504928  0.592093  0.222242  -0.195215
    N   N1    0.506680  0.506014  0.815260  0.110805
    N   N2    0.493320  0.493987  0.184740  0.110800
    C   C37   0.521093  0.602689  0.775719  -0.040998
    C   C38   0.478907  0.397311  0.224280  -0.041001
    C   C39   0.468054  0.306468  0.660531  -0.168429
    C   C40   0.531946  0.693532  0.339469  -0.168717
    C   C41   0.490535  0.405059  0.698768  0.263723
    C   C42   0.509465  0.594941  0.301232  0.263955
    C   C43   0.508910  0.501637  0.657898  -0.140819
    C   C44   0.491090  0.498363  0.342102  -0.140900
    C   C45   0.531008  0.599376  0.696533  0.247164
    C   C46   0.468992  0.400625  0.303467  0.247136
    C   C47   0.560676  0.692028  0.654798  -0.216527
    C   C48   0.439324  0.307972  0.345202  -0.216528
    C   C49   0.435906  0.210386  0.542738  -0.144396
    C   C50   0.564094  0.789614  0.457262  -0.144375
    C   C51   0.461857  0.306473  0.581573  0.162796
    C   C52   0.538143  0.693527  0.418427  0.162982
    C   C53   0.481187  0.403205  0.540799  -0.029741
    C   C54   0.518813  0.596795  0.459201  -0.029876
    C   C55   0.428105  0.211286  0.464961  -0.179236
    C   C56   0.571895  0.788714  0.535038  -0.179261
    C   C57   0.447894  0.307443  0.423821  0.203403
    C   C58   0.552106  0.692557  0.576179  0.203343
    C   C59   0.505589  0.500316  0.578953  0.046661
    C   C60   0.494411  0.499684  0.421047  0.046767
    C   C61   0.524422  0.596929  0.538147  -0.018805
    C   C62   0.475578  0.403071  0.461853  -0.018906
    H   H13   0.486142  0.332736  0.811113  0.146457
    H   H14   0.513858  0.667265  0.188887  0.146516
    H   H15   0.420524  0.132180  0.570972  0.116077
    H   H16   0.579476  0.867820  0.429027  0.116054
    H   H17   0.409381  0.132886  0.438190  0.117745
    H   H18   0.590619  0.867115  0.561810  0.117759
    Cl  Cl1   0.185168  0.940439  0.147000  -0.059371
    Cl  Cl2   0.814832  0.059561  0.853000  -0.059363
    Cl  Cl3   0.444052  0.182702  0.712059  -0.018429
    Cl  Cl4   0.555948  0.817298  0.287941  -0.018315
    Cl  Cl5   0.628792  0.795646  0.696060  -0.007988
    Cl  Cl6   0.371208  0.204354  0.303940  -0.007982
    Cl  Cl7   0.508165  0.733909  0.821991  0.013759
    Cl  Cl8   0.491835  0.266091  0.178009  0.013698
    Cl  Cl9   0.265472  0.667528  0.848903  -0.132395
    Cl  Cl10  0.734528  0.332472  0.151097  -0.132412
    Cl  Cl11  0.236504  0.393052  0.121679  -0.114968
    Cl  Cl12  0.763496  0.606948  0.878321  -0.114956
