# Generated by REPEAT Assigner based on pymatgen
data_DB0-m3_o16_o25_f0_pcu.sym.73_sqe
_audit_creation_date              2022-05-24
_audit_creation_method            REPEAT_Assigner
_cell_length_a                    12.552833
_cell_length_b                    13.718012
_cell_length_c                    15.998679
_cell_angle_alpha                 90.000117
_cell_angle_beta                  102.166931
_cell_angle_gamma                 86.649416
_cell_volume                      2688.270483
_symmetry_space_group_name_H-M    P1
_symmetry_Int_Tables_number       1
loop_
    _symmetry_equiv_pos_site_id
    _symmetry_equiv_pos_as_xyz
    1  x,y,z
loop_
    _atom_site_type_symbol
    _atom_site_label
    _atom_site_fract_x
    _atom_site_fract_y
    _atom_site_fract_z
    _atom_type_partial_charge
    O   O1   0.368102  0.626001  0.477509  -0.673346
    O   O2   0.548878  0.659308  0.508485  -0.580573
    C   C1   0.444681  0.688974  0.489388  0.719126
    O   O3   0.411998  0.482220  0.608885  -0.704168
    O   O4   0.594042  0.515312  0.637352  -0.703998
    C   C2   0.503751  0.498157  0.662117  0.914180
    Zn  Zn1  0.378299  0.477976  0.479455  1.062128
    Zn  Zn2  0.618126  0.521403  0.516198  1.045098
    O   O5   0.447039  0.339925  0.488750  -0.646817
    O   O6   0.628678  0.373450  0.517168  -0.635361
    O   O7   0.402581  0.483084  0.358324  -0.702751
    O   O8   0.583531  0.519350  0.386663  -0.709401
    C   C3   0.551240  0.311715  0.504334  0.699535
    C   C4   0.492383  0.501636  0.333488  0.903151
    C   C5   0.426240  0.567877  0.011337  -0.474311
    C   C6   0.525946  0.586191  0.975317  0.227144
    H   H1   0.548454  0.657933  0.954649  -0.006882
    H   H2   0.676765  0.532859  0.082672  0.116177
    C   C7   0.504440  0.498393  0.751931  -0.200867
    C   C8   0.491707  0.501549  0.243679  -0.169879
    C   C9   0.400540  0.481733  0.952538  0.250025
    C   C10  0.500791  0.499500  0.918078  0.361519
    C   C11  0.470521  0.413702  0.020240  -0.480268
    C   C12  0.495623  0.500305  0.077584  1.083453
    C   C13  0.570713  0.431431  0.984112  0.123376
    C   C14  0.595779  0.518041  0.043000  -0.489817
    C   C15  0.503416  0.498824  0.827080  -0.318183
    C   C16  0.492800  0.501141  0.168543  -0.453867
    H   H3   0.631042  0.374575  0.970510  0.030411
    H   H4   0.447697  0.342118  0.041010  0.118295
    H   H5   0.319402  0.467203  0.912992  -0.023852
    C   C17  0.715141  0.080432  0.486721  -0.374654
    H   H6   0.749567  0.229597  0.498772  0.076512
    H   H7   0.797422  0.061722  0.480130  0.203354
    C   C18  0.583185  0.207021  0.502722  -0.110998
    C   C19  0.305252  0.827952  0.491428  0.030108
    C   C20  0.282644  0.923021  0.510463  -0.018115
    C   C21  0.359728  0.990199  0.518916  -0.039722
    C   C22  0.460373  0.966432  0.499233  0.022434
    C   C23  0.486704  0.868835  0.482819  0.090243
    C   C24  0.534995  0.038386  0.496098  -0.041981
    C   C25  0.638270  0.011004  0.482984  0.308571
    C   C26  0.661803  0.915299  0.462372  -0.131411
    C   C27  0.585170  0.847235  0.458573  -0.118379
    C   C28  0.507427  0.138025  0.502285  -0.084247
    C   C29  0.688310  0.177307  0.498078  0.011968
    C   C30  0.411854  0.796247  0.486078  -0.148319
    H   H8   0.426260  0.165746  0.503877  0.116192
    H   H9   0.335044  0.060933  0.539399  0.069116
    H   H10  0.604503  0.778116  0.432042  0.116870
    C   C31  0.076403  0.366412  0.374922  -0.250038
    H   H11  0.240056  0.354093  0.358051  0.156287
    H   H12  0.870129  0.337041  0.348528  0.117227
    H   H13  0.048524  0.315570  0.324522  0.146497
    N   N1   0.219552  0.450502  0.456479  -0.016769
    C   C32  0.805340  0.614947  0.599751  0.288383
    C   C33  0.912358  0.637095  0.625459  -0.342316
    C   C34  0.991290  0.591486  0.588970  0.349206
    C   C35  0.962792  0.523180  0.525146  -0.160896
    C   C36  0.852956  0.502298  0.501396  0.186869
    C   C37  0.039885  0.476010  0.483590  0.129558
    C   C38  0.004406  0.410850  0.419119  0.213559
    C   C39  0.897025  0.389152  0.398061  -0.193487
    C   C40  0.822569  0.433717  0.439060  -0.109285
    C   C41  0.151401  0.492111  0.502967  -0.188456
    C   C42  0.183935  0.387993  0.393648  -0.046493
    N   N2   0.776333  0.548251  0.538893  -0.247409
    H   H14  0.187021  0.538273  0.554235  0.197223
    H   H15  0.744337  0.650800  0.629632  0.063502
    H   H16  0.073320  0.612316  0.612370  -0.056676
    H   H17  0.740156  0.413653  0.420091  0.179807
    I   I1   0.163546  0.747566  0.470545  0.073090
    I   I2   0.125631  0.966434  0.528444  -0.110190
    I   I3   0.310043  0.677401  0.036869  -0.055848
    I   I4   0.955849  0.740927  0.721571  0.052139
    I   I5   0.808302  0.865962  0.426238  -0.032301
