data_DB0-m3_o12_o29_f0_pcu.sym.101_repeat
_audit_creation_date              2024-02-20
_audit_creation_method            'Materials Studio'
_symmetry_space_group_name_H-M    'P1'
_symmetry_Int_Tables_number       1
_symmetry_cell_setting            triclinic
loop_
_symmetry_equiv_pos_as_xyz
  x,y,z
_cell_length_a                    10.0297
_cell_length_b                    11.4628
_cell_length_c                    27.6529
_cell_angle_alpha                 89.9664
_cell_angle_beta                  80.7587
_cell_angle_gamma                 92.4066
loop_
_atom_site_label
_atom_site_type_symbol
_atom_site_fract_x
_atom_site_fract_y
_atom_site_fract_z
_atom_site_U_iso_or_equiv
_atom_site_adp_type
_atom_site_occupancy
O1     O     0.41649   0.68427   0.50846   0.00000  Uiso   1.00
O2     O     0.58042   0.31639   0.49634   0.00000  Uiso   1.00
O3     O     0.64642   0.66169   0.49350   0.00000  Uiso   1.00
O4     O     0.35067   0.33887   0.51209   0.00000  Uiso   1.00
C1     C     0.54118   0.72769   0.50040   0.00000  Uiso   1.00
C2     C     0.45590   0.27282   0.50477   0.00000  Uiso   1.00
O5     O     0.38976   0.51066   0.58184   0.00000  Uiso   1.00
O6     O     0.60738   0.49082   0.42325   0.00000  Uiso   1.00
O7     O     0.61966   0.48695   0.56659   0.00000  Uiso   1.00
O8     O     0.37721   0.51281   0.43850   0.00000  Uiso   1.00
C3     C     0.50599   0.49845   0.59681   0.00000  Uiso   1.00
C4     C     0.49102   0.50222   0.40828   0.00000  Uiso   1.00
Zn1    Zn    0.34686   0.51551   0.51273   0.00000  Uiso   1.00
Zn2    Zn    0.65014   0.48509   0.49236   0.00000  Uiso   1.00
C5     C     0.47720   0.59661   0.82737   0.00000  Uiso   1.00
C6     C     0.53457   0.40776   0.17694   0.00000  Uiso   1.00
O9     O     0.44761   0.69285   0.80412   0.00000  Uiso   1.00
O10    O     0.57840   0.31631   0.19947   0.00000  Uiso   1.00
N1     N     0.51211   0.50014   0.80138   0.00000  Uiso   1.00
N2     N     0.48520   0.49921   0.20363   0.00000  Uiso   1.00
C7     C     0.54500   0.40380   0.82395   0.00000  Uiso   1.00
C8     C     0.43768   0.59015   0.18170   0.00000  Uiso   1.00
C9     C     0.39247   0.51562   0.73199   0.00000  Uiso   1.00
C10    C     0.60652   0.49474   0.27300   0.00000  Uiso   1.00
C11    C     0.39080   0.51487   0.68227   0.00000  Uiso   1.00
C12    C     0.60802   0.49548   0.32273   0.00000  Uiso   1.00
C13    C     0.62741   0.48197   0.66762   0.00000  Uiso   1.00
C14    C     0.36797   0.50892   0.33756   0.00000  Uiso   1.00
C15    C     0.62862   0.48218   0.71745   0.00000  Uiso   1.00
C16    C     0.36674   0.50799   0.28772   0.00000  Uiso   1.00
C17    C     0.51122   0.49933   0.74982   0.00000  Uiso   1.00
C18    C     0.48600   0.50067   0.25522   0.00000  Uiso   1.00
C19    C     0.50651   0.50003   0.90145   0.00000  Uiso   1.00
C20    C     0.49059   0.49877   0.10353   0.00000  Uiso   1.00
C21    C     0.47373   0.59759   0.87760   0.00000  Uiso   1.00
C22    C     0.53795   0.40657   0.12671   0.00000  Uiso   1.00
C23    C     0.43896   0.69632   0.90394   0.00000  Uiso   1.00
C24    C     0.58998   0.31391   0.09956   0.00000  Uiso   1.00
C25    C     0.54288   0.40273   0.87414   0.00000  Uiso   1.00
C26    C     0.43973   0.59090   0.13152   0.00000  Uiso   1.00
C27    C     0.50834   0.49829   0.64973   0.00000  Uiso   1.00
C28    C     0.48873   0.50243   0.35535   0.00000  Uiso   1.00
H1     H     0.72069   0.46889   0.64303   0.00000  Uiso   1.00
H2     H     0.27326   0.51404   0.36222   0.00000  Uiso   1.00
H3     H     0.72245   0.47018   0.73100   0.00000  Uiso   1.00
H4     H     0.27152   0.51159   0.27429   0.00000  Uiso   1.00
H5     H     0.41564   0.77515   0.88615   0.00000  Uiso   1.00
H6     H     0.63039   0.24126   0.11654   0.00000  Uiso   1.00
C29    C     0.45049   0.59491   0.03016   0.00000  Uiso   1.00
C30    C     0.53987   0.40135   0.97513   0.00000  Uiso   1.00
C31    C     0.54226   0.40333   0.02567   0.00000  Uiso   1.00
C32    C     0.46133   0.59768   0.97901   0.00000  Uiso   1.00
C33    C     0.49439   0.49897   0.05296   0.00000  Uiso   1.00
C34    C     0.50263   0.49970   0.95202   0.00000  Uiso   1.00
C35    C     0.39547   0.68555   0.05942   0.00000  Uiso   1.00
C36    C     0.57276   0.30277   0.94691   0.00000  Uiso   1.00
C37    C     0.39077   0.68348   0.10928   0.00000  Uiso   1.00
C38    C     0.57444   0.30385   0.89719   0.00000  Uiso   1.00
O11    O     0.39173   0.68201   0.20860   0.00000  Uiso   1.00
O12    O     0.57664   0.30744   0.79765   0.00000  Uiso   1.00
C39    C     0.43312   0.69678   0.95385   0.00000  Uiso   1.00
C40    C     0.59264   0.31218   0.04981   0.00000  Uiso   1.00
H7     H     0.70398   0.49083   0.33550   0.00000  Uiso   1.00
H8     H     0.29623   0.52771   0.66943   0.00000  Uiso   1.00
H9     H     0.70076   0.49048   0.24795   0.00000  Uiso   1.00
H10    H     0.29968   0.52792   0.75701   0.00000  Uiso   1.00
H11    H     0.34752   0.75597   0.13033   0.00000  Uiso   1.00
H12    H     0.60064   0.22527   0.87694   0.00000  Uiso   1.00
H13    H     0.35089   0.75951   0.04550   0.00000  Uiso   1.00
H14    H     0.59458   0.22055   0.96187   0.00000  Uiso   1.00
H15    H     0.40922   0.77885   0.97113   0.00000  Uiso   1.00
H16    H     0.63928   0.23815   0.03149   0.00000  Uiso   1.00
C41    C     0.56860   0.85515   0.50067   0.00000  Uiso   1.00
C42    C     0.42897   0.14508   0.50721   0.00000  Uiso   1.00
C43    C     0.47786   0.93743   0.49755   0.00000  Uiso   1.00
C44    C     0.52178   0.06313   0.49610   0.00000  Uiso   1.00
H17    H     0.32384   0.11828   0.51847   0.00000  Uiso   1.00
H18    H     0.67236   0.88115   0.50286   0.00000  Uiso   1.00
H19    H     0.11585   0.44022   0.46714   0.00000  Uiso   1.00
H20    H     0.88111   0.56022   0.53798   0.00000  Uiso   1.00
N3     N     0.84952   0.46366   0.47832   0.00000  Uiso   1.00
N4     N     0.14747   0.53688   0.52677   0.00000  Uiso   1.00
C45    C     0.92537   0.50900   0.50703   0.00000  Uiso   1.00
C46    C     0.07161   0.49152   0.49805   0.00000  Uiso   1.00
H21    H     0.09930   0.58518   0.55518   0.00000  Uiso   1.00
H22    H     0.89773   0.41558   0.44984   0.00000  Uiso   1.00
C47    C     0.66655   0.09444   0.48149   0.00000  Uiso   1.00
O13    O     0.73113   0.13936   0.51090   0.00000  Uiso   1.00
N5     N     0.73449   0.06127   0.43450   0.00000  Uiso   1.00
H23    H     0.83559   0.09001   0.43185   0.00000  Uiso   1.00
H24    H     0.69225   0.10617   0.40820   0.00000  Uiso   1.00
C48    C     0.33581   0.90594   0.49427   0.00000  Uiso   1.00
O14    O     0.26012   0.86680   0.53008   0.00000  Uiso   1.00
N6     N     0.28319   0.93155   0.45066   0.00000  Uiso   1.00
H25    H     0.24605   0.85297   0.43785   0.00000  Uiso   1.00
H26    H     0.36358   0.96285   0.42451   0.00000  Uiso   1.00
