# Generated by REPEAT Assigner based on pymatgen
data_DB0-m2_o11_o21_f0_pcu.sym.44_sqe
_audit_creation_date              2022-05-24
_audit_creation_method            REPEAT_Assigner
_cell_length_a                    9.550631
_cell_length_b                    11.014055
_cell_length_c                    14.036008
_cell_angle_alpha                 89.991936
_cell_angle_beta                  85.325509
_cell_angle_gamma                 90.019923
_cell_volume                      1471.552964
_symmetry_space_group_name_H-M    P1
_symmetry_Int_Tables_number       1
loop_
    _symmetry_equiv_pos_site_id
    _symmetry_equiv_pos_as_xyz
    1  x,y,z
loop_
    _atom_site_type_symbol
    _atom_site_label
    _atom_site_fract_x
    _atom_site_fract_y
    _atom_site_fract_z
    _atom_type_partial_charge
    O   O1   0.387759  0.664572  0.504743  -0.480225
    O   O2   0.629942  0.665861  0.498989  -0.537703
    C   C1   0.508558  0.721847  0.500097  0.576852
    O   O3   0.391583  0.502781  0.654368  -0.623548
    O   O4   0.633800  0.500566  0.639228  -0.647631
    C   C2   0.513396  0.501612  0.691182  0.935876
    Cu  Cu1  0.368821  0.488686  0.517778  0.953185
    Cu  Cu2  0.650113  0.489384  0.499889  0.815958
    O   O5   0.389948  0.312532  0.521147  -0.618052
    O   O6   0.630912  0.313133  0.510091  -0.586713
    O   O7   0.385729  0.482186  0.378286  -0.559991
    O   O8   0.626647  0.486187  0.362981  -0.482152
    C   C3   0.510312  0.256006  0.517354  0.718453
    C   C4   0.505524  0.477683  0.326423  0.748775
    C   C5   0.503810  0.468040  0.224505  -0.279350
    C   C6   0.499752  0.443897  0.037303  -0.102223
    C   C7   0.518997  0.539556  0.980011  -0.120808
    C   C8   0.516854  0.525100  0.878259  0.088942
    C   C9   0.502079  0.457866  0.139092  0.069155
    C   C10  0.515187  0.513704  0.792937  -0.350588
    H   H1   0.536354  0.628509  0.009933  0.165133
    H   H2   0.482441  0.355013  0.007243  0.161381
    C   C11  0.622673  0.055769  0.504468  -0.006460
    C   C12  0.506443  0.123060  0.519910  -0.284334
    H   H3   0.723837  0.100372  0.493367  0.126499
    H   H4   0.404122  0.082126  0.534156  0.155495
    C   C13  0.621624  0.921400  0.503795  -0.043314
    C   C14  0.505201  0.854848  0.497843  -0.244532
    H   H5   0.721851  0.876117  0.506792  0.132153
    H   H6   0.403856  0.896231  0.491650  0.173212
    C   C15  0.073701  0.578073  0.546547  0.231281
    N   N1   0.158400  0.487360  0.531544  -0.344532
    H   H7   0.112710  0.408090  0.511216  0.267889
    C   C16  0.920389  0.563587  0.541946  -0.031023
    N   N2   0.860344  0.490643  0.485968  -0.108355
    H   H8   0.855381  0.613087  0.595421  0.175406
    C   C17  0.930169  0.462803  0.395500  0.620013
    O   O9   0.892555  0.375390  0.350807  -0.483118
    O   O10  0.034600  0.538808  0.354049  -0.524077
    H   H9   0.069722  0.506858  0.288841  0.389843
    C   C18  0.117804  0.692024  0.589596  0.484468
    O   O11  0.058302  0.786357  0.572033  -0.459819
    O   O12  0.212245  0.691088  0.659900  -0.457610
    H   H10  0.224535  0.776157  0.685154  0.386186
