# Generated by REPEAT Assigner based on pymatgen
data_DB0-m29_o88_o42_f0_pts.sym.41
_audit_creation_date              2022-05-24
_audit_creation_method            REPEAT_Assigner
_cell_length_a                    15.161240
_cell_length_b                    9.293589
_cell_length_c                    15.816026
_cell_angle_alpha                 92.228074
_cell_angle_beta                  103.278458
_cell_angle_gamma                 107.011518
_cell_volume                      2060.521310
_symmetry_space_group_name_H-M    P1
_symmetry_Int_Tables_number       1
loop_
    _symmetry_equiv_pos_site_id
    _symmetry_equiv_pos_as_xyz
    1  x,y,z
loop_
    _atom_site_type_symbol
    _atom_site_label
    _atom_site_fract_x
    _atom_site_fract_y
    _atom_site_fract_z
    _atom_type_partial_charge
    C   C1   0.775699  0.901129  0.140923  -0.046899
    H   H1   0.752521  0.847089  0.194773  0.105312
    C   C2   0.856864  0.887523  0.121546  -0.198958
    H   H2   0.893403  0.818600  0.159714  0.166129
    C   C3   0.889214  0.958802  0.054345  0.174675
    C   C4   0.836010  0.040160  0.005303  -0.052611
    H   H3   0.861110  0.101120  0.954447  0.120010
    C   C5   0.748151  0.038944  0.018289  -0.052478
    C   C6   0.721609  0.977508  0.090754  0.032197
    C   C7   0.979586  0.946968  0.037621  -0.262149
    C   C8   0.994303  0.943905  0.956484  -0.284480
    C   C9   0.097469  0.887820  0.866332  -0.202974
    H   H4   0.035448  0.813559  0.819755  0.168244
    C   C10  0.185259  0.909323  0.848946  -0.091695
    H   H5   0.189420  0.858156  0.788025  0.137486
    C   C11  0.267131  0.994872  0.908965  0.148976
    C   C12  0.260455  0.055335  0.987778  -0.206284
    C   C13  0.172408  0.051494  0.999586  0.025246
    H   H6   0.169464  0.115002  0.056800  0.109277
    C   C14  0.089701  0.961398  0.941072  0.162626
    O   O1   0.548434  0.226639  0.784021  -0.545722
    C   C15  0.503709  0.230593  0.702691  0.560234
    O   O2   0.423440  0.162272  0.914895  -0.443730
    O   O3   0.446675  0.105519  0.654451  -0.490728
    O   O4   0.378734  0.930812  0.838284  -0.527702
    C   C16  0.359437  0.029264  0.886923  0.466218
    Fe  Fe1  0.508539  0.022993  0.822792  1.395006
    O   O5   0.588186  0.034884  0.944807  -0.428925
    O   O6   0.705367  0.118443  0.875666  -0.497936
    C   C17  0.679527  0.077050  0.946975  0.522953
    O   O7   0.522694  0.893478  0.725428  -0.483414
    O   O8   0.523787  0.744483  0.835170  -0.493595
    C   C18  0.527361  0.764519  0.754203  0.495354
    O   O9   0.511272  0.194119  0.277873  -0.479938
    O   O10  0.520022  0.349858  0.171219  -0.435556
    C   C19  0.517304  0.328580  0.252255  0.476275
    O   O11  0.410940  0.034449  0.061814  -0.503131
    O   O12  0.335666  0.147170  0.139373  -0.494225
    C   C20  0.342423  0.092909  0.064128  0.683210
    O   O13  0.573399  0.967827  0.344302  -0.500268
    O   O14  0.624713  0.103588  0.146839  -0.567657
    C   C21  0.633706  0.978555  0.113134  0.614187
    O   O15  0.453144  0.849982  0.225070  -0.616207
    C   C22  0.506058  0.845640  0.302663  0.605964
    O   O16  0.568685  0.848833  0.111951  -0.473706
    Fe  Fe2  0.500982  0.044300  0.178310  1.406260
    C   C23  0.514017  0.451416  0.311687  0.173962
    C   C24  0.519861  0.435881  0.399451  -0.256717
    H   H7   0.531532  0.334146  0.422653  0.166605
    C   C25  0.513658  0.550166  0.455683  0.174399
    C   C26  0.505889  0.682997  0.421236  -0.294614
    H   H8   0.499584  0.776582  0.458793  0.178475
    C   C27  0.502932  0.699590  0.334721  0.156597
    C   C28  0.504694  0.583226  0.279519  -0.259005
    C   C29  0.529178  0.655925  0.609433  -0.216195
    H   H9   0.541097  0.768811  0.591400  0.145660
    C   C30  0.527188  0.638395  0.695296  0.133313
    C   C31  0.521909  0.500015  0.725435  -0.225438
    C   C32  0.511689  0.376995  0.668851  0.100664
    C   C33  0.504251  0.390871  0.580986  -0.206839
    H   H10  0.489740  0.288873  0.538657  0.159149
    C   C34  0.516323  0.532104  0.549904  0.096987
    H   H11  0.502475  0.598733  0.211810  0.209699
    H   H12  0.522004  0.485563  0.792889  0.177132
    C   C35  0.050387  0.923407  0.112410  0.861962
    O   O17  0.062195  0.986932  0.184949  -0.524241
    O   O18  0.099322  0.826980  0.101540  -0.379634
    C   C36  0.161853  0.798073  0.171326  0.043555
    H   H13  0.194647  0.716876  0.148351  0.080996
    H   H14  0.123225  0.747969  0.220095  0.047311
    H   H15  0.218722  0.904688  0.201829  0.047257
    C   C37  0.912743  0.908009  0.879518  0.914532
    O   O19  0.921532  0.964544  0.812407  -0.544749
    O   O20  0.829704  0.805941  0.881875  -0.394384
    C   C38  0.754465  0.762313  0.809410  0.070531
    H   H16  0.694646  0.677516  0.826229  0.094063
    H   H17  0.775127  0.710575  0.755665  0.022551
    H   H18  0.732417  0.861871  0.788647  0.051548
