# Generated by REPEAT Assigner based on pymatgen
data_DB0-m2_o2_o21_f0_pcu.sym.27_sqe
_audit_creation_date              2022-05-24
_audit_creation_method            REPEAT_Assigner
_cell_length_a                    13.675392
_cell_length_b                    14.049620
_cell_length_c                    15.146737
_cell_angle_alpha                 89.988389
_cell_angle_beta                  89.996852
_cell_angle_gamma                 85.337696
_cell_volume                      2900.574519
_symmetry_space_group_name_H-M    P1
_symmetry_Int_Tables_number       1
loop_
    _symmetry_equiv_pos_site_id
    _symmetry_equiv_pos_as_xyz
    1  x,y,z
loop_
    _atom_site_type_symbol
    _atom_site_label
    _atom_site_fract_x
    _atom_site_fract_y
    _atom_site_fract_z
    _atom_type_partial_charge
    O   O1   0.597298  0.508492  0.357020  -0.518045
    O   O2   0.418267  0.511575  0.607611  -0.538159
    O   O3   0.429637  0.504148  0.351387  -0.620863
    O   O4   0.585177  0.515699  0.613436  -0.586206
    C   C1   0.515457  0.503560  0.312695  0.697356
    C   C2   0.499417  0.515488  0.652692  0.712990
    O   O5   0.600964  0.370024  0.485508  -0.621848
    O   O6   0.414459  0.649945  0.479230  -0.597175
    O   O7   0.432606  0.372554  0.486070  -0.559023
    O   O8   0.582846  0.647465  0.479061  -0.582524
    C   C3   0.519847  0.326781  0.486814  0.828512
    C   C4   0.495567  0.693195  0.478430  0.825042
    Cu  Cu1  0.605437  0.508588  0.485800  0.773582
    Cu  Cu2  0.409847  0.511401  0.478984  0.837566
    C   C5   0.487953  0.795607  0.479559  -0.311885
    C   C6   0.527245  0.224384  0.489967  -0.322370
    C   C7   0.467825  0.984338  0.484620  0.093652
    C   C8   0.545162  0.035643  0.497374  0.051063
    C   C9   0.534533  0.138384  0.493053  0.080806
    C   C10  0.479880  0.881625  0.481681  0.055987
    C   C11  0.581271  0.453623  0.073843  -0.328951
    C   C12  0.416075  0.518554  0.892605  -0.400859
    H   H1   0.631774  0.407559  0.035104  0.148366
    H   H2   0.352313  0.514393  0.933683  0.177047
    C   C13  0.585755  0.448129  0.164952  0.334021
    C   C14  0.409116  0.522026  0.800832  0.396330
    C   C15  0.517602  0.503982  0.215550  -0.210662
    C   C16  0.496168  0.518062  0.750767  -0.326767
    C   C17  0.446131  0.562090  0.172949  -0.062102
    C   C18  0.585298  0.515413  0.794779  0.059263
    H   H3   0.392910  0.605973  0.210940  0.118755
    H   H4   0.653707  0.513461  0.758944  0.074439
    C   C19  0.442730  0.567181  0.082211  -0.226409
    C   C20  0.590018  0.514917  0.885448  -0.253737
    H   H5   0.387287  0.615326  0.051300  0.127279
    H   H6   0.660880  0.514411  0.917078  0.114777
    C   C21  0.510353  0.512842  0.031906  0.142105
    C   C22  0.505565  0.515907  0.934894  0.190702
    C   C23  0.107286  0.589321  0.510738  -0.190052
    C   C24  0.905135  0.455397  0.426793  -0.190923
    H   H7   0.065627  0.652866  0.534164  0.114362
    H   H8   0.943850  0.415574  0.374808  0.119844
    C   C25  0.208112  0.588958  0.507414  0.023550
    C   C26  0.804650  0.454352  0.430381  0.031257
    H   H9   0.242069  0.650548  0.531619  0.114480
    H   H10  0.768287  0.411586  0.383501  0.106108
    N   N1   0.263399  0.513503  0.474242  -0.076126
    N   N2   0.751820  0.506411  0.490795  -0.008921
    C   C27  0.220465  0.435424  0.447778  0.083939
    C   C28  0.796967  0.560043  0.549376  -0.064528
    H   H11  0.264331  0.374103  0.422598  0.087367
    H   H12  0.754280  0.602345  0.597362  0.180876
    C   C29  0.120080  0.432310  0.452469  -0.216209
    C   C30  0.897932  0.560847  0.549270  -0.179452
    H   H13  0.089280  0.367061  0.433276  0.104706
    H   H14  0.931786  0.601957  0.599269  0.103486
    C   C31  0.061598  0.510162  0.483497  0.131780
    C   C32  0.953637  0.508745  0.486847  0.143438
    C   C33  0.645742  0.988722  0.513904  -0.234198
    C   C34  0.652521  0.946141  0.604298  0.257916
    C   C35  0.681092  0.850274  0.615535  -0.199874
    C   C36  0.688062  0.811654  0.699233  -0.104237
    C   C37  0.667210  0.868657  0.771939  -0.117734
    C   C38  0.639766  0.964478  0.761014  -0.091801
    C   C39  0.632637  0.003251  0.677411  -0.229278
    H   H15  0.698895  0.044107  0.509737  0.075763
    H   H16  0.665574  0.934239  0.462613  0.085294
    H   H17  0.698133  0.804906  0.559074  0.114718
    H   H18  0.710081  0.736614  0.707916  0.096565
    H   H19  0.672853  0.838324  0.837507  0.095018
    H   H20  0.624049  0.009344  0.818063  0.101593
    H   H21  0.611910  0.078669  0.669709  0.140658
    C   C40  0.366793  0.031059  0.470126  -0.254828
    C   C41  0.327091  0.077476  0.552843  0.252633
    C   C42  0.294001  0.173029  0.552864  -0.223797
    C   C43  0.256824  0.215694  0.629076  -0.076123
    C   C44  0.251904  0.162890  0.705395  -0.149237
    C   C45  0.283742  0.067262  0.705360  -0.088108
    C   C46  0.321000  0.024487  0.629203  -0.214900
    H   H22  0.318139  0.975089  0.451043  0.086133
    H   H23  0.367097  0.083282  0.415251  0.077471
    H   H24  0.297071  0.214929  0.493305  0.145836
    H   H25  0.231418  0.290601  0.628925  0.091423
    H   H26  0.222716  0.196354  0.765129  0.103251
    H   H27  0.279366  0.025698  0.765084  0.104340
    H   H28  0.345010  0.949277  0.629792  0.131024
    C   C47  0.660382  0.375747  0.203133  -0.445028
    C   C48  0.761218  0.400504  0.179259  0.327220
    C   C49  0.823461  0.336193  0.132822  -0.263337
    C   C50  0.916344  0.359284  0.110360  -0.113069
    C   C51  0.947468  0.446504  0.134237  -0.085663
    C   C52  0.885576  0.510842  0.180417  -0.093167
    C   C53  0.792635  0.487967  0.202894  -0.168606
    H   H29  0.647527  0.305166  0.174686  0.111895
    H   H30  0.654401  0.368348  0.275308  0.136394
    H   H31  0.800102  0.267480  0.113695  0.129554
    H   H32  0.964870  0.308858  0.074059  0.112042
    H   H33  0.020356  0.464448  0.116730  0.077864
    H   H34  0.909965  0.579251  0.199226  0.096153
    H   H35  0.744869  0.538903  0.239298  0.090068
    C   C54  0.309220  0.527982  0.757340  -0.467751
    C   C55  0.224976  0.544042  0.819776  0.366626
    C   C56  0.167745  0.470365  0.840116  -0.343523
    C   C57  0.088714  0.486203  0.896275  -0.031885
    C   C58  0.066097  0.575702  0.931591  -0.120871
    C   C59  0.122394  0.649546  0.910644  -0.105053
    C   C60  0.201549  0.633883  0.854650  -0.228027
    H   H36  0.301137  0.460707  0.720791  0.149814
    H   H37  0.303038  0.589067  0.710771  0.132367
    H   H38  0.184732  0.399888  0.812768  0.160151
    H   H39  0.044340  0.428392  0.912528  0.089008
    H   H40  0.003991  0.588050  0.975435  0.095889
    H   H41  0.104348  0.719816  0.938035  0.105890
    H   H42  0.245318  0.692126  0.838321  0.118489
