# Generated by REPEAT Assigner based on pymatgen
data_DB0-m2_o3_o14_f0_nbo.sym.112_sqe
_audit_creation_date              2022-05-24
_audit_creation_method            REPEAT_Assigner
_cell_length_a                    43.963390
_cell_length_b                    38.548561
_cell_length_c                    21.508832
_cell_angle_alpha                 90.000000
_cell_angle_beta                  61.374042
_cell_angle_gamma                 90.000000
_cell_volume                      31995.943856
_symmetry_space_group_name_H-M    P1
_symmetry_Int_Tables_number       1
loop_
    _symmetry_equiv_pos_site_id
    _symmetry_equiv_pos_as_xyz
    1  x,y,z
loop_
    _atom_site_type_symbol
    _atom_site_label
    _atom_site_fract_x
    _atom_site_fract_y
    _atom_site_fract_z
    _atom_type_partial_charge
    O   O1    0.048819  0.526473  0.430272  -0.622257
    O   O2    0.951181  0.526473  0.569728  -0.622311
    O   O3    0.548819  0.026473  0.430272  -0.622223
    O   O4    0.451181  0.026473  0.569728  -0.622299
    O   O5    0.049736  0.469595  0.465111  -0.655746
    O   O6    0.950264  0.469595  0.534889  -0.655756
    O   O7    0.549736  0.969595  0.465111  -0.655731
    O   O8    0.450264  0.969595  0.534889  -0.655746
    C   C1    0.065660  0.498511  0.432480  0.841341
    C   C2    0.934340  0.498511  0.567520  0.841459
    C   C3    0.565660  0.998511  0.432480  0.841270
    C   C4    0.434340  0.998511  0.567520  0.841394
    O   O9    0.012251  0.526490  0.575599  -0.536404
    O   O10   0.987749  0.526490  0.424401  -0.536499
    O   O11   0.512251  0.026490  0.575599  -0.536377
    O   O12   0.487749  0.026490  0.424401  -0.536481
    O   O13   0.992327  0.469519  0.596784  -0.596975
    O   O14   0.007673  0.469519  0.403216  -0.596991
    O   O15   0.492327  0.969519  0.596784  -0.596979
    O   O16   0.507673  0.969519  0.403216  -0.596994
    C   C5    0.004037  0.497632  0.613489  0.654760
    C   C6    0.995963  0.497632  0.386511  0.654932
    C   C7    0.504037  0.997632  0.613489  0.654799
    C   C8    0.495963  0.997632  0.386511  0.654917
    Cu  Cu1   0.000000  0.531805  0.500000  1.000222
    Cu  Cu2   0.500000  0.031805  0.500000  1.000236
    Cu  Cu3   0.000000  0.464227  0.500000  0.986240
    Cu  Cu4   0.500000  0.964227  0.500000  0.986176
    H   H1    0.955855  0.475415  0.737010  0.119982
    H   H2    0.044145  0.475415  0.262990  0.119938
    H   H3    0.455855  0.975415  0.737010  0.119942
    H   H4    0.544145  0.975415  0.262990  0.119951
    C   C9    0.065325  0.518972  0.621595  -0.185395
    C   C10   0.934675  0.518972  0.378405  -0.185822
    C   C11   0.565325  0.018972  0.621595  -0.185428
    C   C12   0.434675  0.018972  0.378405  -0.185709
    H   H5    0.068204  0.515034  0.569475  0.136348
    H   H6    0.931796  0.515034  0.430525  0.136376
    H   H7    0.568204  0.015034  0.569475  0.136354
    H   H8    0.431796  0.015034  0.430525  0.136351
    C   C13   0.093036  0.533009  0.625718  -0.093980
    C   C14   0.906964  0.533009  0.374282  -0.093618
    C   C15   0.593036  0.033009  0.625718  -0.093967
    C   C16   0.406964  0.033009  0.374282  -0.093699
    H   H9    0.116045  0.540564  0.577918  0.102922
    H   H10   0.883955  0.540564  0.422082  0.102863
    H   H11   0.616045  0.040564  0.577918  0.102918
    H   H12   0.383955  0.040564  0.422082  0.102875
    C   C17   0.091250  0.537928  0.690539  -0.068349
    C   C18   0.908750  0.537928  0.309460  -0.068639
    C   C19   0.591250  0.037928  0.690539  -0.068359
    C   C20   0.408750  0.037928  0.309460  -0.068558
    H   H13   0.112685  0.549801  0.693912  0.105071
    H   H14   0.887315  0.549801  0.306088  0.105116
    H   H15   0.612685  0.049801  0.693912  0.105069
    H   H16   0.387315  0.049801  0.306088  0.105105
    C   C21   0.062450  0.527251  0.751186  -0.325727
    C   C22   0.937550  0.527251  0.248814  -0.325355
    C   C23   0.562450  0.027251  0.751186  -0.325692
    C   C24   0.437550  0.027251  0.248814  -0.325514
    H   H17   0.062190  0.532249  0.800703  0.174713
    H   H18   0.937810  0.532249  0.199296  0.174639
    H   H19   0.562190  0.032249  0.800703  0.174701
    H   H20   0.437810  0.032249  0.199296  0.174666
    C   C25   0.034824  0.511567  0.747691  0.257610
    C   C26   0.965176  0.511567  0.252309  0.257013
    C   C27   0.534824  0.011567  0.747691  0.257537
    C   C28   0.465176  0.011567  0.252309  0.257342
    C   C29   0.035413  0.509503  0.682568  0.166268
    C   C30   0.964587  0.509503  0.317432  0.166859
    C   C31   0.535413  0.009503  0.682568  0.166375
    C   C32   0.464587  0.009503  0.317432  0.166631
    C   C33   0.006474  0.497179  0.679076  -0.161194
    C   C34   0.993526  0.497179  0.320924  -0.161522
    C   C35   0.506474  0.997179  0.679076  -0.161349
    C   C36   0.493526  0.997179  0.320924  -0.161419
    C   C37   0.978354  0.485073  0.739401  -0.083013
    C   C38   0.021646  0.485073  0.260599  -0.082784
    C   C39   0.478354  0.985073  0.739401  -0.082845
    C   C40   0.521646  0.985073  0.260599  -0.082867
    H   H21   0.955916  0.476087  0.849908  0.137642
    H   H22   0.044084  0.476087  0.150092  0.137669
    H   H23   0.455916  0.976087  0.849908  0.137648
    H   H24   0.544084  0.976087  0.150092  0.137649
    C   C41   0.978200  0.485981  0.803350  -0.099142
    C   C42   0.021800  0.485981  0.196650  -0.099330
    C   C43   0.478200  0.985981  0.803350  -0.099234
    C   C44   0.521800  0.985981  0.196650  -0.099221
    C   C45   0.006200  0.498910  0.808262  -0.243906
    C   C46   0.993800  0.498910  0.191738  -0.243599
    C   C47   0.506200  0.998910  0.808262  -0.243856
    C   C48   0.493800  0.998910  0.191738  -0.243817
    C   C49   0.377909  0.490385  0.067418  -0.085640
    C   C50   0.622091  0.490385  0.932582  -0.085870
    C   C51   0.877909  0.990385  0.067418  -0.085641
    C   C52   0.122091  0.990385  0.932582  -0.085878
    H   H25   0.391144  0.486600  0.010720  0.120679
    H   H26   0.608856  0.486600  0.989279  0.120683
    H   H27   0.891144  0.986600  0.010720  0.120679
    H   H28   0.108856  0.986600  0.989279  0.120685
    C   C53   0.342191  0.489976  0.103108  -0.155420
    C   C54   0.657809  0.489976  0.896892  -0.155300
    C   C55   0.842191  0.989976  0.103108  -0.155420
    C   C56   0.157809  0.989976  0.896892  -0.155296
    H   H29   0.328536  0.486470  0.073093  0.114761
    H   H30   0.671464  0.486470  0.926907  0.114756
    H   H31   0.828536  0.986470  0.073093  0.114761
    H   H32   0.171464  0.986470  0.926907  0.114756
    C   C57   0.324304  0.495055  0.175592  0.102663
    C   C58   0.675696  0.495055  0.824408  0.102474
    C   C59   0.824304  0.995055  0.175592  0.102661
    C   C60   0.175696  0.995055  0.824408  0.102476
    C   C61   0.342781  0.500548  0.211739  -0.157989
    C   C62   0.657220  0.500548  0.788261  -0.157911
    C   C63   0.842781  0.000548  0.211739  -0.157990
    C   C64   0.157220  0.000548  0.788261  -0.157917
    H   H33   0.329623  0.503715  0.268583  0.115592
    H   H34   0.670377  0.503715  0.731417  0.115605
    H   H35   0.829623  0.003715  0.268583  0.115592
    H   H36   0.170377  0.003715  0.731417  0.115605
    C   C65   0.378488  0.501247  0.175983  -0.073083
    C   C66   0.621512  0.501247  0.824017  -0.073401
    C   C67   0.878488  0.001247  0.175983  -0.073080
    C   C68   0.121512  0.001247  0.824017  -0.073402
    H   H37   0.392193  0.505415  0.205720  0.103832
    H   H38   0.607807  0.505415  0.794280  0.103907
    H   H39   0.892193  0.005415  0.205720  0.103830
    H   H40   0.107807  0.005415  0.794280  0.103909
    C   C69   0.396274  0.496164  0.103599  -0.057649
    C   C70   0.603726  0.496164  0.896401  -0.056986
    C   C71   0.896274  0.996164  0.103599  -0.057665
    C   C72   0.103726  0.996164  0.896401  -0.056987
    C   C73   0.268336  0.517735  0.269240  -0.104531
    C   C74   0.731664  0.517735  0.730760  -0.104627
    C   C75   0.768336  0.017735  0.269240  -0.104531
    C   C76   0.231664  0.017735  0.730760  -0.104612
    H   H41   0.281983  0.535979  0.285082  0.108791
    H   H42   0.718017  0.535979  0.714918  0.108818
    H   H43   0.781983  0.035979  0.285082  0.108789
    H   H44   0.218017  0.035979  0.714918  0.108816
    C   C77   0.232656  0.518108  0.304521  -0.181621
    C   C78   0.767344  0.518108  0.695479  -0.181646
    C   C79   0.732656  0.018108  0.304521  -0.181620
    C   C80   0.267344  0.018108  0.695479  -0.181661
    H   H45   0.219582  0.535669  0.348645  0.114687
    H   H46   0.780418  0.535669  0.651355  0.114672
    H   H47   0.719582  0.035669  0.348645  0.114686
    H   H48   0.280418  0.035669  0.651355  0.114673
    C   C81   0.214084  0.496032  0.284534  0.074587
    C   C82   0.785916  0.496032  0.715466  0.074668
    C   C83   0.714084  0.996032  0.284534  0.074589
    C   C84   0.285916  0.996032  0.715466  0.074683
    C   C85   0.231869  0.473200  0.229202  -0.143527
    C   C86   0.768131  0.473200  0.770798  -0.143596
    C   C87   0.731869  0.973200  0.229202  -0.143523
    C   C88   0.268131  0.973200  0.770798  -0.143595
    H   H49   0.218097  0.455926  0.211809  0.121521
    H   H50   0.781903  0.455926  0.788191  0.121552
    H   H51   0.718097  0.955926  0.211809  0.121520
    H   H52   0.281903  0.955926  0.788191  0.121543
    C   C89   0.267615  0.472721  0.194044  -0.137350
    C   C90   0.732385  0.472721  0.805956  -0.137377
    C   C91   0.767615  0.972721  0.194044  -0.137355
    C   C92   0.232385  0.972721  0.805956  -0.137376
    H   H53   0.280760  0.454244  0.151689  0.113066
    H   H54   0.719240  0.454244  0.848311  0.113059
    H   H55   0.780760  0.954244  0.151689  0.113066
    H   H56   0.219240  0.954244  0.848311  0.113059
    C   C93   0.286165  0.495087  0.213603  0.051374
    C   C94   0.713835  0.495087  0.786397  0.051548
    C   C95   0.786165  0.995087  0.213603  0.051378
    C   C96   0.213835  0.995087  0.786397  0.051541
    C   C97   0.156920  0.466780  0.336269  -0.201271
    C   C98   0.843080  0.466780  0.663731  -0.201368
    C   C99   0.656920  0.966780  0.336269  -0.201270
    C   C100  0.343080  0.966780  0.663731  -0.201264
    H   H57   0.169631  0.441882  0.320487  0.125521
    H   H58   0.830369  0.441882  0.679513  0.125528
    H   H59   0.669631  0.941882  0.320487  0.125519
    H   H60   0.330369  0.941882  0.679513  0.125516
    C   C101  0.121242  0.467882  0.372794  -0.012331
    C   C102  0.878758  0.467882  0.627206  -0.012216
    C   C103  0.621242  0.967882  0.372794  -0.012336
    C   C104  0.378758  0.967882  0.627206  -0.012337
    H   H61   0.107062  0.443836  0.382395  0.123415
    H   H62   0.892938  0.443836  0.617605  0.123393
    H   H63   0.607062  0.943836  0.382395  0.123415
    H   H64   0.392938  0.943836  0.617605  0.123411
    C   C105  0.103834  0.499064  0.396022  -0.264286
    C   C106  0.896166  0.499064  0.603978  -0.264423
    C   C107  0.603834  0.999064  0.396022  -0.264241
    C   C108  0.396166  0.999064  0.603978  -0.264288
    C   C109  0.123054  0.529615  0.382766  0.101246
    C   C110  0.876946  0.529615  0.617233  0.101407
    C   C111  0.623054  0.029615  0.382766  0.101226
    C   C112  0.376946  0.029615  0.617234  0.101317
    C   C113  0.158767  0.528223  0.344344  -0.252291
    C   C114  0.841233  0.528223  0.655656  -0.252406
    C   C115  0.658767  0.028223  0.344344  -0.252277
    C   C116  0.341233  0.028223  0.655656  -0.252347
    H   H65   0.173361  0.552034  0.333386  0.157915
    H   H66   0.826639  0.552034  0.666614  0.157965
    H   H67   0.673361  0.052034  0.333386  0.157910
    H   H68   0.326639  0.052034  0.666614  0.157958
    C   C117  0.175965  0.496985  0.321727  0.150098
    C   C118  0.824035  0.496985  0.678273  0.150142
    C   C119  0.675965  0.996985  0.321727  0.150093
    C   C120  0.324035  0.996985  0.678273  0.150079
    O   O17   0.972102  0.447306  0.006887  -0.577924
    O   O18   0.027898  0.447306  0.993113  -0.577912
    O   O19   0.472102  0.947306  0.006887  -0.577936
    O   O20   0.527898  0.947306  0.993113  -0.577931
    C   C121  0.000000  0.430990  0.000000  0.611281
    C   C122  0.500000  0.930990  0.000000  0.611306
    O   O21   0.974457  0.506602  0.933515  -0.643672
    O   O22   0.025543  0.506602  0.066485  -0.643683
    O   O23   0.474457  0.006602  0.933515  -0.643674
    O   O24   0.525543  0.006602  0.066485  -0.643694
    O   O25   0.031405  0.487219  0.883790  -0.621175
    O   O26   0.968595  0.487219  0.116210  -0.621149
    O   O27   0.531405  0.987219  0.883790  -0.621183
    O   O28   0.468595  0.987219  0.116210  -0.621161
    C   C123  0.004320  0.498243  0.878225  0.836058
    C   C124  0.995680  0.498243  0.121775  0.835989
    C   C125  0.504320  0.998243  0.878225  0.836072
    C   C126  0.495680  0.998243  0.121775  0.836066
    Cu  Cu5   0.966249  0.496764  0.029409  0.961218
    Cu  Cu6   0.033751  0.496764  0.970591  0.961291
    Cu  Cu7   0.466249  0.996764  0.029409  0.961235
    Cu  Cu8   0.533751  0.996764  0.970591  0.961277
    O   O29   0.970954  0.546216  0.042705  -0.583039
    O   O30   0.029046  0.546216  0.957295  -0.583095
    O   O31   0.470954  0.046216  0.042705  -0.583051
    O   O32   0.529046  0.046216  0.957295  -0.583101
    C   C127  0.000000  0.562516  0.000000  0.626254
    C   C128  0.500000  0.062516  0.000000  0.626273
    O   O33   0.490764  0.447335  0.060466  -0.596095
    O   O34   0.509237  0.447335  0.939534  -0.596135
    O   O35   0.990764  0.947335  0.060466  -0.596114
    O   O36   0.009237  0.947335  0.939534  -0.596144
    C   C129  0.500000  0.431038  0.000000  0.677512
    C   C130  0.000000  0.931038  0.000000  0.677512
    O   O37   0.450826  0.506287  0.100287  -0.593119
    O   O38   0.549174  0.506287  0.899713  -0.593180
    O   O39   0.950826  0.006287  0.100287  -0.593143
    O   O40   0.049174  0.006287  0.899713  -0.593171
    O   O41   0.450259  0.487327  0.998283  -0.610781
    O   O42   0.549741  0.487327  0.001717  -0.610602
    O   O43   0.950259  0.987327  0.998283  -0.610785
    O   O44   0.049741  0.987327  0.001717  -0.610622
    C   C131  0.434254  0.496670  0.065582  0.695351
    C   C132  0.565746  0.496670  0.934418  0.694909
    C   C133  0.934254  0.996670  0.065582  0.695387
    C   C134  0.065746  0.996670  0.934418  0.694913
    Cu  Cu9   0.500328  0.496822  0.060396  0.968804
    Cu  Cu10  0.499672  0.496822  0.939604  0.968716
    Cu  Cu11  0.000328  0.996822  0.060396  0.968798
    Cu  Cu12  0.999672  0.996822  0.939604  0.968775
    O   O45   0.509807  0.546313  0.041491  -0.604732
    O   O46   0.490193  0.546313  0.958509  -0.604835
    O   O47   0.009807  0.046313  0.041491  -0.604747
    O   O48   0.990193  0.046313  0.958509  -0.604828
    C   C135  0.500000  0.562624  0.000000  0.663585
    C   C136  0.000000  0.062624  0.000000  0.663584
    C   C137  0.514712  0.618772  0.034327  -0.104908
    C   C138  0.485288  0.618772  0.965673  -0.104910
    C   C139  0.014712  0.118772  0.034327  -0.104910
    C   C140  0.985288  0.118772  0.965673  -0.104908
    H   H69   0.526721  0.605275  0.060958  0.127105
    H   H70   0.473279  0.605275  0.939042  0.127115
    H   H71   0.026721  0.105275  0.060958  0.127105
    H   H72   0.973279  0.105275  0.939042  0.127115
    C   C141  0.514857  0.654537  0.034040  -0.151928
    C   C142  0.485143  0.654537  0.965960  -0.151916
    C   C143  0.014857  0.154537  0.034040  -0.151929
    C   C144  0.985143  0.154537  0.965960  -0.151920
    H   H73   0.527453  0.667945  0.059569  0.116874
    H   H74   0.472547  0.667945  0.940431  0.116862
    H   H75   0.027453  0.167945  0.059569  0.116873
    H   H76   0.972547  0.167945  0.940431  0.116864
    C   C145  0.500000  0.672757  0.000000  0.101819
    C   C146  0.000000  0.172757  0.000000  0.101814
    C   C147  0.500000  0.600664  0.000000  -0.010733
    C   C148  0.000000  0.100664  0.000000  -0.010731
    C   C149  0.504117  0.729169  0.940985  -0.118682
    C   C150  0.495883  0.729169  0.059015  -0.118763
    C   C151  0.004117  0.229169  0.940985  -0.118697
    C   C152  0.995883  0.229169  0.059015  -0.118776
    H   H77   0.508271  0.715774  0.893448  0.115442
    H   H78   0.491729  0.715774  0.106552  0.115472
    H   H79   0.008271  0.215774  0.893448  0.115443
    H   H80   0.991729  0.215774  0.106552  0.115476
    C   C153  0.003947  0.264917  0.941190  -0.126485
    C   C154  0.996053  0.264917  0.058810  -0.126348
    C   C155  0.503947  0.764917  0.941190  -0.126503
    C   C156  0.496053  0.764917  0.058810  -0.126362
    H   H81   0.007439  0.278866  0.894634  0.099357
    H   H82   0.992561  0.278866  0.105366  0.099264
    H   H83   0.507439  0.778866  0.894634  0.099361
    H   H84   0.492561  0.778866  0.105366  0.099269
    C   C157  0.000000  0.282914  0.000000  -0.075771
    C   C158  0.500000  0.782914  0.000000  -0.075771
    C   C159  0.500000  0.710958  0.000000  0.024570
    C   C160  0.000000  0.210958  0.000000  0.024578
    C   C161  0.026736  0.339105  0.002297  -0.157725
    C   C162  0.973264  0.339105  0.997703  -0.158119
    C   C163  0.526736  0.839105  0.002297  -0.157714
    C   C164  0.473264  0.839105  0.997703  -0.158104
    C   C165  0.026204  0.374883  0.003664  -0.166466
    C   C166  0.973796  0.374883  0.996336  -0.166226
    C   C167  0.526204  0.874883  0.003664  -0.166474
    C   C168  0.473796  0.874883  0.996336  -0.166241
    H   H85   0.047052  0.388572  0.006088  0.180571
    H   H86   0.952948  0.388572  0.993912  0.180550
    H   H87   0.547052  0.888572  0.006088  0.180574
    H   H88   0.452948  0.888572  0.993912  0.180555
    C   C169  0.000000  0.392940  0.000000  0.043596
    C   C170  0.500000  0.892940  0.000000  0.043594
    C   C171  0.000000  0.320928  0.000000  0.136226
    C   C172  0.500000  0.820928  0.000000  0.136223
    C   C173  0.504922  0.374949  0.940452  -0.080894
    C   C174  0.495078  0.374949  0.059548  -0.080881
    C   C175  0.004922  0.874949  0.940452  -0.081018
    C   C176  0.995078  0.874949  0.059548  -0.081156
    H   H89   0.508483  0.388439  0.893405  0.110331
    H   H90   0.491517  0.388439  0.106595  0.110334
    H   H91   0.008483  0.888439  0.893405  0.110348
    H   H92   0.991517  0.888439  0.106595  0.110398
    C   C177  0.504765  0.339200  0.940568  -0.155305
    C   C178  0.495235  0.339200  0.059432  -0.155311
    C   C179  0.004765  0.839200  0.940568  -0.155210
    C   C180  0.995235  0.839200  0.059432  -0.155118
    H   H93   0.507677  0.325779  0.893944  0.113008
    H   H94   0.492323  0.325779  0.106056  0.113010
    H   H95   0.007677  0.825779  0.893944  0.113001
    H   H96   0.992323  0.825779  0.106056  0.112980
    C   C181  0.500000  0.321010  0.000000  0.099451
    C   C182  0.000000  0.821010  0.000000  0.099419
    C   C183  0.500000  0.393033  0.000000  -0.047440
    C   C184  0.000000  0.893033  0.000000  -0.047275
    C   C185  0.477892  0.264648  0.060310  -0.138695
    C   C186  0.522108  0.264648  0.939690  -0.138646
    C   C187  0.977892  0.764648  0.060310  -0.138573
    C   C188  0.022108  0.764648  0.939690  -0.138588
    H   H97   0.459840  0.278059  0.107905  0.111203
    H   H98   0.540160  0.278059  0.892095  0.111185
    H   H99   0.959840  0.778059  0.107905  0.111172
    H   H100  0.040160  0.778059  0.892095  0.111174
    C   C189  0.977954  0.728903  0.060363  -0.151409
    C   C190  0.022046  0.728903  0.939637  -0.151402
    C   C191  0.477954  0.228903  0.060363  -0.151358
    C   C192  0.522046  0.228903  0.939637  -0.151395
    H   H101  0.960873  0.715492  0.108789  0.112652
    H   H102  0.039127  0.715492  0.891211  0.112654
    H   H103  0.460873  0.215492  0.108789  0.112646
    H   H104  0.539127  0.215492  0.891211  0.112657
    C   C193  0.000000  0.710705  0.000000  0.086311
    C   C194  0.500000  0.210705  0.000000  0.086266
    C   C195  0.500000  0.282846  0.000000  0.072039
    C   C196  0.000000  0.782846  0.000000  0.071867
    C   C197  0.030626  0.654351  0.962713  -0.133697
    C   C198  0.969374  0.654351  0.037287  -0.133729
    C   C199  0.530626  0.154351  0.962713  -0.133701
    C   C200  0.469374  0.154351  0.037287  -0.133737
    H   H105  0.055083  0.667772  0.934528  0.111518
    H   H106  0.944917  0.667772  0.065472  0.111535
    H   H107  0.555083  0.167772  0.934528  0.111520
    H   H108  0.444917  0.167772  0.065472  0.111535
    C   C201  0.030610  0.618603  0.962454  -0.116508
    C   C202  0.969390  0.618603  0.037546  -0.116403
    C   C203  0.530610  0.118603  0.962454  -0.116510
    C   C204  0.469390  0.118603  0.037546  -0.116403
    H   H109  0.054965  0.605118  0.933161  0.123271
    H   H110  0.945035  0.605118  0.066839  0.123197
    H   H111  0.554965  0.105118  0.933161  0.123271
    H   H112  0.445035  0.105118  0.066839  0.123201
    C   C205  0.000000  0.600519  0.000000  0.000251
    C   C206  0.500000  0.100519  0.000000  0.000241
    C   C207  0.000000  0.672541  0.000000  0.082398
    C   C208  0.500000  0.172541  0.000000  0.082429
    C   C209  0.107461  0.563647  0.411525  0.832719
    O   O49   0.084235  0.566327  0.472393  -0.557309
    N   N1    0.121883  0.594230  0.370506  -1.034129
    H   H113  0.101990  0.606973  0.366319  0.382110
    H   H114  0.130012  0.610189  0.398948  0.375609
    C   C210  0.892539  0.563647  0.588475  0.832616
    O   O50   0.915765  0.566327  0.527607  -0.557239
    N   N2    0.878117  0.594230  0.629494  -1.034126
    H   H115  0.898010  0.606973  0.633680  0.382127
    H   H116  0.869988  0.610189  0.601051  0.375592
    C   C211  0.607461  0.063647  0.411525  0.832721
    O   O51   0.584235  0.066327  0.472393  -0.557308
    N   N3    0.621883  0.094230  0.370506  -1.034124
    H   H117  0.601990  0.106973  0.366319  0.382110
    H   H118  0.630012  0.110189  0.398948  0.375606
    C   C212  0.392539  0.063647  0.588475  0.832638
    O   O52   0.415765  0.066327  0.527607  -0.557239
    N   N4    0.378117  0.094230  0.629494  -1.034119
    H   H119  0.398010  0.106973  0.633680  0.382125
    H   H120  0.369988  0.110189  0.601051  0.375585
    C   C213  0.056109  0.321410  0.003274  0.847351
    O   O53   0.064746  0.329822  0.047209  -0.570249
    N   N5    0.077086  0.297450  0.948767  -0.825627
    H   H121  0.073302  0.272796  0.971382  0.350728
    H   H122  0.069128  0.297363  0.910207  0.313170
    C   C214  0.943891  0.321410  0.996726  0.847351
    O   O54   0.935254  0.329822  0.952791  -0.570204
    N   N6    0.922914  0.297450  0.051233  -0.825618
    H   H123  0.926698  0.272796  0.028618  0.350734
    H   H124  0.930872  0.297363  0.089793  0.313202
    C   C215  0.556109  0.821410  0.003274  0.847356
    O   O55   0.564746  0.829822  0.047209  -0.570254
    N   N7    0.577086  0.797450  0.948767  -0.825630
    H   H125  0.573302  0.772796  0.971382  0.350730
    H   H126  0.569128  0.797363  0.910207  0.313171
    C   C216  0.443891  0.821410  0.996726  0.847356
    O   O56   0.435254  0.829822  0.952791  -0.570209
    N   N8    0.422914  0.797450  0.051233  -0.825622
    H   H127  0.426698  0.772796  0.028618  0.350736
    H   H128  0.430872  0.797363  0.089793  0.313202
