# Generated by REPEAT Assigner based on pymatgen
data_DB0-m9_o17_o20_f0_sra.sym.112_sqe
_audit_creation_date              2022-05-24
_audit_creation_method            REPEAT_Assigner
_cell_length_a                    23.295600
_cell_length_b                    6.818000
_cell_length_c                    19.653203
_cell_angle_alpha                 90.000000
_cell_angle_beta                  92.661701
_cell_angle_gamma                 90.000000
_cell_volume                      3118.138787
_symmetry_space_group_name_H-M    P1
_symmetry_Int_Tables_number       1
loop_
    _symmetry_equiv_pos_site_id
    _symmetry_equiv_pos_as_xyz
    1  x,y,z
loop_
    _atom_site_type_symbol
    _atom_site_label
    _atom_site_fract_x
    _atom_site_fract_y
    _atom_site_fract_z
    _atom_type_partial_charge
    O  O1   0.686758  0.348343  0.191644  -0.308445
    O  O2   0.313242  0.651656  0.808355  -0.308464
    O  O3   0.813244  0.848341  0.308353  -0.308465
    O  O4   0.186756  0.151660  0.691647  -0.308457
    O  O5   0.808020  0.696211  0.178230  -0.550106
    O  O6   0.191980  0.303790  0.821769  -0.550101
    O  O7   0.691978  0.196215  0.321769  -0.550081
    O  O8   0.308022  0.803784  0.678231  -0.550101
    C  C1   0.833283  0.518114  0.166605  0.731868
    C  C2   0.166717  0.481886  0.833394  0.731795
    C  C3   0.666717  0.018117  0.333395  0.731793
    C  C4   0.333283  0.981882  0.666605  0.731842
    O  O9   0.690608  0.696860  0.174278  -0.255165
    O  O10  0.309392  0.303141  0.825721  -0.255182
    O  O11  0.809391  0.196855  0.325722  -0.255183
    O  O12  0.190609  0.803145  0.674278  -0.255201
    O  O13  0.687735  0.849586  0.304216  -0.547910
    O  O14  0.312265  0.150415  0.695784  -0.547928
    O  O15  0.812267  0.349583  0.195786  -0.547920
    O  O16  0.187733  0.650416  0.804214  -0.547913
    C  C5   0.668007  0.518492  0.164651  0.209382
    C  C6   0.331993  0.481508  0.835348  0.209412
    C  C7   0.831993  0.018491  0.335348  0.209446
    C  C8   0.168007  0.981509  0.664652  0.209398
    O  O17  0.750544  0.529601  0.289278  -0.399238
    O  O18  0.249456  0.470399  0.710722  -0.399308
    O  O19  0.749456  0.029601  0.210722  -0.399250
    O  O20  0.250545  0.970396  0.789278  -0.399322
    V  V1   0.749862  0.799354  0.240317  1.264783
    V  V2   0.250138  0.200648  0.759683  1.264848
    V  V3   0.750138  0.299353  0.259683  1.264645
    V  V4   0.249862  0.700648  0.740318  1.264902
    C  C9   0.086587  0.160941  0.605249  -0.096665
    C  C10  0.913413  0.839059  0.394751  -0.096603
    C  C11  0.413413  0.660941  0.894751  -0.096651
    C  C12  0.586587  0.339060  0.105249  -0.096602
    C  C13  0.118617  0.991039  0.614568  0.291311
    C  C14  0.881383  0.008960  0.385431  0.291244
    C  C15  0.381383  0.491040  0.885431  0.291268
    C  C16  0.618616  0.508958  0.114568  0.291297
    C  C17  0.102757  0.825484  0.577351  -0.219387
    C  C18  0.897244  0.174518  0.422648  -0.219327
    C  C19  0.397244  0.325482  0.922649  -0.219353
    C  C20  0.602756  0.674518  0.077351  -0.219358
    C  C21  0.055555  0.829261  0.531669  0.177589
    C  C22  0.944445  0.170741  0.468331  0.177522
    C  C23  0.444445  0.329260  0.968331  0.177554
    C  C24  0.555555  0.670740  0.031669  0.177519
    C  C25  0.023701  0.998425  0.522752  0.073057
    C  C26  0.976299  0.001575  0.477248  0.073142
    C  C27  0.476299  0.498425  0.977248  0.073095
    C  C28  0.523701  0.501574  0.022752  0.073125
    C  C29  0.039282  0.164261  0.559484  0.033309
    C  C30  0.960718  0.835739  0.440515  0.033245
    C  C31  0.460718  0.664261  0.940515  0.033290
    C  C32  0.539282  0.335740  0.059485  0.033239
    C  C33  0.040012  0.663383  0.494870  -0.186367
    C  C34  0.959988  0.336617  0.505130  -0.186346
    C  C35  0.459988  0.163382  0.005130  -0.186373
    C  C36  0.540012  0.836617  0.994870  -0.186329
    C  C37  0.992825  0.666631  0.449444  -0.059089
    C  C38  0.007175  0.333370  0.550556  -0.059117
    C  C39  0.507175  0.166630  0.050556  -0.059064
    C  C40  0.492825  0.833369  0.949444  -0.059117
    C  C41  0.385312  0.991970  0.614374  -0.217477
    C  C42  0.614688  0.008030  0.385627  -0.217376
    C  C43  0.114688  0.491969  0.885626  -0.217388
    C  C44  0.885311  0.508030  0.114373  -0.217486
    C  C45  0.427627  0.995818  0.572137  0.085842
    C  C46  0.572373  0.004183  0.427863  0.085721
    C  C47  0.072374  0.495815  0.927863  0.085724
    C  C48  0.927626  0.504184  0.072137  0.085858
    C  C49  0.478827  0.998870  0.521102  -0.020996
    C  C50  0.521173  0.001131  0.478898  -0.020865
    C  C51  0.021173  0.498868  0.978899  -0.020869
    C  C52  0.978827  0.501133  0.021102  -0.020997
    C  C53  0.101425  0.332889  0.644334  0.202028
    N  N1   0.113302  0.471398  0.675959  -0.221559
    C  C54  0.898575  0.667112  0.355665  0.202025
    N  N2   0.886698  0.528603  0.324040  -0.221578
    C  C55  0.398575  0.832890  0.855665  0.202051
    N  N3   0.386698  0.971399  0.824039  -0.221591
    C  C56  0.601425  0.167110  0.144335  0.201997
    N  N4   0.613303  0.028599  0.175960  -0.221558
    C  C57  0.135780  0.648731  0.585697  0.274807
    N  N5   0.162479  0.506329  0.592271  -0.273540
    C  C58  0.864220  0.351271  0.414303  0.274785
    N  N6   0.837521  0.493672  0.407729  -0.273537
    C  C59  0.364220  0.148729  0.914303  0.274794
    N  N7   0.337521  0.006328  0.907729  -0.273540
    C  C60  0.635780  0.851270  0.085697  0.274807
    N  N8   0.662479  0.993670  0.092271  -0.273542
    C  C61  0.072921  0.486615  0.503911  0.375794
    N  N9   0.099449  0.344079  0.511208  -0.353882
    C  C62  0.927079  0.513385  0.496089  0.375810
    N  N10  0.900551  0.655921  0.488792  -0.353886
    C  C63  0.427078  0.986615  0.996090  0.375804
    N  N11  0.400551  0.844079  0.988793  -0.353887
    C  C64  0.572922  0.013385  0.003911  0.375795
    N  N12  0.599449  0.155922  0.011207  -0.353884
    C  C65  0.977125  0.493394  0.411511  0.346413
    N  N13  0.964467  0.353720  0.380926  -0.356320
    C  C66  0.022875  0.506607  0.588489  0.346426
    N  N14  0.035533  0.646281  0.619073  -0.356339
    C  C67  0.522875  0.993394  0.088489  0.346403
    N  N15  0.535533  0.853721  0.119074  -0.356320
    C  C68  0.477125  0.006605  0.911511  0.346421
    N  N16  0.464467  0.146278  0.880926  -0.356326
