# Generated by REPEAT Assigner based on pymatgen
data_DB0-m2_o58_o22_tfo
_audit_creation_date              2022-05-24
_audit_creation_method            REPEAT_Assigner
_cell_length_a                    22.475782
_cell_length_b                    21.559760
_cell_length_c                    16.967871
_cell_angle_alpha                 68.490050
_cell_angle_beta                  54.722917
_cell_angle_gamma                 87.914484
_cell_volume                      6076.084751
_symmetry_space_group_name_H-M    P1
_symmetry_Int_Tables_number       1
loop_
    _symmetry_equiv_pos_site_id
    _symmetry_equiv_pos_as_xyz
    1  x,y,z
loop_
    _atom_site_type_symbol
    _atom_site_label
    _atom_site_fract_x
    _atom_site_fract_y
    _atom_site_fract_z
    _atom_type_partial_charge
    O   O1   0.582250  0.474831  0.369088  -0.614027
    O   O2   0.506021  0.387944  0.535884  -0.620602
    C   C1   0.554528  0.409346  0.432433  0.760098
    O   O3   0.638245  0.543985  0.430627  -0.634758
    O   O4   0.570903  0.453542  0.593173  -0.627216
    C   C2   0.635187  0.498928  0.511690  0.551392
    Cu  Cu1  0.554655  0.547363  0.416315  1.019943
    Cu  Cu2  0.474784  0.448138  0.607661  0.995476
    O   O5   0.517726  0.607265  0.487955  -0.610847
    O   O6   0.452456  0.520914  0.655283  -0.588028
    O   O7   0.460195  0.538143  0.426940  -0.641432
    O   O8   0.389182  0.455479  0.596556  -0.625661
    C   C3   0.475330  0.586353  0.591478  0.726501
    C   C4   0.394047  0.496692  0.511712  0.596691
    C   C5   0.233198  0.785696  0.918362  0.867259
    C   C6   0.243629  0.840391  0.762784  0.875871
    C   C7   0.315836  0.762026  0.771920  0.713433
    N   N1   0.212177  0.830749  0.863848  -0.832019
    N   N2   0.294986  0.806000  0.718137  -0.692721
    N   N3   0.284393  0.751541  0.872027  -0.705418
    C   C8   0.235745  0.735626  0.069217  0.016861
    C   C9   0.198322  0.690846  0.174164  -0.140961
    C   C10  0.121573  0.676721  0.242918  -0.037241
    C   C11  0.082495  0.712423  0.208770  -0.173044
    C   C12  0.119986  0.756718  0.102459  0.031548
    C   C13  0.196449  0.765089  0.031434  -0.218382
    H   H1   0.228876  0.662325  0.200365  0.122740
    H   H2   0.021952  0.699853  0.262064  0.130704
    H   H3   0.295636  0.741769  0.015198  0.062454
    H   H4   0.088158  0.777688  0.073864  0.081842
    C   C14  0.365747  0.658756  0.788655  -0.058282
    C   C15  0.404253  0.615399  0.744600  -0.063725
    C   C16  0.445689  0.635721  0.636181  -0.103743
    C   C17  0.451986  0.700757  0.571252  -0.062124
    C   C18  0.412099  0.743379  0.615496  -0.078021
    C   C19  0.367251  0.721635  0.724457  -0.086362
    H   H5   0.398845  0.564598  0.796443  0.101796
    H   H6   0.484013  0.717476  0.486237  0.110881
    H   H7   0.330442  0.640798  0.874248  0.097335
    H   H8   0.414556  0.792832  0.564044  0.086345
    C   C20  0.241350  0.959035  0.678321  -0.050319
    C   C21  0.270873  0.011360  0.579513  -0.129865
    C   C22  0.289867  0.996509  0.495740  0.054932
    C   C23  0.267282  0.930270  0.516590  -0.115087
    C   C24  0.237911  0.878277  0.615040  -0.052807
    C   C25  0.230979  0.892079  0.692966  -0.184009
    H   H9   0.289181  0.062491  0.565376  0.120863
    H   H10  0.280613  0.917512  0.452971  0.090289
    H   H11  0.238656  0.970580  0.737016  0.094991
    H   H12  0.230076  0.825904  0.625487  0.087966
    O   O9   0.978863  0.382255  0.583421  -0.641329
    O   O10  0.939313  0.441243  0.686158  -0.619767
    C   C26  0.939658  0.383202  0.677291  0.799490
    O   O11  0.126263  0.465645  0.462645  -0.636121
    O   O12  0.082506  0.528351  0.559122  -0.632264
    C   C27  0.135002  0.496756  0.511021  0.531793
    Cu  Cu3  0.041324  0.464714  0.450546  1.031076
    Cu  Cu4  0.988441  0.532228  0.567960  1.028280
    O   O13  0.091804  0.555354  0.332178  -0.628093
    O   O14  0.040653  0.615058  0.434239  -0.644546
    O   O15  0.949401  0.471731  0.454855  -0.623887
    O   O16  0.901500  0.527836  0.561353  -0.630109
    C   C28  0.083066  0.613707  0.340569  0.797527
    C   C29  0.894987  0.500095  0.507929  0.581226
    C   C30  0.609872  0.240674  0.223106  0.705044
    C   C31  0.685141  0.218868  0.072852  0.855826
    C   C32  0.555566  0.177165  0.185975  0.869183
    N   N4   0.677197  0.247673  0.135376  -0.696726
    N   N5   0.623856  0.183298  0.097568  -0.809754
    N   N6   0.549306  0.205950  0.247593  -0.694388
    C   C33  0.654080  0.336697  0.234547  -0.056171
    C   C34  0.639755  0.378693  0.284889  -0.086431
    C   C35  0.574056  0.360552  0.385861  -0.092779
    C   C36  0.524021  0.299081  0.438508  -0.069616
    C   C37  0.537036  0.258219  0.386696  -0.076396
    C   C38  0.601355  0.277780  0.283886  -0.085779
    H   H13  0.679491  0.426626  0.243424  0.106018
    H   H14  0.472099  0.284790  0.517404  0.117301
    H   H15  0.704339  0.353131  0.153652  0.107554
    H   H16  0.495476  0.212019  0.426275  0.085026
    C   C39  0.422166  0.160246  0.275542  -0.057443
    C   C40  0.354039  0.114572  0.356513  -0.125085
    C   C41  0.349892  0.045318  0.385999  0.059053
    C   C42  0.412087  0.023354  0.322292  -0.119022
    C   C43  0.480405  0.069372  0.240764  -0.068138
    C   C44  0.486337  0.137179  0.223309  -0.169758
    H   H17  0.306144  0.133024  0.404035  0.097146
    H   H18  0.411136  0.969391  0.344682  0.120591
    H   H19  0.426150  0.213392  0.262548  0.091295
    H   H20  0.530339  0.050263  0.203150  0.093783
    C   C45  0.818823  0.266597  0.961488  0.019994
    C   C46  0.881703  0.309590  0.863096  -0.097186
    C   C47  0.887553  0.321469  0.773459  -0.098683
    C   C48  0.833436  0.285062  0.781513  -0.096231
    C   C49  0.768744  0.243527  0.880870  0.033062
    C   C50  0.759602  0.237729  0.971301  -0.237033
    H   H21  0.923727  0.338127  0.857218  0.103064
    H   H22  0.836993  0.295636  0.711317  0.097772
    H   H23  0.814029  0.261822  0.030711  0.058208
    H   H24  0.722773  0.222450  0.886662  0.072928
    C   C51  0.252247  0.451070  0.621093  -0.075721
    H   H25  0.244356  0.466046  0.681933  0.018764
    H   H26  0.256947  0.396921  0.642137  0.023985
    C   C52  0.182854  0.457124  0.622909  -0.019898
    H   H27  0.149324  0.404978  0.659087  -0.005809
    H   H28  0.147884  0.483932  0.673019  0.013190
    H   H29  0.294672  0.586332  0.541282  0.018350
    H   H30  0.206547  0.596394  0.513594  0.022926
    C   C53  0.309944  0.568271  0.479866  -0.055368
    C   C54  0.333835  0.470452  0.433427  -0.068032
    C   C55  0.324171  0.496588  0.511602  0.211052
    H   H31  0.380672  0.506569  0.351051  0.019070
    H   H32  0.347967  0.419691  0.449997  0.013921
    C   C56  0.204897  0.496595  0.511098  0.281029
    C   C57  0.246335  0.569025  0.468888  -0.078759
    C   C58  0.262000  0.463651  0.441849  -0.051750
    H   H33  0.236644  0.408531  0.476896  0.014272
    H   H34  0.277398  0.488608  0.360549  0.023733
    H   H35  0.361679  0.604171  0.402666  0.023916
    H   H36  0.270380  0.597351  0.383652  0.012991
    C   C59  0.781429  0.551718  0.546367  -0.045434
    H   H37  0.820015  0.602912  0.498981  0.022392
    H   H38  0.756504  0.535691  0.631419  0.017169
    C   C60  0.718286  0.557089  0.534255  -0.060892
    H   H39  0.665971  0.554933  0.608924  0.006823
    H   H40  0.733629  0.607006  0.468153  0.009164
    H   H41  0.879340  0.571457  0.344841  0.018349
    H   H42  0.783290  0.555020  0.338527  0.010885
    C   C61  0.846644  0.517612  0.398280  -0.113355
    C   C62  0.770292  0.429954  0.582763  -0.027520
    C   C63  0.825013  0.499930  0.508734  0.213698
    H   H43  0.796949  0.392267  0.550530  0.027909
    H   H44  0.756619  0.412861  0.662698  0.005444
    C   C64  0.705237  0.499273  0.510703  0.268732
    C   C65  0.776901  0.508913  0.402652  0.012627
    C   C66  0.697307  0.432432  0.593746  -0.091814
    H   H45  0.651373  0.427738  0.674697  0.030578
    H   H46  0.683157  0.388376  0.583938  0.014514
    H   H47  0.882010  0.483774  0.364606  0.027640
    H   H48  0.773210  0.463618  0.387995  -0.009788
