# Generated by REPEAT Assigner based on pymatgen
data_DB0-m3_o160_o1520_f0_fsc.sym.33_sqe
_audit_creation_date              2022-05-24
_audit_creation_method            REPEAT_Assigner
_cell_length_a                    8.519578
_cell_length_b                    13.025478
_cell_length_c                    13.396428
_cell_angle_alpha                 90.938561
_cell_angle_beta                  90.072613
_cell_angle_gamma                 95.313206
_cell_volume                      1480.030798
_symmetry_space_group_name_H-M    P1
_symmetry_Int_Tables_number       1
loop_
    _symmetry_equiv_pos_site_id
    _symmetry_equiv_pos_as_xyz
    1  x,y,z
loop_
    _atom_site_type_symbol
    _atom_site_label
    _atom_site_fract_x
    _atom_site_fract_y
    _atom_site_fract_z
    _atom_type_partial_charge
    C   C1   0.115959  0.292455  0.985628  -0.186381
    C   C2   0.984855  0.344188  0.974613  -0.143105
    C   C3   0.837818  0.295037  0.987212  0.025688
    C   C4   0.819364  0.189696  0.998132  -0.359766
    C   C5   0.950599  0.132589  0.994437  0.189244
    C   C6   0.099677  0.186067  0.993610  0.142620
    C   C7   0.936720  0.024173  0.993959  -0.036346
    C   C8   0.071738  0.971129  0.997419  0.041223
    C   C9   0.218193  0.027699  0.003093  -0.213309
    C   C10  0.231572  0.133272  0.999587  -0.200791
    C   C11  0.790359  0.967555  0.987484  -0.116960
    C   C12  0.776884  0.862018  0.992055  -0.281947
    C   C13  0.908683  0.809376  0.000081  0.169816
    C   C14  0.057745  0.862760  0.998360  0.158796
    C   C15  0.892396  0.703333  0.011247  -0.230415
    C   C16  0.023537  0.652041  0.024341  -0.106006
    C   C17  0.170480  0.700682  0.009814  -0.010660
    C   C18  0.188850  0.805548  0.995767  -0.329888
    H   H1   0.998127  0.425685  0.962338  0.141760
    H   H2   0.700886  0.156329  0.009704  0.157810
    H   H3   0.681648  0.001853  0.978107  0.111334
    H   H4   0.660300  0.821644  0.990005  0.131236
    H   H5   0.010306  0.570966  0.038884  0.125004
    H   H6   0.307205  0.838468  0.982906  0.139796
    H   H7   0.327092  0.993419  0.011528  0.148421
    H   H8   0.348172  0.173616  0.001702  0.113997
    O   O1   0.686321  0.598651  0.089427  -0.753145
    O   O2   0.682952  0.613158  0.918171  -0.729760
    C   C19  0.741200  0.640224  0.006576  0.961994
    O   O3   0.661522  0.399084  0.908627  -0.739077
    O   O4   0.653223  0.384471  0.080205  -0.671283
    C   C20  0.705146  0.358270  0.991880  0.800071
    O   O5   0.322154  0.396885  0.907550  -0.723153
    O   O6   0.325309  0.382490  0.079125  -0.632985
    C   C21  0.267294  0.355375  0.990526  0.842368
    O   O7   0.346852  0.596578  0.088369  -0.748804
    O   O8   0.355048  0.611104  0.917122  -0.712573
    C   C22  0.302972  0.637296  0.005264  0.849831
    Zn  Zn1  0.505386  0.503856  0.887572  1.037435
    Zn  Zn2  0.502943  0.491814  0.109590  1.026376
    C   C23  0.488174  0.401453  0.294060  -0.000193
    N   N1   0.501749  0.488238  0.240394  0.134573
    C   C24  0.512188  0.581248  0.286132  -0.141738
    C   C25  0.510989  0.590472  0.388366  -0.153220
    C   C26  0.501563  0.503124  0.446331  -0.175506
    C   C27  0.491419  0.407758  0.397826  0.492155
    C   C28  0.510264  0.599611  0.605782  -0.227496
    C   C29  0.503910  0.507844  0.550668  0.279399
    C   C30  0.499685  0.416944  0.602291  -0.021605
    C   C31  0.494500  0.324010  0.551312  0.201573
    N   N2   0.490708  0.321025  0.451081  -0.490751
    C   C32  0.511780  0.597991  0.708728  -0.128223
    N   N3   0.506616  0.508075  0.756831  0.167600
    C   C33  0.501043  0.418327  0.705285  -0.156081
    H   H9   0.521505  0.650381  0.242243  0.171576
    H   H10  0.496724  0.346636  0.745109  0.152955
    H   H11  0.492656  0.252817  0.591826  0.088075
    H   H12  0.520456  0.667556  0.418871  0.142449
    H   H13  0.512922  0.674205  0.572483  0.159723
    H   H14  0.516239  0.669687  0.750866  0.174025
    O   O9   0.476336  0.309372  0.246034  -0.222837
    C   C34  0.377841  0.229076  0.276716  0.743714
    O   O10  0.267987  0.243421  0.331899  -0.502497
    C   C35  0.395998  0.123426  0.237004  -0.597585
    H   H15  0.496905  0.126163  0.184598  0.151401
    H   H16  0.286593  0.093298  0.197383  0.204010
    H   H17  0.417838  0.072037  0.299730  0.166037
