# Generated by REPEAT Assigner based on pymatgen
data_DB0-m3_o2_o24_f0_pcu.sym.64_sqe
_audit_creation_date              2022-05-24
_audit_creation_method            REPEAT_Assigner
_cell_length_a                    15.212985
_cell_length_b                    14.166097
_cell_length_c                    10.775968
_cell_angle_alpha                 90.000000
_cell_angle_beta                  90.006171
_cell_angle_gamma                 90.000000
_cell_volume                      2322.314117
_symmetry_space_group_name_H-M    P1
_symmetry_Int_Tables_number       1
loop_
    _symmetry_equiv_pos_site_id
    _symmetry_equiv_pos_as_xyz
    1  x,y,z
loop_
    _atom_site_type_symbol
    _atom_site_label
    _atom_site_fract_x
    _atom_site_fract_y
    _atom_site_fract_z
    _atom_type_partial_charge
    O   O1   0.368801  0.582856  0.503030  -0.617427
    O   O2   0.630818  0.419218  0.500111  -0.671794
    O   O3   0.630539  0.582371  0.496439  -0.619457
    O   O4   0.368802  0.419608  0.500186  -0.673103
    C   C1   0.327683  0.501402  0.502408  0.669113
    C   C2   0.671808  0.501030  0.497520  0.668683
    O   O5   0.498172  0.582587  0.314903  -0.661898
    O   O6   0.499186  0.419768  0.684878  -0.628685
    O   O7   0.500918  0.583014  0.684732  -0.658215
    O   O8   0.500687  0.419316  0.315327  -0.636794
    C   C3   0.499593  0.500773  0.257466  0.639069
    C   C4   0.499919  0.501313  0.742494  0.623842
    Zn  Zn1  0.499708  0.609227  0.499751  1.062715
    Zn  Zn2  0.499786  0.392921  0.500163  1.082439
    C   C5   0.544691  0.573825  0.040597  0.002765
    C   C6   0.455032  0.426739  0.959261  -0.006164
    C   C7   0.581463  0.495496  0.959270  -0.079558
    C   C8   0.418173  0.504907  0.040768  -0.072702
    C   C9   0.462655  0.578836  0.960080  -0.010119
    C   C10  0.536842  0.421719  0.040180  -0.000287
    H   H1   0.429846  0.643517  0.925540  0.016363
    H   H2   0.567921  0.356378  0.076063  0.020660
    H   H3   0.583096  0.634490  0.076416  0.012061
    H   H4   0.417626  0.365498  0.922912  0.019848
    H   H5   0.649492  0.491455  0.922700  0.027294
    H   H6   0.350149  0.508174  0.077453  0.025266
    C   C11  0.499596  0.500751  0.880730  0.062283
    C   C12  0.500018  0.500146  0.119279  0.044333
    C   C13  0.094898  0.584055  0.533717  -0.166324
    C   C14  0.905268  0.423448  0.532830  -0.154011
    C   C15  0.904558  0.583697  0.465615  -0.171223
    C   C16  0.094226  0.423269  0.468781  -0.154093
    H   H7   0.061284  0.647620  0.562210  0.107821
    H   H8   0.939103  0.360696  0.563791  0.101184
    H   H9   0.938135  0.647076  0.436282  0.107993
    H   H10  0.060407  0.360230  0.438807  0.101982
    C   C17  0.185660  0.583376  0.534146  -0.065623
    C   C18  0.814752  0.422489  0.530327  -0.102361
    C   C19  0.813788  0.582943  0.465059  -0.057555
    C   C20  0.184739  0.422379  0.471231  -0.103038
    H   H11  0.220281  0.646659  0.561337  0.098084
    H   H12  0.780813  0.359243  0.557644  0.131954
    H   H13  0.779120  0.645964  0.436873  0.096635
    H   H14  0.218675  0.358877  0.444970  0.132901
    C   C21  0.231165  0.502297  0.503140  -0.058716
    C   C22  0.768316  0.502073  0.497085  -0.061582
    C   C23  0.048232  0.503967  0.500631  0.093303
    C   C24  0.951254  0.503907  0.499824  0.094708
    C   C25  0.469303  0.103004  0.400755  -0.391150
    C   C26  0.568389  0.899080  0.549219  -0.481466
    C   C27  0.530896  0.102878  0.599393  -0.400292
    C   C28  0.431899  0.899321  0.450045  -0.488079
    H   H15  0.449066  0.064541  0.319452  0.155252
    H   H16  0.624686  0.936965  0.583727  0.190465
    H   H17  0.551227  0.064250  0.680502  0.163527
    H   H18  0.375544  0.937344  0.415973  0.193682
    C   C29  0.459727  0.200216  0.407165  0.392185
    C   C30  0.563859  0.801818  0.560687  0.429176
    C   C31  0.539870  0.200208  0.593545  0.389532
    C   C32  0.436256  0.802091  0.438139  0.432649
    N   N1   0.499645  0.250722  0.500468  -0.357410
    N   N2   0.499930  0.751356  0.499459  -0.379333
    C   C33  0.500201  0.053111  0.499951  0.188268
    C   C34  0.500169  0.949113  0.499774  0.355316
    C   C35  0.408071  0.246267  0.304323  -0.361859
    C   C36  0.326552  0.191216  0.261998  0.539936
    C   C37  0.269474  0.161200  0.371214  -0.313988
    C   C38  0.272931  0.253417  0.175693  -0.435751
    H   H19  0.451884  0.256028  0.223095  0.075533
    H   H20  0.383085  0.314685  0.334937  0.166825
    H   H21  0.345452  0.128231  0.207293  -0.092326
    H   H22  0.277280  0.210702  0.449886  0.054163
    H   H23  0.288017  0.089345  0.402123  0.029369
    H   H24  0.199465  0.159524  0.342668  0.070456
    H   H25  0.244593  0.313826  0.227312  0.089264
    H   H26  0.218976  0.211542  0.133685  0.086587
    H   H27  0.315629  0.280396  0.100230  0.090984
    C   C39  0.635026  0.756987  0.637862  -0.411721
    C   C40  0.649452  0.805039  0.763605  0.521645
    C   C41  0.563477  0.816078  0.833904  -0.382858
    C   C42  0.711933  0.745049  0.840111  -0.432110
    H   H28  0.697548  0.759390  0.585070  0.102159
    H   H29  0.619389  0.683979  0.659841  0.168336
    H   H30  0.680844  0.875023  0.752542  -0.080275
    H   H31  0.523903  0.750984  0.824840  0.106749
    H   H32  0.525510  0.876886  0.797697  0.046824
    H   H33  0.577440  0.829184  0.933385  0.082342
    H   H34  0.680613  0.676764  0.863910  0.114960
    H   H35  0.729391  0.782818  0.926822  0.090551
    H   H36  0.772913  0.731739  0.786534  0.070218
    C   C43  0.590946  0.246500  0.696821  -0.355991
    C   C44  0.671901  0.191464  0.741311  0.547820
    C   C45  0.730209  0.160907  0.633652  -0.325501
    C   C46  0.724654  0.254053  0.828157  -0.420526
    H   H37  0.546479  0.257065  0.777174  0.071307
    H   H38  0.616537  0.314570  0.665769  0.163513
    H   H39  0.652362  0.128813  0.796219  -0.097398
    H   H40  0.723365  0.210098  0.554458  0.055675
    H   H41  0.712013  0.088899  0.602924  0.032981
    H   H42  0.799877  0.159315  0.663820  0.073120
    H   H43  0.753558  0.314143  0.776497  0.086793
    H   H44  0.778132  0.212356  0.871669  0.080971
    H   H45  0.681214  0.281456  0.902499  0.086823
    C   C47  0.365526  0.757903  0.359537  -0.416594
    C   C48  0.353798  0.805879  0.233090  0.532356
    C   C49  0.440382  0.811368  0.163128  -0.392936
    C   C50  0.288427  0.749431  0.156796  -0.435345
    H   H46  0.302379  0.761884  0.410627  0.102256
    H   H47  0.380028  0.684373  0.338935  0.166011
    H   H48  0.326100  0.877726  0.242849  -0.082100
    H   H49  0.473666  0.741994  0.165550  0.115228
    H   H50  0.483967  0.865676  0.204269  0.050663
    H   H51  0.427562  0.831180  0.065252  0.083228
    H   H52  0.315646  0.678804  0.135153  0.116440
    H   H53  0.274188  0.787175  0.068880  0.089261
    H   H54  0.226285  0.741230  0.209503  0.071039
