data_DB0-m3_o12_o29_f0_pcu.sym.14_repeat
_audit_creation_date              2024-02-23
_audit_creation_method            'Materials Studio'
_symmetry_space_group_name_H-M    'P1'
_symmetry_Int_Tables_number       1
_symmetry_cell_setting            triclinic
loop_
_symmetry_equiv_pos_as_xyz
  x,y,z
_cell_length_a                    10.1380
_cell_length_b                    11.2614
_cell_length_c                    27.6599
_cell_angle_alpha                 89.9893
_cell_angle_beta                  80.6604
_cell_angle_gamma                 92.4761
loop_
_atom_site_label
_atom_site_type_symbol
_atom_site_fract_x
_atom_site_fract_y
_atom_site_fract_z
_atom_site_U_iso_or_equiv
_atom_site_adp_type
_atom_site_occupancy
O1     O     0.42468   0.69038   0.50411   0.00000  Uiso   1.00
O2     O     0.57519   0.30936   0.49580   0.00000  Uiso   1.00
O3     O     0.65129   0.65967   0.49151   0.00000  Uiso   1.00
O4     O     0.34858   0.34007   0.50850   0.00000  Uiso   1.00
C1     C     0.55006   0.72983   0.49713   0.00000  Uiso   1.00
C2     C     0.44981   0.26991   0.50284   0.00000  Uiso   1.00
O5     O     0.38438   0.51547   0.57857   0.00000  Uiso   1.00
O6     O     0.61552   0.48441   0.42139   0.00000  Uiso   1.00
O7     O     0.61076   0.48436   0.56576   0.00000  Uiso   1.00
O8     O     0.38908   0.51524   0.43420   0.00000  Uiso   1.00
C3     C     0.49710   0.49990   0.59484   0.00000  Uiso   1.00
C4     C     0.50278   0.49983   0.40512   0.00000  Uiso   1.00
Zn1    Zn    0.35056   0.52004   0.50836   0.00000  Uiso   1.00
Zn2    Zn    0.64932   0.47970   0.49161   0.00000  Uiso   1.00
C5     C     0.57793   0.57862   0.81911   0.00000  Uiso   1.00
C6     C     0.43302   0.41376   0.18024   0.00000  Uiso   1.00
O9     O     0.65631   0.65716   0.78966   0.00000  Uiso   1.00
O10    O     0.36531   0.32792   0.20907   0.00000  Uiso   1.00
N1     N     0.49561   0.50143   0.79990   0.00000  Uiso   1.00
N2     N     0.50455   0.49878   0.20011   0.00000  Uiso   1.00
C7     C     0.41399   0.42425   0.82917   0.00000  Uiso   1.00
C8     C     0.57538   0.58393   0.17158   0.00000  Uiso   1.00
C9     C     0.61154   0.47941   0.71633   0.00000  Uiso   1.00
C10    C     0.38637   0.51139   0.28374   0.00000  Uiso   1.00
C11    C     0.61204   0.47910   0.66646   0.00000  Uiso   1.00
C12    C     0.38586   0.51195   0.33361   0.00000  Uiso   1.00
C13    C     0.38016   0.52126   0.67995   0.00000  Uiso   1.00
C14    C     0.62177   0.48725   0.31989   0.00000  Uiso   1.00
C15    C     0.38001   0.52175   0.72983   0.00000  Uiso   1.00
C16    C     0.62207   0.48726   0.27000   0.00000  Uiso   1.00
C17    C     0.49567   0.50088   0.74826   0.00000  Uiso   1.00
C18    C     0.50438   0.49913   0.25173   0.00000  Uiso   1.00
C19    C     0.49750   0.50111   0.89958   0.00000  Uiso   1.00
C20    C     0.50268   0.49930   0.10047   0.00000  Uiso   1.00
C21    C     0.57995   0.57919   0.86903   0.00000  Uiso   1.00
C22    C     0.43109   0.41315   0.13032   0.00000  Uiso   1.00
C23    C     0.66505   0.65708   0.88839   0.00000  Uiso   1.00
C24    C     0.35918   0.32568   0.11010   0.00000  Uiso   1.00
C25    C     0.41387   0.42336   0.87922   0.00000  Uiso   1.00
C26    C     0.57544   0.58505   0.12153   0.00000  Uiso   1.00
C27    C     0.49631   0.50004   0.64794   0.00000  Uiso   1.00
C28    C     0.50358   0.49970   0.35202   0.00000  Uiso   1.00
H1     H     0.28842   0.53831   0.66652   0.00000  Uiso   1.00
H2     H     0.71518   0.47740   0.33322   0.00000  Uiso   1.00
H3     H     0.28893   0.53990   0.75441   0.00000  Uiso   1.00
H4     H     0.71491   0.47660   0.24528   0.00000  Uiso   1.00
H5     H     0.73290   0.71788   0.86528   0.00000  Uiso   1.00
H6     H     0.30427   0.25536   0.13238   0.00000  Uiso   1.00
C29    C     0.57745   0.58569   0.02061   0.00000  Uiso   1.00
C30    C     0.41770   0.41846   0.97977   0.00000  Uiso   1.00
C31    C     0.42409   0.41428   0.02998   0.00000  Uiso   1.00
C32    C     0.58110   0.58251   0.96975   0.00000  Uiso   1.00
C33    C     0.50142   0.49975   0.05019   0.00000  Uiso   1.00
C34    C     0.49875   0.50071   0.94986   0.00000  Uiso   1.00
C35    C     0.64721   0.67364   0.04296   0.00000  Uiso   1.00
C36    C     0.33107   0.34288   0.95851   0.00000  Uiso   1.00
C37    C     0.64630   0.67284   0.09262   0.00000  Uiso   1.00
C38    C     0.32982   0.34523   0.90899   0.00000  Uiso   1.00
O11    O     0.64381   0.66963   0.19214   0.00000  Uiso   1.00
O12    O     0.33484   0.34576   0.80938   0.00000  Uiso   1.00
C39    C     0.66623   0.65867   0.93792   0.00000  Uiso   1.00
C40    C     0.35584   0.32574   0.06071   0.00000  Uiso   1.00
H7     H     0.29205   0.52198   0.35780   0.00000  Uiso   1.00
H8     H     0.70413   0.46177   0.64237   0.00000  Uiso   1.00
H9     H     0.29383   0.52187   0.26983   0.00000  Uiso   1.00
H10    H     0.70238   0.46156   0.73028   0.00000  Uiso   1.00
H11    H     0.70215   0.74283   0.10816   0.00000  Uiso   1.00
H12    H     0.26103   0.28473   0.89429   0.00000  Uiso   1.00
H13    H     0.70187   0.74775   0.02363   0.00000  Uiso   1.00
H14    H     0.25890   0.28165   0.97898   0.00000  Uiso   1.00
H15    H     0.73910   0.71975   0.94944   0.00000  Uiso   1.00
H16    H     0.30051   0.25186   0.04804   0.00000  Uiso   1.00
H17    H     0.62125   0.09430   0.49317   0.00000  Uiso   1.00
H18    H     0.37863   0.90543   0.50678   0.00000  Uiso   1.00
C41    C     0.57994   0.85841   0.49546   0.00000  Uiso   1.00
C42    C     0.41994   0.14132   0.50451   0.00000  Uiso   1.00
C43    C     0.48289   0.93585   0.50092   0.00000  Uiso   1.00
C44    C     0.51698   0.06389   0.49903   0.00000  Uiso   1.00
H19    H     0.31623   0.10912   0.51034   0.00000  Uiso   1.00
H20    H     0.68364   0.89062   0.48965   0.00000  Uiso   1.00
H21    H     0.11391   0.42818   0.46748   0.00000  Uiso   1.00
H22    H     0.88597   0.57156   0.53248   0.00000  Uiso   1.00
N3     N     0.84576   0.45345   0.48079   0.00000  Uiso   1.00
N4     N     0.15412   0.54629   0.51917   0.00000  Uiso   1.00
C45    C     0.92718   0.50936   0.50479   0.00000  Uiso   1.00
C46    C     0.07269   0.49038   0.49518   0.00000  Uiso   1.00
O13    O     0.09944   0.62014   0.55393   0.00000  Uiso   1.00
H23    H     0.11637   0.70021   0.53882   0.00000  Uiso   1.00
O14    O     0.90044   0.37961   0.44602   0.00000  Uiso   1.00
H24    H     0.88351   0.29953   0.46113   0.00000  Uiso   1.00
