# Generated by REPEAT Assigner based on pymatgen
data_DB0-m3_o6_o16_f0_pcu.sym.75_sqe
_audit_creation_date              2022-05-24
_audit_creation_method            REPEAT_Assigner
_cell_length_a                    13.712076
_cell_length_b                    14.973922
_cell_length_c                    16.136485
_cell_angle_alpha                 90.007814
_cell_angle_beta                  89.983397
_cell_angle_gamma                 73.711504
_cell_volume                      3180.213620
_symmetry_space_group_name_H-M    P1
_symmetry_Int_Tables_number       1
loop_
    _symmetry_equiv_pos_site_id
    _symmetry_equiv_pos_as_xyz
    1  x,y,z
loop_
    _atom_site_type_symbol
    _atom_site_label
    _atom_site_fract_x
    _atom_site_fract_y
    _atom_site_fract_z
    _atom_type_partial_charge
    O   O1   0.508352  0.423002  0.621808  -0.688668
    O   O2   0.501945  0.578797  0.621256  -0.679288
    C   C1   0.506615  0.500729  0.660042  0.899385
    O   O3   0.654742  0.390091  0.494406  -0.667824
    O   O4   0.647162  0.545468  0.492600  -0.621572
    C   C2   0.699185  0.457358  0.493429  0.751444
    Zn  Zn1  0.504493  0.399188  0.498421  1.093333
    Zn  Zn2  0.495085  0.604525  0.497807  1.061240
    O   O5   0.498548  0.424807  0.374966  -0.683694
    O   O6   0.490081  0.580875  0.374477  -0.688766
    O   O7   0.352249  0.457979  0.502504  -0.646085
    O   O8   0.344870  0.613909  0.502676  -0.651777
    C   C3   0.492730  0.503043  0.336192  0.901722
    C   C4   0.300980  0.546369  0.504367  0.731519
    C   C5   0.038730  0.675996  0.567386  -0.147466
    H   H1   0.180098  0.706555  0.562094  0.079122
    H   H2   0.847725  0.689271  0.612685  0.104404
    C   C6   0.190211  0.570726  0.515145  -0.104733
    C   C7   0.857262  0.348684  0.447196  0.073271
    C   C8   0.958974  0.324404  0.429632  -0.099061
    C   C9   0.016815  0.382702  0.449655  -0.040630
    C   C10  0.974640  0.466105  0.491520  -0.033890
    C   C11  0.871370  0.489080  0.511727  0.242254
    C   C12  0.032601  0.527394  0.512817  0.024842
    C   C13  0.985218  0.611288  0.551729  0.237519
    C   C14  0.885554  0.628689  0.577071  -0.182063
    C   C15  0.830816  0.567359  0.559688  -0.261421
    C   C16  0.136989  0.507203  0.497098  -0.165723
    C   C17  0.139900  0.655935  0.547674  0.023502
    C   C18  0.811336  0.431777  0.486194  -0.254278
    H   H3   0.180627  0.442231  0.471421  0.127412
    H   H4   0.813377  0.303114  0.426751  0.081531
    H   H5   0.094735  0.359229  0.430340  0.092092
    H   H6   0.756178  0.582683  0.586635  0.171821
    H   H7   0.501776  0.359585  0.921300  0.143344
    C   C19  0.497391  0.422614  0.040497  -0.183319
    H   H8   0.495727  0.360348  0.073674  0.139091
    C   C20  0.496006  0.502488  0.083596  0.256068
    C   C21  0.498261  0.581870  0.041224  -0.179349
    H   H9   0.497279  0.644477  0.074988  0.143301
    C   C22  0.501750  0.581418  0.955793  -0.183122
    H   H10  0.503333  0.643698  0.922617  0.138866
    C   C23  0.503126  0.501542  0.912684  0.255885
    C   C24  0.500878  0.422166  0.955068  -0.179725
    C   C25  0.493426  0.502730  0.172539  -0.088684
    C   C26  0.505751  0.501235  0.823721  -0.086959
    C   C27  0.506933  0.500970  0.749019  -0.273763
    C   C28  0.492341  0.502890  0.247231  -0.271369
    H   H11  0.632722  0.880950  0.569037  0.164692
    C   C29  0.578637  0.024999  0.537783  -0.229953
    H   H12  0.639928  0.043281  0.569251  0.196102
    C   C30  0.504436  0.092667  0.497786  0.308712
    C   C31  0.426120  0.069342  0.457776  -0.130546
    H   H13  0.367879  0.122411  0.426484  0.142215
    C   C32  0.421973  0.978389  0.457748  -0.255227
    H   H14  0.360677  0.960091  0.426294  0.202102
    C   C33  0.496064  0.910764  0.497857  0.343629
    C   C34  0.574492  0.934035  0.537749  -0.181932
    C   C35  0.508019  0.187541  0.498255  0.037649
    C   C36  0.492181  0.815997  0.497598  0.019913
    N   N1   0.490105  0.739291  0.497473  -0.094404
    N   N2   0.509815  0.264334  0.498562  -0.109555
    I   I1   0.974202  0.808119  0.621723  -0.061536
    I   I2   0.026116  0.198990  0.366945  -0.061601
