# Generated by REPEAT Assigner based on pymatgen
data_DB0-m29_o91_o510_f0_pts.sym.76
_audit_creation_date              2022-05-24
_audit_creation_method            REPEAT_Assigner
_cell_length_a                    14.492466
_cell_length_b                    18.631218
_cell_length_c                    13.119886
_cell_angle_alpha                 109.370680
_cell_angle_beta                  86.965078
_cell_angle_gamma                 75.820974
_cell_volume                      3205.122153
_symmetry_space_group_name_H-M    P1
_symmetry_Int_Tables_number       1
loop_
    _symmetry_equiv_pos_site_id
    _symmetry_equiv_pos_as_xyz
    1  x,y,z
loop_
    _atom_site_type_symbol
    _atom_site_label
    _atom_site_fract_x
    _atom_site_fract_y
    _atom_site_fract_z
    _atom_type_partial_charge
    C   C1   0.294532  0.980349  0.093495  0.027996
    C   C2   0.196013  0.000822  0.100430  -0.166536
    H   H1   0.151734  0.023190  0.179278  0.134967
    C   C3   0.153134  0.992264  0.007157  0.061373
    C   C4   0.209681  0.972017  0.906616  0.193811
    C   C5   0.309439  0.954256  0.900812  -0.197563
    C   C6   0.350439  0.953443  0.993288  -0.059803
    C   C7   0.047332  0.015258  0.022079  -0.199613
    C   C8   0.997573  0.970554  0.960153  -0.216063
    C   C9   0.846128  0.993343  0.887515  -0.264996
    H   H2   0.888356  0.973555  0.807869  0.141544
    C   C10  0.747386  0.018092  0.898554  0.011935
    C   C11  0.693639  0.039701  0.998973  -0.117952
    C   C12  0.737452  0.032042  0.087365  -0.005974
    C   C13  0.837496  0.013036  0.078706  0.097904
    C   C14  0.891748  0.994664  0.977622  0.190133
    H   H3   0.427524  0.940581  0.990151  0.145066
    H   H4   0.616466  0.051787  0.003391  0.126843
    H   H5   0.009284  0.068195  0.090103  0.161522
    H   H6   0.034878  0.917469  0.891920  0.137903
    O   O1   0.582903  0.060018  0.190056  -0.567845
    C   C15  0.676541  0.031370  0.180507  0.631062
    O   O2   0.595805  0.855692  0.181211  -0.480021
    O   O3   0.712030  0.988619  0.238479  -0.492942
    O   O4   0.570131  0.947730  0.351966  -0.475799
    C   C16  0.602569  0.873581  0.285486  0.568633
    Fe  Fe1  0.507855  0.022851  0.282381  1.403672
    O   O5   0.431201  0.960291  0.184770  -0.541605
    O   O6   0.304086  0.068401  0.270326  -0.432575
    C   C17  0.341355  0.000075  0.191124  0.529436
    O   O7   0.440486  0.125328  0.403230  -0.627651
    O   O8   0.395542  0.039381  0.469463  -0.488349
    C   C18  0.396278  0.112142  0.482255  0.746956
    O   O9   0.576673  0.895404  0.600422  -0.559226
    O   O10  0.654902  0.965416  0.531488  -0.464344
    C   C19  0.632019  0.899626  0.521052  0.701305
    O   O11  0.615670  0.054638  0.806498  -0.642032
    O   O12  0.719362  0.931418  0.731877  -0.564869
    C   C20  0.698175  0.003992  0.802529  0.722722
    O   O13  0.344005  0.950104  0.714372  -0.525921
    O   O14  0.458176  0.077313  0.661912  -0.545763
    C   C21  0.371080  0.118255  0.713893  0.534252
    O   O15  0.455855  0.967070  0.828889  -0.609676
    C   C22  0.373505  0.951963  0.807844  0.731709
    O   O16  0.343474  0.114194  0.808089  -0.435199
    Fe  Fe2  0.524864  0.999199  0.724692  1.455080
    C   C23  0.891484  0.566104  0.340076  0.458506
    N   N1   0.821606  0.626121  0.414530  -0.195164
    C   C24  0.810306  0.628296  0.519080  0.394421
    C   C25  0.875541  0.575915  0.552476  -0.029249
    C   C26  0.942409  0.512852  0.476241  0.020984
    C   C27  0.947269  0.505937  0.368764  -0.043999
    C   C28  0.873745  0.585935  0.661832  -0.084960
    C   C29  0.941115  0.534507  0.693793  -0.056809
    C   C30  0.005350  0.468961  0.616200  -0.130007
    C   C31  0.003715  0.457028  0.507375  0.166921
    C   C32  0.063443  0.389150  0.430311  -0.247114
    C   C33  0.067109  0.380998  0.320313  0.353585
    C   C34  0.010688  0.440214  0.290927  -0.201683
    C   C35  0.072320  0.416291  0.647142  0.488900
    N   N2   0.124322  0.345767  0.572253  -0.180184
    C   C36  0.115435  0.330189  0.464997  0.484436
    O   O17  0.910111  0.565556  0.238342  -0.461474
    O   O18  0.734307  0.680174  0.591395  -0.436046
    H   H7   0.822710  0.635537  0.723995  0.135855
    H   H8   0.940057  0.544970  0.779982  0.137703
    O   O19  0.086109  0.436669  0.752306  -0.472236
    O   O20  0.152476  0.256228  0.392466  -0.425690
    H   H9   0.016207  0.433443  0.205600  0.142175
    C   C37  0.274741  0.240185  0.544388  -0.187655
    H   H10  0.298824  0.247583  0.470228  0.220628
    C   C38  0.328821  0.178063  0.570348  -0.087415
    C   C39  0.306447  0.172969  0.671655  0.034517
    C   C40  0.220237  0.221398  0.735271  -0.068043
    H   H11  0.197883  0.216752  0.812109  0.116181
    C   C41  0.158588  0.274192  0.699814  -0.165661
    H   H12  0.088398  0.305385  0.747551  0.141758
    C   C42  0.186804  0.287407  0.606541  0.204396
    C   C43  0.737337  0.766479  0.455019  -0.294577
    H   H13  0.761738  0.782676  0.533635  0.224249
    C   C44  0.678269  0.826327  0.429355  0.019713
    C   C45  0.654083  0.811023  0.324417  -0.018851
    C   C46  0.679332  0.733090  0.253363  -0.096461
    H   H14  0.657803  0.718068  0.173085  0.143185
    C   C47  0.728495  0.672284  0.284779  -0.187177
    H   H15  0.740331  0.612146  0.229275  0.153057
    C   C48  0.762672  0.688401  0.384248  0.298451
    N   N3   0.130511  0.315155  0.237061  -0.500835
    C   C49  0.220551  0.321955  0.222626  0.829922
    O   O21  0.248194  0.369314  0.294336  -0.567855
    C   C50  0.286910  0.271913  0.118869  -0.671909
    H   H16  0.103771  0.293886  0.165358  0.287339
    H   H17  0.252401  0.230559  0.063354  0.182660
    H   H18  0.353108  0.237106  0.137800  0.210929
    H   H19  0.306406  0.310628  0.077906  0.170282
    N   N4   0.166638  0.977206  0.814149  -0.297749
    C   C51  0.120572  0.050963  0.819162  0.776917
    O   O22  0.134530  0.108477  0.887873  -0.535999
    C   C52  0.053703  0.062781  0.739781  -0.608528
    H   H20  0.142998  0.930695  0.767592  0.228791
    H   H21  0.050189  0.005009  0.681662  0.140614
    H   H22  0.079625  0.095936  0.693500  0.177597
    H   H23  0.980770  0.097384  0.784881  0.157236
    N   N5   0.883408  0.003346  0.167841  -0.404418
    C   C53  0.876630  0.070812  0.252728  0.772566
    O   O23  0.820703  0.133066  0.258062  -0.573321
    C   C54  0.938699  0.070079  0.339786  -0.528738
    H   H24  0.945636  0.958241  0.152789  0.282969
    H   H25  0.984427  0.009267  0.324288  0.109138
    H   H26  0.892437  0.091945  0.419985  0.177345
    H   H27  0.985265  0.109547  0.341618  0.142376
