# Generated by REPEAT Assigner based on pymatgen
data_DB0-m3_o3_o17_f0_pcu.sym.6_sqe
_audit_creation_date              2022-05-24
_audit_creation_method            REPEAT_Assigner
_cell_length_a                    19.444764
_cell_length_b                    18.324419
_cell_length_c                    15.041020
_cell_angle_alpha                 90.000000
_cell_angle_beta                  90.016440
_cell_angle_gamma                 90.000000
_cell_volume                      5359.325632
_symmetry_space_group_name_H-M    P1
_symmetry_Int_Tables_number       1
loop_
    _symmetry_equiv_pos_site_id
    _symmetry_equiv_pos_as_xyz
    1  x,y,z
loop_
    _atom_site_type_symbol
    _atom_site_label
    _atom_site_fract_x
    _atom_site_fract_y
    _atom_site_fract_z
    _atom_type_partial_charge
    O   O1   0.397604  0.563057  0.499713  -0.616606
    O   O2   0.602396  0.436943  0.500287  -0.616504
    O   O3   0.602499  0.562882  0.500186  -0.612756
    O   O4   0.397501  0.437118  0.499814  -0.612707
    C   C1   0.365363  0.500115  0.499704  0.655061
    C   C2   0.634638  0.499885  0.500296  0.654979
    O   O5   0.500454  0.562929  0.367504  -0.754801
    O   O6   0.499546  0.437072  0.632496  -0.754882
    O   O7   0.499699  0.563125  0.632394  -0.756445
    O   O8   0.500301  0.436875  0.367606  -0.756387
    C   C3   0.500486  0.499879  0.326311  0.981671
    C   C4   0.499514  0.500121  0.673689  0.981908
    Zn  Zn1  0.500069  0.583197  0.499925  1.029878
    Zn  Zn2  0.499931  0.416803  0.500075  1.029897
    C   C5   0.560766  0.500872  0.816141  -0.184838
    C   C6   0.439234  0.499128  0.183859  -0.185033
    C   C7   0.499486  0.500164  0.770556  -0.084640
    C   C8   0.500514  0.499836  0.229444  -0.084268
    C   C9   0.438105  0.499406  0.816136  -0.266864
    C   C10  0.561895  0.500594  0.183864  -0.267311
    C   C11  0.437708  0.499386  0.908334  0.241402
    C   C12  0.562292  0.500614  0.091666  0.241775
    C   C13  0.499588  0.500037  0.954028  -0.052710
    C   C14  0.500412  0.499963  0.045972  -0.053086
    C   C15  0.560838  0.500765  0.907751  0.118384
    C   C16  0.439162  0.499235  0.092249  0.118611
    C   C17  0.376404  0.498714  0.955537  -0.033836
    C   C18  0.623596  0.501286  0.044463  -0.033872
    C   C19  0.377574  0.498634  0.047037  -0.188257
    C   C20  0.622426  0.501366  0.952963  -0.188250
    H   H1   0.608657  0.501430  0.779664  0.155680
    H   H2   0.391343  0.498570  0.220336  0.155694
    H   H3   0.391269  0.498865  0.777696  0.112341
    H   H4   0.608731  0.501136  0.222304  0.112434
    H   H5   0.329574  0.498105  0.083261  0.118274
    H   H6   0.670426  0.501895  0.916739  0.118291
    C   C21  0.745970  0.434756  0.500392  -0.026098
    C   C22  0.254030  0.565245  0.499606  -0.025999
    C   C23  0.254024  0.435074  0.499569  -0.029020
    C   C24  0.745976  0.564926  0.500433  -0.028958
    H   H7   0.719294  0.383037  0.500694  0.080212
    H   H8   0.280706  0.616963  0.499303  0.080215
    H   H9   0.280684  0.383353  0.500068  0.077585
    H   H10  0.719316  0.616647  0.499935  0.077581
    C   C25  0.816870  0.434787  0.500315  -0.208185
    C   C26  0.183130  0.565213  0.499684  -0.208326
    C   C27  0.183135  0.435102  0.499462  -0.201858
    C   C28  0.816865  0.564898  0.500540  -0.201888
    H   H11  0.843634  0.383131  0.502066  0.106631
    H   H12  0.156366  0.616869  0.497932  0.106681
    H   H13  0.156384  0.383448  0.501305  0.111154
    H   H14  0.843616  0.616553  0.498699  0.111103
    C   C29  0.852892  0.499848  0.500423  0.133991
    C   C30  0.147108  0.500152  0.499577  0.134035
    C   C31  0.710062  0.499844  0.500414  -0.072234
    C   C32  0.289938  0.500156  0.499586  -0.072331
    C   C33  0.964605  0.550634  0.549762  -0.162858
    C   C34  0.035395  0.449366  0.450239  -0.162816
    C   C35  0.035497  0.550748  0.549501  -0.129020
    C   C36  0.964503  0.449252  0.450499  -0.128991
    H   H15  0.937907  0.589671  0.591062  0.110494
    H   H16  0.062093  0.410329  0.408938  0.110318
    H   H17  0.062284  0.589862  0.590618  0.112370
    H   H18  0.937716  0.410139  0.409382  0.112432
    C   C37  0.071481  0.500113  0.499739  0.072470
    C   C38  0.928519  0.499887  0.500261  0.072315
    C   C39  0.542262  0.730098  0.555279  0.036935
    C   C40  0.457738  0.269902  0.444721  0.037151
    C   C41  0.458054  0.730081  0.444299  0.035949
    C   C42  0.541946  0.269919  0.555701  0.036001
    C   C43  0.542576  0.805334  0.555932  -0.150353
    C   C44  0.457424  0.194666  0.444068  -0.150472
    C   C45  0.457704  0.805320  0.443653  -0.150878
    C   C46  0.542296  0.194680  0.556347  -0.150882
    H   H19  0.577797  0.833316  0.599813  0.092704
    H   H20  0.422203  0.166684  0.400187  0.092708
    H   H21  0.422461  0.833286  0.399782  0.093307
    H   H22  0.577538  0.166714  0.600218  0.093353
    C   C47  0.500115  0.843896  0.499819  0.146205
    C   C48  0.499885  0.156104  0.500181  0.146201
    N   N1   0.500152  0.692607  0.499806  0.074359
    N   N2   0.499848  0.307394  0.500194  0.074214
    C   C49  0.493596  0.962441  0.421158  -0.131065
    C   C50  0.506405  0.037559  0.578842  -0.131144
    C   C51  0.506453  0.962327  0.578749  -0.130807
    C   C52  0.493547  0.037673  0.421251  -0.130915
    H   H23  0.490285  0.934100  0.358316  0.121937
    H   H24  0.509715  0.065900  0.641684  0.121944
    H   H25  0.509793  0.933888  0.641522  0.121818
    H   H26  0.490207  0.066112  0.358477  0.121875
    C   C53  0.499948  0.075853  0.500093  0.076897
    C   C54  0.500052  0.924148  0.499907  0.076816
    Cl  Cl1  0.295984  0.497978  0.902529  -0.081492
    Cl  Cl2  0.704016  0.502022  0.097471  -0.081506
    Cl  Cl3  0.598505  0.685698  0.628464  0.003589
    Cl  Cl4  0.401495  0.314302  0.371536  0.003494
    Cl  Cl5  0.401823  0.685655  0.371129  0.004453
    Cl  Cl6  0.598177  0.314345  0.628871  0.004367
