# Generated by REPEAT Assigner based on pymatgen
data_DB0-m3_o4_o15_f0_nbo.sym.22
_audit_creation_date              2022-05-24
_audit_creation_method            REPEAT_Assigner
_cell_length_a                    19.000352
_cell_length_b                    19.005000
_cell_length_c                    18.950143
_cell_angle_alpha                 109.532182
_cell_angle_beta                  109.525290
_cell_angle_gamma                 109.464910
_cell_volume                      5260.607408
_symmetry_space_group_name_H-M    P1
_symmetry_Int_Tables_number       1
loop_
    _symmetry_equiv_pos_site_id
    _symmetry_equiv_pos_as_xyz
    1  x,y,z
loop_
    _atom_site_type_symbol
    _atom_site_label
    _atom_site_fract_x
    _atom_site_fract_y
    _atom_site_fract_z
    _atom_type_partial_charge
    O   O1   0.417607  0.359753  0.456162  -0.730121
    O   O2   0.421454  0.460623  0.569187  -0.668806
    C   C1   0.392068  0.380652  0.512647  0.800656
    O   O3   0.603064  0.456406  0.545241  -0.723335
    O   O4   0.599768  0.552805  0.655136  -0.648191
    C   C2   0.631452  0.504785  0.627774  0.718924
    Zn  Zn1  0.506535  0.435884  0.438842  1.288838
    Zn  Zn2  0.507261  0.568762  0.582276  1.272275
    O   O5   0.591846  0.544057  0.451431  -0.650209
    O   O6   0.596569  0.644874  0.565420  -0.687569
    O   O7   0.413686  0.451247  0.365778  -0.667819
    O   O8   0.411260  0.548986  0.475898  -0.684994
    C   C3   0.621646  0.624003  0.508657  0.671858
    C   C4   0.382940  0.499884  0.393509  0.677159
    H   H1   0.570350  0.212578  0.557608  0.104181
    C   C5   0.784012  0.662547  0.766954  -0.287401
    C   C6   0.849075  0.740057  0.839687  -0.052539
    C   C7   0.903638  0.741495  0.909769  -0.112315
    C   C8   0.896567  0.665597  0.905339  -0.154421
    C   C9   0.833910  0.586687  0.830347  0.119217
    C   C10  0.772956  0.584853  0.763051  0.153370
    C   C11  0.830966  0.510071  0.822436  -0.198817
    C   C12  0.765086  0.431766  0.748087  0.203532
    C   C13  0.697864  0.429240  0.686383  0.081634
    C   C14  0.702212  0.506099  0.692827  -0.186097
    C   C15  0.765482  0.355200  0.734460  -0.301476
    C   C16  0.696464  0.277166  0.665726  -0.025150
    C   C17  0.625881  0.274077  0.610132  -0.168613
    C   C18  0.626404  0.349241  0.619905  -0.101178
    H   H2   0.743936  0.665520  0.713491  0.192802
    H   H3   0.856297  0.799819  0.842081  0.093586
    H   H4   0.953325  0.802373  0.967921  0.094781
    H   H5   0.941109  0.670917  0.962632  0.143748
    H   H6   0.819524  0.353619  0.775471  0.190829
    H   H7   0.697213  0.218185  0.656479  0.099999
    H   H8   0.568519  0.342152  0.574580  0.165550
    C   C19  0.253031  0.244860  0.437636  0.111340
    C   C20  0.327060  0.312146  0.512646  -0.214833
    C   C21  0.334531  0.315014  0.589356  0.311263
    C   C22  0.268930  0.251654  0.587609  -0.409161
    H   H9   0.275589  0.255519  0.647913  0.220361
    C   C23  0.193864  0.186624  0.510320  -0.024252
    C   C24  0.189148  0.186823  0.436605  0.061014
    C   C25  0.132357  0.140444  0.341415  -0.143199
    C   C26  0.207005  0.209245  0.342748  -0.116103
    H   H10  0.122631  0.074606  0.309709  0.069470
    H   H11  0.073576  0.146282  0.322565  0.069185
    H   H12  0.238580  0.181778  0.311197  0.066161
    H   H13  0.190006  0.253817  0.325281  0.066972
    C   C27  0.310042  0.483949  0.250332  0.095220
    C   C28  0.315332  0.500407  0.328603  -0.055036
    C   C29  0.253459  0.516600  0.341997  -0.168923
    H   H14  0.253921  0.529153  0.402194  0.151000
    C   C30  0.188885  0.514566  0.276950  -0.176394
    H   H15  0.140669  0.526665  0.287761  0.146250
    C   C31  0.188302  0.500395  0.199935  -0.080068
    C   C32  0.251469  0.486394  0.190627  0.107350
    C   C33  0.283154  0.467152  0.128917  -0.151570
    C   C34  0.352538  0.464557  0.199387  -0.088326
    H   H16  0.236232  0.403210  0.069602  0.072664
    H   H17  0.310632  0.522334  0.119393  0.073758
    H   H18  0.344568  0.399220  0.179249  0.058734
    H   H19  0.418696  0.518304  0.229169  0.022499
    C   C35  0.679597  0.694207  0.436413  -0.021597
    C   C36  0.687685  0.692934  0.510502  0.009088
    C   C37  0.763036  0.758932  0.587096  -0.218045
    H   H20  0.773201  0.761075  0.647559  0.144650
    C   C38  0.827591  0.820919  0.586365  -0.105018
    H   H21  0.886326  0.870915  0.646619  0.133926
    C   C39  0.815865  0.819978  0.509546  -0.164934
    C   C40  0.739106  0.755355  0.436165  0.278015
    C   C41  0.689617  0.719979  0.341542  -0.242211
    C   C42  0.619391  0.648428  0.342000  -0.087475
    H   H22  0.668766  0.763299  0.325596  0.080676
    H   H23  0.720815  0.695128  0.307607  0.074964
    H   H24  0.559759  0.652508  0.327004  0.105715
    H   H25  0.611045  0.583593  0.307931  0.066288
    O   O9   0.954476  0.365059  0.918257  -0.653208
    O   O10  0.067668  0.468109  0.924934  -0.634273
    C   C43  0.010346  0.387746  0.892663  0.621857
    O   O11  0.867042  0.459439  0.921345  -0.658548
    O   O12  0.977751  0.559580  0.922491  -0.682585
    C   C44  0.895257  0.510617  0.892899  0.691482
    Zn  Zn3  0.938121  0.438617  0.010231  1.264812
    Zn  Zn4  0.082790  0.574696  0.015720  1.267269
    O   O13  0.952598  0.545239  0.100375  -0.648549
    O   O14  0.067249  0.648250  0.108432  -0.678033
    O   O15  0.043008  0.454232  0.104067  -0.696110
    O   O16  0.153942  0.553298  0.103974  -0.675378
    C   C45  0.010904  0.625457  0.133367  0.685129
    C   C46  0.125178  0.502654  0.132644  0.740970
    O   O17  0.054012  0.100229  0.651555  -0.683285
    O   O18  0.946065  0.089794  0.538784  -0.711250
    C   C47  0.998053  0.123382  0.621710  0.675091
    O   O19  0.149138  0.099005  0.568306  -0.654224
    O   O20  0.044334  0.087336  0.451746  -0.702567
    C   C48  0.125465  0.120917  0.509585  0.719261
    Zn  Zn5  0.072260  0.007661  0.582348  1.292875
    Zn  Zn6  0.935041  0.998765  0.435023  1.292022
    O   O21  0.061768  0.917233  0.478556  -0.708873
    O   O22  0.952595  0.905680  0.365753  -0.668598
    O   O23  0.963148  0.918490  0.565013  -0.673095
    O   O24  0.858020  0.907625  0.449361  -0.695337
    C   C49  0.008901  0.883088  0.395646  0.723734
    C   C50  0.882199  0.884885  0.507505  0.690049
    C   C51  0.942863  0.236555  0.777480  0.288204
    C   C52  0.006998  0.321012  0.822571  -0.013791
    C   C53  0.066930  0.341183  0.795785  -0.393065
    H   H26  0.118788  0.406800  0.828207  0.206850
    C   C54  0.061209  0.277355  0.726767  0.256437
    C   C55  0.996345  0.192032  0.684701  0.137511
    C   C56  0.936656  0.175464  0.711379  -0.418007
    C   C57  0.857413  0.106101  0.695800  0.566168
    C   C58  0.865685  0.177818  0.773891  -0.444359
    H   H27  0.864282  0.055084  0.708377  -0.032696
    H   H28  0.812769  0.192485  0.755074  0.137689
    H   H29  0.882374  0.169466  0.831348  0.110356
    C   C59  0.938937  0.686906  0.199595  0.090355
    C   C60  0.013377  0.692317  0.202037  -0.052348
    C   C61  0.090457  0.762978  0.273559  -0.187428
    H   H30  0.151280  0.770040  0.279291  0.148024
    C   C62  0.090037  0.824119  0.339517  -0.146770
    H   H31  0.150475  0.878797  0.394777  0.142160
    C   C63  0.012516  0.816950  0.332443  -0.078076
    C   C64  0.938517  0.746943  0.259978  0.107407
    C   C65  0.843149  0.704596  0.216625  -0.196118
    C   C66  0.843673  0.634100  0.145127  -0.122475
    H   H32  0.817754  0.680643  0.253690  0.111828
    H   H33  0.818405  0.742716  0.194002  0.085617
    H   H34  0.817945  0.570803  0.141952  0.065092
    H   H35  0.819809  0.633267  0.082689  0.067827
    O   O25  0.119035  0.299445  0.699383  -0.378587
    C   C67  0.094797  0.342298  0.657099  0.489671
    H   H36  0.130440  0.412562  0.703622  -0.060951
    H   H37  0.024357  0.317345  0.628649  -0.068398
    C   C68  0.115889  0.327445  0.585102  -0.436649
    H   H38  0.079449  0.257559  0.537465  0.153420
    H   H39  0.097162  0.362259  0.552496  0.075265
    H   H40  0.186139  0.352150  0.612596  0.135668
    O   O26  0.784633  0.078849  0.619372  -0.460416
    C   C69  0.764030  0.998608  0.557582  0.405420
    H   H41  0.821582  0.991142  0.571521  0.016002
    H   H42  0.739515  0.994005  0.493337  -0.016334
    C   C70  0.693955  0.927336  0.554338  -0.402882
    H   H43  0.639761  0.939985  0.547102  0.100192
    H   H44  0.670100  0.864658  0.498156  0.080864
    H   H45  0.719757  0.924636  0.614616  0.078095
    O   O27  0.405388  0.380936  0.667358  -0.367973
    C   C71  0.459704  0.348010  0.689783  0.517827
    H   H46  0.468725  0.317781  0.634885  -0.116031
    H   H47  0.431848  0.299628  0.707172  -0.070240
    C   C72  0.546374  0.420848  0.767328  -0.386214
    H   H48  0.538145  0.448157  0.823687  0.072946
    H   H49  0.591221  0.395939  0.782679  0.086346
    H   H50  0.573102  0.471941  0.752578  0.122625
