# Generated by REPEAT Assigner based on pymatgen
data_DB0-m9_o2_o11_f0_sra.sym.19_sqe
_audit_creation_date              2022-05-24
_audit_creation_method            REPEAT_Assigner
_cell_length_a                    19.368145
_cell_length_b                    6.312694
_cell_length_c                    16.181555
_cell_angle_alpha                 90.000000
_cell_angle_beta                  109.104852
_cell_angle_gamma                 90.000000
_cell_volume                      1869.470474
_symmetry_space_group_name_H-M    P1
_symmetry_Int_Tables_number       1
loop_
    _symmetry_equiv_pos_site_id
    _symmetry_equiv_pos_as_xyz
    1  x,y,z
loop_
    _atom_site_type_symbol
    _atom_site_label
    _atom_site_fract_x
    _atom_site_fract_y
    _atom_site_fract_z
    _atom_type_partial_charge
    O  O1   0.521132  0.360446  0.408063  -0.481750
    O  O2   0.024233  0.654945  0.909634  -0.627344
    O  O3   0.435245  0.155098  0.387477  -0.529796
    O  O4   0.938959  0.859549  0.886184  -0.214980
    O  O5   0.405307  0.945681  0.519939  -0.449473
    O  O6   0.904971  0.069416  0.016139  -0.524865
    C  C1   0.380456  0.270442  0.395720  0.802395
    C  C2   0.883721  0.738821  0.889449  0.572089
    O  O7   0.585606  0.067982  0.468460  -0.680660
    O  O8   0.088249  0.946839  0.971695  -0.638205
    O  O9   0.554591  0.866187  0.599695  -0.530631
    O  O10  0.054306  0.148541  0.100530  -0.394130
    C  C3   0.579078  0.240483  0.422579  0.695792
    C  C4   0.082598  0.773698  0.926432  0.717537
    O  O11  0.392529  0.437146  0.447716  -0.639915
    O  O12  0.893527  0.578649  0.944661  -0.448946
    O  O13  0.507332  0.259699  0.564632  -0.611115
    O  O14  0.006713  0.755488  0.064216  -0.468942
    V  V1   0.493678  0.982676  0.486837  1.542819
    V  V2   0.995091  0.032456  0.986722  1.270574
    O  O15  0.601730  0.578878  0.554717  -0.442832
    O  O16  0.102137  0.437352  0.056893  -0.625462
    C  C5   0.610960  0.752664  0.600612  0.733192
    C  C6   0.110568  0.266285  0.103730  0.801379
    O  O17  0.472613  0.661990  0.594431  -0.287087
    O  O18  0.971371  0.352459  0.092679  -0.300365
    C  C7   0.410907  0.772872  0.567881  0.558713
    C  C8   0.909815  0.240676  0.064837  0.751718
    V  V3   0.498065  0.483442  0.508060  1.415823
    V  V4   0.998595  0.531815  0.007829  1.389097
    O  O19  0.481961  0.754942  0.429992  -0.444281
    O  O20  0.984467  0.260264  0.929965  -0.437414
    C  C9   0.263030  0.919719  0.656136  -0.154613
    C  C10  0.760615  0.090001  0.151335  -0.153668
    H  H1   0.222649  0.043602  0.645036  0.079649
    H  H2   0.720906  0.964312  0.140635  0.070612
    C  C11  0.309737  0.918997  0.607702  0.196941
    C  C12  0.808115  0.090960  0.103736  0.147121
    H  H3   0.306504  0.044402  0.561090  0.041538
    H  H4   0.805963  0.964207  0.058045  0.054941
    C  C13  0.360752  0.760230  0.618393  -0.269891
    C  C14  0.858538  0.251629  0.114175  -0.183831
    C  C15  0.364312  0.599401  0.677798  0.096546
    C  C16  0.860596  0.413814  0.172460  -0.058373
    C  C17  0.318587  0.602817  0.727485  -0.110214
    C  C18  0.814197  0.410105  0.221376  -0.012660
    H  H5   0.323644  0.478649  0.774854  0.108500
    H  H6   0.818514  0.535551  0.267974  0.107864
    C  C19  0.267443  0.761846  0.716695  0.051651
    C  C20  0.763483  0.249588  0.210790  0.022721
    C  C21  0.207238  0.578950  0.809668  -0.182121
    C  C22  0.702302  0.433283  0.302716  -0.242076
    H  H7   0.233434  0.432522  0.802594  0.131435
    H  H8   0.728502  0.579544  0.295598  0.118453
    C  C23  0.160995  0.579079  0.858728  -0.097349
    C  C24  0.656551  0.434122  0.352418  0.028453
    C  C25  0.126291  0.763353  0.868398  0.042123
    C  C26  0.621579  0.250645  0.362749  0.015502
    C  C27  0.136596  0.945555  0.827233  -0.021595
    C  C28  0.631124  0.068533  0.320778  -0.131735
    H  H9   0.108145  0.088719  0.833577  0.063393
    H  H10  0.602288  0.926056  0.326999  0.126988
    C  C29  0.181963  0.945191  0.777121  -0.147327
    C  C30  0.676435  0.067825  0.270334  -0.156090
    H  H11  0.190132  0.090966  0.746818  0.156166
    H  H12  0.684123  0.921905  0.239746  0.158337
    C  C31  0.218053  0.761988  0.768619  0.148018
    C  C32  0.713174  0.250023  0.261903  0.193275
    C  C33  0.740317  0.827262  0.666938  0.075953
    C  C34  0.193055  0.115652  0.243292  -0.083165
    C  C35  0.677273  0.771092  0.676675  -0.319714
    C  C36  0.181769  0.235656  0.171986  -0.339670
    H  H13  0.673400  0.759819  0.741894  0.160276
    H  H14  0.228653  0.312269  0.162220  0.182938
    C  C37  0.805203  0.858729  0.744272  0.081590
    C  C38  0.267647  0.099877  0.305773  0.175395
    C  C39  0.818095  0.725145  0.811829  -0.363528
    C  C40  0.310236  0.271493  0.324334  -0.266173
    N  N1   0.851601  0.035909  0.746388  0.412375
    O  O21  0.842473  0.142308  0.674819  -0.277297
    O  O22  0.888471  0.121353  0.820807  -0.313452
    N  N2   0.292496  0.905638  0.350435  0.226045
    O  O23  0.247434  0.747992  0.341389  -0.147746
    O  O24  0.361936  0.876557  0.389779  -0.156510
    N  N3   0.771062  0.547379  0.804871  0.832089
    O  O25  0.726572  0.490878  0.728824  -0.392757
    O  O26  0.782029  0.420930  0.871350  -0.528957
    N  N4   0.281516  0.470262  0.286783  0.504562
    O  O27  0.211243  0.498695  0.254905  -0.211115
    O  O28  0.325494  0.629997  0.293969  -0.371523
    N  N5   0.412948  0.425618  0.687145  0.471782
    O  O29  0.420071  0.290252  0.749942  -0.400200
    O  O30  0.436871  0.376824  0.623490  -0.245139
    N  N6   0.908331  0.589643  0.181211  0.582138
    O  O31  0.932761  0.637168  0.117815  -0.354574
    O  O32  0.914044  0.727303  0.242852  -0.387234
    N  N7   0.151985  0.390853  0.902193  0.570002
    O  O33  0.097202  0.372581  0.931276  -0.211936
    O  O34  0.198585  0.236703  0.912555  -0.380737
    N  N8   0.648980  0.623137  0.396133  0.475066
    O  O35  0.694290  0.778696  0.401741  -0.280710
    O  O36  0.596311  0.642279  0.428800  -0.360953
    N  N9   0.742292  0.880583  0.582229  0.320857
    O  O37  0.803496  0.936045  0.571651  -0.293252
    O  O38  0.682038  0.882862  0.516136  -0.000870
    N  N10  0.134533  0.012078  0.262747  0.594437
    O  O39  0.149607  0.888208  0.330494  -0.350714
    O  O40  0.067825  0.077943  0.227235  -0.339202
