# Generated by REPEAT Assigner based on pymatgen
data_DB0-m2_o6_o27_f0_nbo.sym.79
_audit_creation_date              2022-05-24
_audit_creation_method            REPEAT_Assigner
_cell_length_a                    31.995976
_cell_length_b                    31.995976
_cell_length_c                    38.329241
_cell_angle_alpha                 90.000000
_cell_angle_beta                  90.000000
_cell_angle_gamma                 90.000000
_cell_volume                      39239.272981
_symmetry_space_group_name_H-M    P1
_symmetry_Int_Tables_number       1
loop_
    _symmetry_equiv_pos_site_id
    _symmetry_equiv_pos_as_xyz
    1  x,y,z
loop_
    _atom_site_type_symbol
    _atom_site_label
    _atom_site_fract_x
    _atom_site_fract_y
    _atom_site_fract_z
    _atom_type_partial_charge
    O   O1    0.940394  0.534524  0.009516  -0.435749
    O   O2    0.534557  0.059558  0.009515  -0.435756
    O   O3    0.059560  0.465557  0.009535  -0.435853
    O   O4    0.465533  0.940425  0.009535  -0.435537
    O   O5    0.940412  0.465526  0.990474  -0.435726
    O   O6    0.534532  0.940402  0.990494  -0.435710
    O   O7    0.059546  0.534549  0.990477  -0.435601
    O   O8    0.465566  0.059568  0.990457  -0.435908
    O   O9    0.440741  0.034046  0.509494  -0.435355
    O   O10   0.034060  0.559905  0.509500  -0.436135
    O   O11   0.559903  0.965068  0.509552  -0.436070
    O   O12   0.965046  0.440764  0.509547  -0.435112
    O   O13   0.440764  0.965048  0.490453  -0.435181
    O   O14   0.034043  0.440741  0.490506  -0.435264
    O   O15   0.559905  0.034062  0.490501  -0.436037
    O   O16   0.965066  0.559903  0.490449  -0.436236
    C   C1    0.920910  0.500020  0.999995  0.615562
    C   C2    0.500066  0.079057  0.999981  0.615189
    C   C3    0.079047  0.500057  0.000007  0.614613
    C   C4    0.500028  0.920920  0.000019  0.615154
    C   C5    0.421257  0.999543  0.499966  0.614826
    C   C6    0.999565  0.579400  0.499966  0.613987
    C   C7    0.579400  0.999567  0.500035  0.613574
    C   C8    0.999540  0.421257  0.500035  0.614671
    O   O17   0.988470  0.534497  0.950141  -0.637306
    O   O18   0.534530  0.011468  0.950147  -0.637011
    O   O19   0.011497  0.465562  0.950151  -0.637481
    O   O20   0.465584  0.988473  0.950144  -0.637469
    O   O21   0.988473  0.465576  0.049858  -0.637309
    O   O22   0.534504  0.988491  0.049862  -0.637102
    O   O23   0.011468  0.534522  0.049852  -0.637209
    O   O24   0.465569  0.011518  0.049848  -0.637444
    O   O25   0.488850  0.034020  0.450138  -0.637361
    O   O26   0.034033  0.511794  0.450143  -0.637867
    O   O27   0.511868  0.965082  0.450152  -0.637382
    O   O28   0.965088  0.488797  0.450148  -0.637704
    O   O29   0.488798  0.965091  0.549852  -0.637667
    O   O30   0.034017  0.488849  0.549863  -0.637428
    O   O31   0.511794  0.034035  0.549858  -0.637802
    O   O32   0.965079  0.511867  0.549849  -0.637419
    C   C9    0.999983  0.500026  0.933778  0.665324
    C   C10   0.500062  0.999959  0.933778  0.663881
    C   C11   0.999961  0.500055  0.066223  0.663794
    C   C12   0.500033  0.000005  0.066223  0.664900
    C   C13   0.500365  0.999550  0.433777  0.665015
    C   C14   0.999566  0.500277  0.433778  0.666755
    C   C15   0.500277  0.999568  0.566223  0.666577
    C   C16   0.999546  0.500364  0.566224  0.664949
    Cu  Cu1   0.999968  0.540844  0.999995  0.918119
    Cu  Cu2   0.540851  0.999978  0.000006  0.918047
    Cu  Cu3   0.999987  0.459235  0.000005  0.918456
    Cu  Cu4   0.459243  0.999998  0.999995  0.918361
    Cu  Cu5   0.500322  0.040361  0.499997  0.918019
    Cu  Cu6   0.040358  0.500322  0.500004  0.918113
    Cu  Cu7   0.500335  0.958752  0.500003  0.918250
    Cu  Cu8   0.958750  0.500334  0.499998  0.918254
    C   C17   0.974296  0.472921  0.877376  -0.317910
    C   C18   0.472979  0.025567  0.877343  -0.319458
    C   C19   0.025618  0.527146  0.877366  -0.315910
    C   C20   0.527192  0.974233  0.877398  -0.320221
    C   C21   0.974236  0.527186  0.122603  -0.320314
    C   C22   0.472925  0.974318  0.122624  -0.318143
    C   C23   0.025570  0.472972  0.122658  -0.319003
    C   C24   0.527150  0.025640  0.122635  -0.317435
    C   C25   0.474692  0.972464  0.377364  -0.318977
    C   C26   0.972494  0.525881  0.377339  -0.318073
    C   C27   0.526020  0.026683  0.377376  -0.323864
    C   C28   0.026708  0.474547  0.377402  -0.317205
    C   C29   0.474549  0.026709  0.622599  -0.317120
    C   C30   0.972459  0.474688  0.622636  -0.318702
    C   C31   0.525883  0.972496  0.622661  -0.317219
    C   C32   0.026678  0.526016  0.622626  -0.323861
    C   C33   0.974210  0.473087  0.841417  0.334623
    C   C34   0.473127  0.025570  0.841385  0.334497
    C   C35   0.025623  0.527039  0.841408  0.332486
    C   C36   0.527069  0.974146  0.841440  0.335302
    C   C37   0.974149  0.527062  0.158560  0.335426
    C   C38   0.473091  0.974231  0.158582  0.334611
    C   C39   0.025573  0.473121  0.158616  0.333825
    C   C40   0.527044  0.025644  0.158594  0.333347
    C   C41   0.474613  0.972644  0.341406  0.331729
    C   C42   0.972663  0.525897  0.341381  0.331747
    C   C43   0.526032  0.026591  0.341418  0.337991
    C   C44   0.026604  0.474472  0.341444  0.332546
    C   C45   0.474475  0.026605  0.658557  0.332416
    C   C46   0.972637  0.474609  0.658594  0.331052
    C   C47   0.525900  0.972663  0.658619  0.331041
    C   C48   0.026584  0.526028  0.658584  0.337847
    H   H1    0.953539  0.451837  0.827933  -0.042310
    H   H2    0.451874  0.046212  0.827874  -0.042109
    H   H3    0.046259  0.548316  0.827916  -0.041551
    H   H4    0.548332  0.953472  0.827975  -0.042105
    H   H5    0.953475  0.548326  0.172025  -0.042096
    H   H6    0.451841  0.953559  0.172066  -0.042188
    H   H7    0.046215  0.451867  0.172127  -0.041945
    H   H8    0.548320  0.046279  0.172086  -0.041583
    H   H9    0.453941  0.951404  0.327913  -0.040546
    H   H10   0.951419  0.546545  0.327867  -0.040998
    H   H11   0.546671  0.047873  0.327935  -0.042747
    H   H12   0.047877  0.453805  0.327982  -0.041698
    H   H13   0.453809  0.047878  0.672020  -0.041632
    H   H14   0.951396  0.453937  0.672086  -0.040325
    H   H15   0.546549  0.951419  0.672132  -0.040917
    H   H16   0.047865  0.546666  0.672068  -0.042644
    C   C49   0.999891  0.500083  0.823189  -0.623323
    C   C50   0.500104  0.999836  0.823189  -0.624012
    C   C51   0.999839  0.500098  0.176812  -0.623609
    C   C52   0.500087  0.999911  0.176811  -0.623863
    C   C53   0.500302  0.999644  0.323189  -0.622631
    C   C54   0.999652  0.500171  0.323189  -0.621070
    C   C55   0.500174  0.999652  0.676812  -0.620842
    C   C56   0.999636  0.500297  0.676812  -0.622317
    C   C57   0.999973  0.500022  0.895588  0.386606
    C   C58   0.500079  0.999921  0.895587  0.390816
    C   C59   0.999924  0.500072  0.104413  0.390644
    C   C60   0.500027  0.999997  0.104413  0.387914
    C   C61   0.500371  0.999553  0.395587  0.392158
    C   C62   0.999585  0.500230  0.395588  0.387282
    C   C63   0.500231  0.999586  0.604413  0.386943
    C   C64   0.999548  0.500368  0.604414  0.392253
    N   N1    0.025475  0.525855  0.767236  -0.309995
    N   N2    0.525819  0.974083  0.767272  -0.310652
    N   N3    0.974115  0.474467  0.767246  -0.309856
    N   N4    0.474434  0.025445  0.767210  -0.310279
    N   N5    0.025447  0.474429  0.232791  -0.310331
    N   N6    0.525860  0.025491  0.232766  -0.310392
    N   N7    0.974084  0.525814  0.232728  -0.310771
    N   N8    0.474472  0.974131  0.232753  -0.310150
    N   N9    0.525902  0.025437  0.267247  -0.310445
    N   N10   0.025413  0.474457  0.267273  -0.310830
    N   N11   0.474537  0.974054  0.267234  -0.310729
    N   N12   0.974027  0.525820  0.267209  -0.311176
    N   N13   0.525824  0.974027  0.732791  -0.311178
    N   N14   0.025424  0.525897  0.732755  -0.310820
    N   N15   0.474462  0.025412  0.732729  -0.310965
    N   N16   0.974041  0.474532  0.732765  -0.310860
    C   C65   0.999700  0.500242  0.715094  0.891785
    C   C66   0.500151  0.999697  0.715094  0.892781
    C   C67   0.999697  0.500147  0.284907  0.892647
    C   C68   0.500247  0.999711  0.284906  0.891560
    C   C69   0.500138  0.999845  0.215094  0.892700
    C   C70   0.999789  0.500113  0.215094  0.892905
    C   C71   0.500119  0.999787  0.784907  0.892994
    C   C72   0.999828  0.500134  0.784907  0.892149
    H   H17   0.789093  0.451953  0.038512  0.079345
    H   H18   0.452062  0.210944  0.038406  0.079884
    H   H19   0.210952  0.548073  0.038424  0.079323
    H   H20   0.548011  0.789072  0.038543  0.078786
    H   H21   0.788999  0.547989  0.961572  0.079863
    H   H22   0.451976  0.789040  0.961602  0.079124
    H   H23   0.210872  0.452039  0.961482  0.078785
    H   H24   0.548097  0.210900  0.961465  0.079457
    H   H25   0.289252  0.951613  0.538341  0.080463
    H   H26   0.951638  0.711414  0.538324  0.077299
    H   H27   0.711149  0.047696  0.538599  0.078286
    H   H28   0.047614  0.289513  0.538627  0.081598
    H   H29   0.289513  0.047616  0.461373  0.081563
    H   H30   0.951611  0.289251  0.461659  0.080340
    H   H31   0.711414  0.951640  0.461677  0.077337
    H   H32   0.047694  0.711148  0.461402  0.078434
    C   C73   0.729077  0.473017  0.021656  -0.296545
    C   C74   0.473132  0.270929  0.021480  -0.295472
    C   C75   0.270930  0.526987  0.021492  -0.298404
    C   C76   0.526912  0.729071  0.021684  -0.300423
    C   C77   0.729025  0.526893  0.978503  -0.294938
    C   C78   0.473037  0.729052  0.978530  -0.297996
    C   C79   0.270884  0.473112  0.978338  -0.300582
    C   C80   0.527007  0.270905  0.978327  -0.297029
    C   C81   0.229312  0.972817  0.521412  -0.299166
    C   C82   0.972857  0.771353  0.521406  -0.299539
    C   C83   0.771201  0.026745  0.521737  -0.299277
    C   C84   0.026672  0.229463  0.521756  -0.297835
    C   C85   0.229463  0.026674  0.478244  -0.298234
    C   C86   0.972815  0.229311  0.478588  -0.298825
    C   C87   0.771353  0.972859  0.478595  -0.299180
    C   C88   0.026744  0.771200  0.478264  -0.299467
    C   C89   0.707486  0.499951  0.000094  0.577352
    C   C90   0.500064  0.292482  0.999890  0.578252
    C   C91   0.292471  0.500047  0.999900  0.583158
    C   C92   0.499967  0.707497  0.000120  0.582406
    C   C93   0.207821  0.999803  0.499825  0.594360
    C   C94   0.999859  0.792845  0.499832  0.571984
    C   C95   0.792845  0.999860  0.500169  0.571528
    C   C96   0.999801  0.207821  0.500175  0.593763
    C   C97   0.772108  0.526885  0.978485  0.014382
    C   C98   0.526997  0.227821  0.978361  0.016074
    C   C99   0.227801  0.473134  0.978375  0.016521
    C   C100  0.473069  0.772135  0.978515  0.015185
    C   C101  0.772160  0.473046  0.021618  0.015903
    C   C102  0.526908  0.772153  0.021649  0.016936
    C   C103  0.227846  0.526973  0.021510  0.014841
    C   C104  0.473158  0.227846  0.021495  0.014551
    C   C105  0.272545  0.026554  0.478267  0.013173
    C   C106  0.026622  0.728117  0.478288  0.019585
    C   C107  0.728267  0.972773  0.478591  0.018236
    C   C108  0.972731  0.272398  0.478584  0.012431
    C   C109  0.272398  0.972733  0.521416  0.012539
    C   C110  0.026552  0.272545  0.521733  0.012691
    C   C111  0.728117  0.026623  0.521713  0.019550
    C   C112  0.972772  0.728266  0.521410  0.018728
    C   C113  0.793657  0.499971  0.000038  0.056439
    C   C114  0.500081  0.206311  0.999939  0.056453
    C   C115  0.206301  0.500056  0.999956  0.059714
    C   C116  0.499995  0.793667  0.000070  0.058652
    C   C117  0.293997  0.999602  0.499855  0.057375
    C   C118  0.999653  0.706665  0.499861  0.057717
    C   C119  0.706666  0.999655  0.500140  0.058291
    C   C120  0.999600  0.293996  0.500145  0.057892
    C   C121  0.662642  0.499950  0.000132  -0.195887
    C   C122  0.500047  0.337327  0.999857  -0.196715
    C   C123  0.337316  0.500043  0.999868  -0.199546
    C   C124  0.499953  0.662652  0.000149  -0.198920
    C   C125  0.162974  0.999999  0.499867  -0.226987
    C   C126  0.000051  0.837694  0.499870  -0.170631
    C   C127  0.837694  0.000052  0.500131  -0.170442
    C   C128  0.999999  0.162973  0.500133  -0.226768
    C   C129  0.838468  0.499989  0.000017  0.056536
    C   C130  0.500080  0.161499  0.999957  0.056096
    C   C131  0.161489  0.500061  0.999981  0.054171
    C   C132  0.500007  0.838479  0.000048  0.055288
    C   C133  0.338811  0.999553  0.499901  0.056995
    C   C134  0.999597  0.661849  0.499905  0.051650
    C   C135  0.661849  0.999599  0.500096  0.051395
    C   C136  0.999551  0.338811  0.500099  0.056904
    C   C137  0.876107  0.500004  0.000004  -0.261214
    C   C138  0.500076  0.123860  0.999969  -0.260540
    C   C139  0.123850  0.500062  0.999996  -0.259041
    C   C140  0.500017  0.876117  0.000033  -0.260144
    C   C141  0.376451  0.999540  0.499934  -0.261296
    C   C142  0.999575  0.624208  0.499936  -0.256033
    C   C143  0.624208  0.999577  0.500065  -0.255751
    C   C144  0.999538  0.376451  0.500066  -0.261261
    C   C145  0.624983  0.499952  0.000166  -0.152096
    C   C146  0.500031  0.374986  0.999826  -0.151169
    C   C147  0.374975  0.500035  0.999836  -0.149260
    C   C148  0.499948  0.624993  0.000178  -0.149605
    C   C149  0.125314  0.000247  0.499901  -0.106015
    C   C150  0.000288  0.875355  0.499902  -0.195274
    C   C151  0.875355  0.000289  0.500099  -0.195409
    C   C152  0.000247  0.125314  0.500099  -0.106120
    O   O33   0.498232  0.439163  0.969670  -0.578288
    O   O34   0.439148  0.498257  0.969675  -0.577241
    O   O35   0.498240  0.560734  0.970125  -0.596570
    O   O36   0.560719  0.498244  0.970120  -0.596949
    O   O37   0.501716  0.560818  0.030334  -0.577312
    O   O38   0.439239  0.501726  0.029884  -0.596269
    O   O39   0.501729  0.439246  0.029878  -0.596922
    O   O40   0.560810  0.501733  0.030329  -0.578147
    O   O41   0.998731  0.939567  0.469812  -0.578043
    O   O42   0.939499  0.998805  0.469904  -0.580318
    O   O43   0.998738  0.061142  0.469975  -0.593324
    O   O44   0.061075  0.998798  0.469878  -0.591179
    O   O45   0.998798  0.061075  0.530122  -0.591173
    O   O46   0.939567  0.998731  0.530188  -0.578067
    O   O47   0.998806  0.939499  0.530096  -0.580336
    O   O48   0.061143  0.998738  0.530025  -0.593311
    C   C153  0.500009  0.419787  0.999787  0.766216
    C   C154  0.419776  0.500020  0.999794  0.763496
    C   C155  0.499951  0.580193  0.000217  0.763886
    C   C156  0.580182  0.499962  0.000210  0.766772
    C   C157  0.000680  0.920158  0.499937  0.805728
    C   C158  0.920159  0.000679  0.500063  0.805802
    C   C159  0.000659  0.080512  0.500062  0.723832
    C   C160  0.080512  0.000659  0.499938  0.723802
    Cu  Cu9   0.499955  0.499970  0.965214  1.006110
    Cu  Cu10  0.500004  0.500010  0.034790  1.006157
    Cu  Cu11  0.000287  0.000365  0.465194  1.000995
    Cu  Cu12  0.000365  0.000287  0.534807  1.001019
    I   I1    0.932481  0.432540  0.903221  0.040147
    I   I2    0.432620  0.067447  0.903140  0.040461
    I   I3    0.067484  0.567489  0.903195  0.039527
    I   I4    0.567538  0.932412  0.903274  0.040500
    I   I5    0.932413  0.567530  0.096727  0.040593
    I   I6    0.432546  0.932503  0.096778  0.040013
    I   I7    0.067448  0.432612  0.096860  0.040293
    I   I8    0.567495  0.067505  0.096807  0.039886
    I   I9    0.432854  0.932092  0.403193  0.040063
    I   I10   0.932129  0.567759  0.403130  0.040734
    I   I11   0.567871  0.067027  0.403221  0.040845
    I   I12   0.067047  0.432725  0.403284  0.039677
    I   I13   0.432726  0.067050  0.596718  0.039744
    I   I14   0.932089  0.432851  0.596804  0.040035
    I   I15   0.567761  0.932131  0.596869  0.040570
    I   I16   0.067024  0.567868  0.596783  0.040815
    I   I17   0.696463  0.431818  0.054665  0.054666
    I   I18   0.431929  0.303604  0.054446  0.054187
    I   I19   0.303621  0.568177  0.054456  0.055504
    I   I20   0.568097  0.696429  0.054688  0.055975
    I   I21   0.696330  0.568083  0.945541  0.054081
    I   I22   0.431833  0.696381  0.945562  0.055375
    I   I23   0.303506  0.431915  0.945331  0.056124
    I   I24   0.568194  0.303541  0.945321  0.054712
    I   I25   0.196539  0.931743  0.554421  0.056834
    I   I26   0.931760  0.804126  0.554395  0.057926
    I   I27   0.803734  0.068057  0.554704  0.053736
    I   I28   0.067962  0.196926  0.554741  0.052350
    I   I29   0.196926  0.067963  0.445259  0.052352
    I   I30   0.931742  0.196538  0.445579  0.056815
    I   I31   0.804126  0.931761  0.445606  0.057913
    I   I32   0.068056  0.803733  0.445297  0.053709
