# Generated by REPEAT Assigner based on pymatgen
data_DB0-m3_o2_o15_f0_nbo.sym.52
_audit_creation_date              2022-05-24
_audit_creation_method            REPEAT_Assigner
_cell_length_a                    30.457717
_cell_length_b                    30.459314
_cell_length_c                    21.963910
_cell_angle_alpha                 90.000000
_cell_angle_beta                  90.000000
_cell_angle_gamma                 90.000000
_cell_volume                      20376.384150
_symmetry_space_group_name_H-M    P1
_symmetry_Int_Tables_number       1
loop_
    _symmetry_equiv_pos_site_id
    _symmetry_equiv_pos_as_xyz
    1  x,y,z
loop_
    _atom_site_type_symbol
    _atom_site_label
    _atom_site_fract_x
    _atom_site_fract_y
    _atom_site_fract_z
    _atom_type_partial_charge
    O   O1    0.463348  0.065497  0.002377  -0.606594
    O   O2    0.065227  0.538585  0.004150  -0.625619
    O   O3    0.540612  0.934631  0.001494  -0.609469
    O   O4    0.934836  0.465724  0.997403  -0.627412
    O   O5    0.538147  0.065387  0.995588  -0.624270
    O   O6    0.934448  0.540588  0.998387  -0.608070
    O   O7    0.465742  0.934691  0.002512  -0.626335
    O   O8    0.065650  0.463792  0.997454  -0.604433
    O   O9    0.964679  0.564352  0.498356  -0.654924
    O   O10   0.564137  0.038114  0.501383  -0.655855
    O   O11   0.036995  0.433257  0.502363  -0.652216
    O   O12   0.433579  0.964434  0.502055  -0.656025
    O   O13   0.040535  0.564064  0.498401  -0.639803
    O   O14   0.433275  0.039199  0.497778  -0.637773
    O   O15   0.962233  0.433513  0.498248  -0.635701
    O   O16   0.564427  0.962235  0.501542  -0.644587
    C   C1    0.500732  0.086646  0.998356  0.608803
    C   C2    0.086644  0.501249  0.001437  0.607728
    C   C3    0.503162  0.913411  0.002606  0.611851
    C   C4    0.913393  0.503045  0.997354  0.610539
    C   C5    0.002685  0.584717  0.498011  0.541950
    C   C6    0.584775  0.000238  0.501749  0.545332
    C   C7    0.999503  0.412095  0.500734  0.667257
    C   C8    0.412140  0.001718  0.499676  0.678128
    O   O17   0.464211  0.000924  0.092097  -0.662780
    O   O18   0.996827  0.539914  0.090844  -0.667659
    O   O19   0.539604  0.001392  0.090418  -0.679923
    O   O20   0.001212  0.464618  0.089299  -0.683417
    O   O21   0.539685  0.997001  0.908973  -0.663832
    O   O22   0.001116  0.539791  0.909387  -0.680496
    O   O23   0.464354  0.000997  0.910568  -0.681217
    O   O24   0.001086  0.464379  0.907771  -0.662806
    O   O25   0.965361  0.497952  0.590363  -0.699403
    O   O26   0.496588  0.036776  0.591620  -0.697635
    O   O27   0.040855  0.501083  0.589699  -0.633789
    O   O28   0.500166  0.961287  0.591163  -0.631133
    O   O29   0.036941  0.498173  0.408317  -0.692349
    O   O30   0.499384  0.040678  0.410237  -0.636105
    O   O31   0.961378  0.498298  0.408931  -0.631505
    O   O32   0.499660  0.965149  0.409729  -0.700214
    C   C9    0.502223  0.001474  0.120031  0.664466
    C   C10   0.998825  0.501964  0.118812  0.668914
    C   C11   0.501710  0.998806  0.881050  0.665026
    C   C12   0.001426  0.502386  0.879824  0.665596
    C   C13   0.003270  0.499773  0.618697  0.660608
    C   C14   0.498310  0.998905  0.620029  0.643673
    C   C15   0.999011  0.498231  0.379955  0.641010
    C   C16   0.499769  0.003051  0.381282  0.655956
    Zn  Zn1   0.452567  0.999881  0.001333  1.252041
    Zn  Zn2   0.000035  0.551560  0.000165  1.252989
    Zn  Zn3   0.551356  0.000253  0.999639  1.250918
    Zn  Zn4   0.000075  0.452783  0.998548  1.252627
    Zn  Zn5   0.951594  0.499147  0.500124  1.267843
    Zn  Zn6   0.498776  0.050522  0.501416  1.269148
    Zn  Zn7   0.050631  0.498326  0.498583  1.265608
    Zn  Zn8   0.498809  0.951461  0.499994  1.270694
    H   H1    0.402919  0.113942  0.192686  0.063976
    H   H2    0.105251  0.605787  0.198158  0.044824
    H   H3    0.605509  0.894257  0.200522  0.045068
    H   H4    0.891129  0.397320  0.192184  0.057979
    H   H5    0.603566  0.107200  0.802111  0.045522
    H   H6    0.891841  0.602964  0.798955  0.046149
    H   H7    0.399365  0.888979  0.807430  0.061053
    H   H8    0.115930  0.405263  0.807637  0.065840
    H   H9    0.904703  0.613083  0.689818  0.116212
    H   H10   0.612963  0.095542  0.692532  0.119841
    H   H11   0.105046  0.391722  0.698984  0.053599
    H   H12   0.387348  0.899937  0.698447  0.055863
    H   H13   0.092911  0.615239  0.307611  0.119248
    H   H14   0.389099  0.102082  0.301109  0.054638
    H   H15   0.902936  0.384820  0.300874  0.058978
    H   H16   0.615651  0.907492  0.309554  0.116668
    C   C17   0.555222  0.942505  0.191383  -0.252046
    C   C18   0.939270  0.447947  0.186414  -0.195883
    C   C19   0.451877  0.064094  0.187360  -0.183691
    C   C20   0.057690  0.554834  0.189546  -0.258541
    C   C21   0.448810  0.938329  0.813402  -0.187879
    C   C22   0.065060  0.453172  0.812809  -0.176114
    C   C23   0.553523  0.058661  0.810575  -0.264186
    C   C24   0.941449  0.554036  0.808360  -0.249194
    C   C25   0.055499  0.440723  0.689885  -0.229486
    C   C26   0.437723  0.948146  0.690216  -0.222961
    C   C27   0.953128  0.562757  0.685150  -0.116474
    C   C28   0.561556  0.048294  0.687068  -0.095521
    C   C29   0.949837  0.436403  0.309383  -0.212901
    C   C30   0.563974  0.954466  0.314493  -0.113230
    C   C31   0.046706  0.562894  0.312918  -0.097442
    C   C32   0.439168  0.053598  0.310067  -0.222037
    C   C33   0.585415  0.918296  0.223551  0.031999
    C   C34   0.914799  0.416967  0.216650  -0.061384
    C   C35   0.421544  0.089531  0.217299  -0.080140
    C   C36   0.081724  0.585266  0.221507  0.032204
    C   C37   0.418574  0.913030  0.783009  -0.070803
    C   C38   0.091278  0.423488  0.782912  -0.086862
    C   C39   0.583419  0.083402  0.778668  0.035142
    C   C40   0.916412  0.583461  0.776023  0.028027
    C   C41   0.085425  0.416164  0.721976  -0.029238
    C   C42   0.412066  0.918931  0.721895  -0.041027
    C   C43   0.923351  0.588915  0.714904  -0.202263
    C   C44   0.588467  0.077129  0.717342  -0.216196
    C   C45   0.921165  0.410193  0.277612  -0.051184
    C   C46   0.590871  0.925426  0.284612  -0.207646
    C   C47   0.075089  0.590335  0.282752  -0.213153
    C   C48   0.414061  0.083135  0.278094  -0.034294
    C   C49   0.531474  0.977415  0.283233  0.079563
    C   C50   0.973010  0.469683  0.280114  0.106280
    C   C51   0.472062  0.029613  0.281178  0.111921
    C   C52   0.023980  0.530164  0.281796  0.070565
    C   C53   0.470208  0.972282  0.719698  0.106587
    C   C54   0.030554  0.472872  0.718798  0.121005
    C   C55   0.529426  0.024725  0.718182  0.064805
    C   C56   0.976890  0.530946  0.716583  0.081827
    C   C57   0.032628  0.476341  0.781711  0.080519
    C   C58   0.473325  0.969918  0.782643  0.090757
    C   C59   0.973832  0.529299  0.779579  0.114454
    C   C60   0.527971  0.027189  0.781214  0.129936
    C   C61   0.970438  0.472980  0.217196  0.091252
    C   C62   0.529803  0.974332  0.220231  0.115120
    C   C63   0.026592  0.528747  0.218771  0.123995
    C   C64   0.475595  0.031977  0.218293  0.086071
    C   C65   0.501030  0.003325  0.314166  -0.098620
    C   C66   0.998709  0.499278  0.312875  -0.093378
    C   C67   0.499225  0.998692  0.687066  -0.084175
    C   C68   0.003566  0.501140  0.685769  -0.103520
    C   C69   0.002701  0.502884  0.812665  -0.109847
    C   C70   0.500979  0.998642  0.813909  -0.114854
    C   C71   0.998606  0.501233  0.185979  -0.111503
    C   C72   0.502752  0.002668  0.187218  -0.109882
    H   H17   0.552120  0.935020  0.143661  0.164790
    H   H18   0.932407  0.452118  0.138644  0.152594
    H   H19   0.456745  0.071046  0.139727  0.147066
    H   H20   0.064792  0.552008  0.141666  0.165747
    H   H21   0.452831  0.931777  0.861282  0.149300
    H   H22   0.071611  0.457938  0.860570  0.144257
    H   H23   0.550695  0.065494  0.858534  0.167278
    H   H24   0.934128  0.550905  0.856135  0.163069
    H   H25   0.052160  0.433250  0.642168  0.147776
    H   H26   0.430873  0.951584  0.642324  0.148688
    H   H27   0.957413  0.568827  0.637172  0.165514
    H   H28   0.567321  0.044593  0.638935  0.161142
    H   H29   0.953706  0.429296  0.357140  0.146573
    H   H30   0.570081  0.958890  0.362420  0.171420
    H   H31   0.042680  0.568718  0.360979  0.163108
    H   H32   0.431507  0.049757  0.357654  0.145760
    C   C73   0.539183  0.205087  0.001635  -0.364823
    C   C74   0.204890  0.462626  0.008749  -0.356880
    C   C75   0.463968  0.795206  0.007757  -0.386371
    C   C76   0.794608  0.540759  0.999677  -0.370412
    C   C77   0.461897  0.204839  0.991273  -0.360546
    C   C78   0.795344  0.463338  0.992267  -0.390615
    C   C79   0.541400  0.794778  0.000468  -0.375726
    C   C80   0.205032  0.539912  0.998443  -0.364113
    C   C81   0.022852  0.701245  0.543124  -0.249010
    C   C82   0.700798  0.980080  0.549352  -0.242929
    C   C83   0.959967  0.293840  0.505278  -0.375072
    C   C84   0.293251  0.039548  0.501300  -0.384514
    C   C85   0.981274  0.700723  0.451205  -0.247664
    C   C86   0.293930  0.962092  0.494930  -0.392951
    C   C87   0.037461  0.293246  0.499797  -0.390009
    C   C88   0.701209  0.019721  0.455788  -0.240745
    H   H33   0.569598  0.223027  0.006514  0.102022
    H   H34   0.222672  0.432145  0.013903  0.099080
    H   H35   0.433330  0.777506  0.011582  0.108851
    H   H36   0.776457  0.571144  0.003321  0.102846
    H   H37   0.431389  0.222583  0.986116  0.099931
    H   H38   0.777776  0.432636  0.988392  0.110417
    H   H39   0.571860  0.776761  0.996877  0.104781
    H   H40   0.222939  0.570352  0.993613  0.102612
    H   H41   0.039710  0.718465  0.579197  0.119921
    H   H42   0.717606  0.963579  0.586105  0.121401
    H   H43   0.929204  0.276290  0.508408  0.104098
    H   H44   0.275171  0.069993  0.504682  0.107505
    H   H45   0.963938  0.717502  0.415167  0.121882
    H   H46   0.276406  0.931342  0.491421  0.109433
    H   H47   0.067943  0.275204  0.496741  0.112902
    H   H48   0.718357  0.035935  0.419088  0.119520
    C   C89   0.539872  0.159856  0.003335  0.294594
    C   C90   0.159657  0.462103  0.009661  0.286109
    C   C91   0.463576  0.840427  0.009056  0.310672
    C   C92   0.839835  0.541810  0.001126  0.298652
    C   C93   0.461443  0.159601  0.990313  0.289849
    C   C94   0.840571  0.463131  0.991074  0.314469
    C   C95   0.542266  0.840011  0.999097  0.303971
    C   C96   0.159795  0.540535  0.996696  0.294065
    C   C97   0.023572  0.655972  0.543137  0.060112
    C   C98   0.655504  0.980263  0.549152  0.046289
    C   C99   0.959666  0.339110  0.506077  0.303062
    C   C100  0.338520  0.040530  0.503069  0.312303
    C   C101  0.981566  0.655436  0.451382  0.049270
    C   C102  0.339196  0.961844  0.494067  0.318547
    C   C103  0.038405  0.338508  0.497942  0.311472
    C   C104  0.655939  0.020277  0.455728  0.047855
    C   C105  0.500697  0.135724  0.997259  -0.114831
    C   C106  0.135722  0.501324  0.002671  -0.111610
    C   C107  0.503022  0.864280  0.003669  -0.118565
    C   C108  0.864263  0.502681  0.996446  -0.117286
    C   C109  0.002759  0.632797  0.497368  0.207652
    C   C110  0.632836  0.000349  0.502285  0.211197
    C   C111  0.999206  0.362901  0.501638  -0.138720
    C   C112  0.362947  0.001382  0.498918  -0.153902
    C   C113  0.500467  0.227603  0.996410  0.148467
    C   C114  0.227597  0.501222  0.003641  0.146198
    C   C115  0.502542  0.772367  0.003917  0.162447
    C   C116  0.772352  0.501821  0.996054  0.161681
    C   C117  0.001697  0.724048  0.497223  0.115698
    C   C118  0.724078  0.999594  0.502520  0.112727
    C   C119  0.998545  0.270827  0.502756  0.164570
    C   C120  0.270880  0.000621  0.497910  0.173840
    C   C121  0.478645  0.297940  0.042063  -0.194467
    C   C122  0.298412  0.522360  0.048745  -0.189546
    C   C123  0.522147  0.701406  0.049777  -0.191854
    C   C124  0.702225  0.480673  0.042836  -0.198314
    C   C125  0.521630  0.298369  0.951216  -0.191183
    C   C126  0.701456  0.521347  0.949962  -0.195103
    C   C127  0.481527  0.702302  0.956859  -0.194866
    C   C128  0.297870  0.479421  0.957855  -0.195373
    C   C129  0.996865  0.795070  0.551999  -0.120807
    C   C130  0.795941  0.002594  0.555875  -0.122356
    C   C131  0.020070  0.199689  0.547096  -0.198248
    C   C132  0.200661  0.977757  0.543206  -0.194319
    C   C133  0.003447  0.795932  0.443872  -0.127528
    C   C134  0.199684  0.021895  0.453475  -0.195242
    C   C135  0.975962  0.200515  0.457336  -0.192898
    C   C136  0.795172  0.994262  0.447982  -0.117964
    H   H49   0.462024  0.280092  0.077815  0.134235
    H   H50   0.280945  0.539184  0.084676  0.135419
    H   H51   0.538171  0.718735  0.086531  0.137042
    H   H52   0.720217  0.465083  0.079334  0.136385
    H   H53   0.538466  0.280860  0.915334  0.135557
    H   H54   0.718839  0.537391  0.913272  0.136779
    H   H55   0.465961  0.720344  0.920386  0.135301
    H   H56   0.279976  0.462829  0.922123  0.134488
    H   H57   0.993457  0.777743  0.594649  0.104387
    H   H58   0.779265  0.007217  0.598802  0.105746
    H   H59   0.037347  0.216985  0.582778  0.138933
    H   H60   0.218666  0.960830  0.578524  0.137455
    H   H61   0.007417  0.779281  0.400797  0.107124
    H   H62   0.216936  0.039303  0.417876  0.136916
    H   H63   0.958932  0.218465  0.422056  0.137181
    H   H64   0.777898  0.990066  0.405425  0.104468
    C   C137  0.479190  0.343186  0.043024  -0.220830
    C   C138  0.343665  0.521267  0.049237  -0.228114
    C   C139  0.520704  0.656172  0.050162  -0.222555
    C   C140  0.656983  0.480922  0.043824  -0.214674
    C   C141  0.520601  0.343620  0.950668  -0.226376
    C   C142  0.656220  0.519998  0.949523  -0.217910
    C   C143  0.481682  0.657063  0.955822  -0.217231
    C   C144  0.343111  0.479899  0.956842  -0.218661
    C   C145  0.996189  0.840332  0.552624  -0.199980
    C   C146  0.841252  0.001877  0.555356  -0.203128
    C   C147  0.019077  0.154396  0.547256  -0.212237
    C   C148  0.155400  0.977970  0.544393  -0.218632
    C   C149  0.002496  0.841234  0.444450  -0.201196
    C   C150  0.154393  0.020543  0.453120  -0.213709
    C   C151  0.976534  0.155252  0.455960  -0.219106
    C   C152  0.840440  0.993886  0.447403  -0.202554
    H   H65   0.462484  0.360398  0.079282  0.153807
    H   H66   0.361279  0.537794  0.085281  0.154750
    H   H67   0.536187  0.638432  0.086973  0.151212
    H   H68   0.639904  0.465032  0.080899  0.150090
    H   H69   0.537182  0.361184  0.914621  0.154451
    H   H70   0.638533  0.535563  0.912733  0.150503
    H   H71   0.465752  0.640043  0.918731  0.150268
    H   H72   0.360274  0.463176  0.920552  0.152788
    H   H73   0.993039  0.857000  0.595825  0.142934
    H   H74   0.858673  0.005311  0.597942  0.145759
    H   H75   0.036141  0.136667  0.582711  0.150940
    H   H76   0.138432  0.960706  0.580372  0.153796
    H   H77   0.005093  0.858683  0.401776  0.146448
    H   H78   0.136603  0.037473  0.417603  0.151484
    H   H79   0.959426  0.138225  0.419895  0.153430
    H   H80   0.857154  0.990162  0.404326  0.142696
    C   C153  0.499783  0.366168  0.996963  0.145803
    C   C154  0.366150  0.500428  0.002900  0.146053
    C   C155  0.500852  0.633863  0.002838  0.147662
    C   C156  0.633847  0.500191  0.996822  0.142216
    C   C157  0.998995  0.863741  0.498868  0.120341
    C   C158  0.863809  0.997666  0.501073  0.126634
    C   C159  0.997719  0.132008  0.501270  0.135707
    C   C160  0.132085  0.998963  0.498986  0.137073
    C   C161  0.500258  0.275489  0.996546  0.281823
    C   C162  0.275479  0.501039  0.003418  0.281382
    C   C163  0.502143  0.724503  0.003481  0.276033
    C   C164  0.724489  0.501294  0.996280  0.279958
    C   C165  0.000673  0.772423  0.497661  0.126183
    C   C166  0.772467  0.998813  0.502171  0.119009
    C   C167  0.998148  0.222843  0.502476  0.271422
    C   C168  0.222905  0.000113  0.498163  0.269291
    O   O33   0.565703  0.499532  0.050112  -0.695251
    O   O34   0.498377  0.434355  0.050129  -0.698423
    O   O35   0.434877  0.501643  0.054754  -0.682542
    O   O36   0.500582  0.565169  0.054723  -0.680929
    O   O37   0.434312  0.498736  0.949704  -0.697818
    O   O38   0.501260  0.434875  0.945076  -0.682894
    O   O39   0.565139  0.500235  0.944979  -0.681497
    O   O40   0.499855  0.565705  0.949590  -0.694920
    O   O41   0.064198  0.996134  0.552771  -0.683168
    O   O42   0.999615  0.931868  0.552724  -0.668908
    O   O43   0.933284  0.996477  0.552158  -0.689097
    O   O44   0.999960  0.062770  0.552217  -0.699684
    O   O45   0.931966  0.998886  0.447280  -0.666614
    O   O46   0.997246  0.933225  0.447846  -0.691277
    O   O47   0.062867  0.000568  0.447871  -0.699458
    O   O48   0.995570  0.064126  0.447316  -0.682952
    C   C169  0.585874  0.499868  0.997314  0.664817
    C   C170  0.499727  0.414156  0.997386  0.665905
    C   C171  0.414136  0.500208  0.002456  0.665199
    C   C172  0.500316  0.585890  0.002375  0.661851
    C   C173  0.084035  0.998533  0.499876  0.671353
    C   C174  0.998520  0.911941  0.499815  0.646023
    C   C175  0.912017  0.997560  0.500167  0.639122
    C   C176  0.997735  0.083953  0.500243  0.673118
    Zn  Zn9   0.500567  0.499454  0.068851  1.302220
    Zn  Zn10  0.499415  0.500565  0.930916  1.301898
    Zn  Zn11  0.998725  0.997334  0.568864  1.299438
    Zn  Zn12  0.997448  0.998674  0.431182  1.298942
    S   S1    0.592955  0.136048  0.015943  -0.244635
    C   C177  0.606341  0.137997  0.935493  0.229592
    H   H81   0.622578  0.106883  0.922074  0.008164
    H   H82   0.628419  0.166187  0.926406  -0.035741
    H   H83   0.575780  0.141745  0.908559  -0.037905
    S   S2    0.135584  0.409162  0.022553  -0.240483
    C   C178  0.138263  0.395208  0.942331  0.228495
    H   H84   0.106355  0.381205  0.927696  0.006336
    H   H85   0.164989  0.371132  0.934587  -0.036567
    H   H86   0.144831  0.425274  0.915372  -0.031542
    S   S3    0.410349  0.864427  0.019779  -0.244445
    C   C179  0.397700  0.860873  0.939247  0.219578
    H   H87   0.381144  0.891518  0.924564  0.013915
    H   H88   0.376081  0.832231  0.930753  -0.033682
    H   H89   0.428559  0.857088  0.912986  -0.038194
    S   S4    0.863122  0.595454  0.010651  -0.241578
    C   C180  0.860545  0.606607  0.929617  0.216404
    H   H90   0.891132  0.623396  0.915209  0.013358
    H   H91   0.831691  0.627594  0.919599  -0.032321
    H   H92   0.857637  0.575243  0.904312  -0.039662
    S   S5    0.408554  0.135417  0.977459  -0.241038
    C   C181  0.394629  0.138021  0.057701  0.230003
    H   H93   0.380218  0.106247  0.072127  0.007333
    H   H94   0.370881  0.165018  0.065600  -0.037288
    H   H95   0.424770  0.144112  0.084720  -0.033133
    S   S6    0.864802  0.409987  0.980516  -0.244692
    C   C182  0.861167  0.397378  0.061055  0.211551
    H   H96   0.891633  0.380467  0.075677  0.017846
    H   H97   0.832295  0.376076  0.069592  -0.031494
    H   H98   0.857761  0.428270  0.087340  -0.037658
    S   S7    0.595841  0.863527  0.989831  -0.241724
    C   C183  0.606870  0.860854  0.070891  0.207877
    H   H99   0.624148  0.891180  0.085241  0.017210
    H   H100  0.627392  0.831688  0.081017  -0.029984
    H   H101  0.575441  0.858494  0.096157  -0.039425
    S   S8    0.135882  0.593579  0.984244  -0.245753
    C   C184  0.137771  0.606830  0.064742  0.230135
    H   H102  0.106805  0.623406  0.078028  0.009918
    H   H103  0.166184  0.628580  0.074035  -0.036248
    H   H104  0.141088  0.576196  0.091624  -0.039203
    S   S9    0.049471  0.627964  0.605018  -0.203117
    C   C185  0.103585  0.634800  0.571750  0.179416
    H   H105  0.123337  0.604833  0.580178  0.018205
    H   H106  0.119991  0.663732  0.592278  -0.023997
    H   H107  0.100507  0.639605  0.521887  -0.030983
    S   S10   0.626740  0.956164  0.611763  -0.196026
    C   C186  0.633386  0.901188  0.581314  0.175884
    H   H108  0.603109  0.881973  0.590003  0.017350
    H   H109  0.661900  0.885036  0.603305  -0.024085
    H   H110  0.638816  0.902953  0.531460  -0.026903
    S   S11   0.906361  0.363355  0.514695  -0.241615
    C   C187  0.895417  0.359907  0.433659  0.220040
    H   H111  0.880111  0.390968  0.418057  0.008010
    H   H112  0.873184  0.331867  0.424402  -0.033922
    H   H113  0.926714  0.355112  0.408756  -0.030380
    S   S12   0.361971  0.094065  0.512856  -0.242876
    C   C188  0.358549  0.105751  0.432028  0.212754
    H   H114  0.388895  0.122810  0.417269  0.013590
    H   H115  0.329485  0.126639  0.422818  -0.033086
    H   H116  0.355572  0.074543  0.406371  -0.029944
    S   S13   0.955996  0.626733  0.389852  -0.198631
    C   C189  0.901780  0.633310  0.422862  0.182473
    H   H117  0.882365  0.603049  0.414953  0.014898
    H   H118  0.885109  0.661866  0.401740  -0.025689
    H   H119  0.904740  0.638647  0.472628  -0.028080
    S   S14   0.363491  0.908628  0.484640  -0.243698
    C   C190  0.359644  0.896853  0.565420  0.215618
    H   H120  0.390198  0.880380  0.580649  0.010506
    H   H121  0.330921  0.875396  0.574164  -0.031986
    H   H122  0.355851  0.927985  0.591049  -0.030500
    S   S15   0.091984  0.361973  0.488550  -0.240306
    C   C191  0.103703  0.357810  0.569295  0.190623
    H   H123  0.122552  0.387106  0.583933  0.022233
    H   H124  0.122950  0.327608  0.578334  -0.027923
    H   H125  0.072457  0.356638  0.595155  -0.026023
    S   S16   0.627816  0.044964  0.393019  -0.200680
    C   C192  0.634813  0.099703  0.424124  0.177790
    H   H126  0.604852  0.119309  0.415034  0.017278
    H   H127  0.663728  0.115636  0.402839  -0.023326
    H   H128  0.639715  0.097621  0.474068  -0.028119
