# Generated by REPEAT Assigner based on pymatgen
data_DB0-m2_o10_o23_f0_pcu.sym.30
_audit_creation_date              2022-05-24
_audit_creation_method            REPEAT_Assigner
_cell_length_a                    15.856246
_cell_length_b                    8.788842
_cell_length_c                    7.358045
_cell_angle_alpha                 104.108572
_cell_angle_beta                  96.229638
_cell_angle_gamma                 89.999037
_cell_volume                      988.227941
_symmetry_space_group_name_H-M    P1
_symmetry_Int_Tables_number       1
loop_
    _symmetry_equiv_pos_site_id
    _symmetry_equiv_pos_as_xyz
    1  x,y,z
loop_
    _atom_site_type_symbol
    _atom_site_label
    _atom_site_fract_x
    _atom_site_fract_y
    _atom_site_fract_z
    _atom_type_partial_charge
    O   O1   0.509011  0.286390  0.627520  -0.449124
    O   O2   0.489660  0.256119  0.305810  -0.533945
    C   C1   0.498724  0.198741  0.455121  0.577347
    O   O3   0.386450  0.519151  0.662605  -0.632676
    O   O4   0.371440  0.487410  0.340703  -0.621838
    C   C2   0.339735  0.498278  0.500174  0.825731
    Cu  Cu1  0.509421  0.515001  0.690606  0.828063
    Cu  Cu2  0.493218  0.480562  0.316308  0.772213
    O   O5   0.514401  0.739504  0.701139  -0.455913
    O   O6   0.492912  0.709271  0.379237  -0.342572
    O   O7   0.631813  0.516632  0.668257  -0.652280
    O   O8   0.616835  0.488498  0.346763  -0.605259
    C   C3   0.503994  0.796590  0.551580  0.398551
    C   C4   0.663482  0.496855  0.507286  0.840191
    C   C5   0.057979  0.419887  0.650884  0.227542
    C   C6   0.040009  0.398967  0.310334  0.582991
    C   C7   0.944023  0.398825  0.315606  0.535836
    C   C8   0.753983  0.496875  0.508104  -0.316503
    C   C9   0.081156  0.497954  0.498211  0.640857
    C   C10  0.964268  0.445856  0.673640  1.073652
    C   C11  0.921841  0.499351  0.505006  -0.777910
    C   C12  0.953672  0.666611  0.532763  0.756533
    C   C13  0.049726  0.666390  0.531703  -0.180321
    C   C14  0.829869  0.497656  0.507376  0.144241
    C   C15  0.173469  0.499040  0.498119  -0.144496
    C   C16  0.249429  0.499040  0.498914  -0.260609
    H   H1   0.938630  0.735097  0.672964  -0.020856
    H   H2   0.959668  0.542995  0.800419  -0.163970
    C   C17  0.496364  0.028530  0.428906  -0.068594
    C   C18  0.506288  0.966248  0.578126  0.132804
    N   N1   0.479988  0.453809  0.036401  -0.162136
    H   H3   0.457415  0.352168  0.939476  0.219769
    N   N2   0.523635  0.542064  0.970424  0.045935
    N   N3   0.920884  0.309298  0.703362  -1.057506
    H   H4   0.962869  0.252716  0.782738  0.300817
    H   H5   0.897478  0.232899  0.575956  0.382785
    N   N4   0.109295  0.487286  0.828971  -0.668394
    H   H6   0.086941  0.597218  0.890642  0.286914
    H   H7   0.171510  0.501662  0.800830  0.270257
    N   N5   0.911520  0.737753  0.389260  -0.851375
    H   H8   0.918272  0.859327  0.439227  0.268393
    H   H9   0.941036  0.706928  0.266557  0.308548
    N   N6   0.480073  0.929683  0.243029  -0.349195
    H   H10  0.422756  0.868913  0.236330  0.218218
    H   H11  0.471208  0.002988  0.150333  0.195044
    N   N7   0.520036  0.063909  0.764905  -0.607223
    H   H12  0.582197  0.109084  0.784569  0.253274
    H   H13  0.516360  0.990964  0.857002  0.296787
    N   N8   0.539470  0.690437  0.088088  -0.208134
    H   H14  0.557432  0.762626  0.004220  0.134170
    H   H15  0.591754  0.683991  0.184935  0.224086
    N   N9   0.074738  0.253350  0.594018  -0.719126
    H   H16  0.091120  0.214725  0.716185  0.209158
    H   H17  0.019405  0.192752  0.525082  0.204477
    N   N10  0.063396  0.460278  0.155049  -0.908376
    H   H18  0.047422  0.374601  0.030106  0.226168
    H   H19  0.027042  0.556299  0.143365  0.320736
    N   N11  0.069777  0.239541  0.285389  -0.618861
    H   H20  0.135928  0.246125  0.309206  0.233517
    H   H21  0.053176  0.178945  0.145259  0.209354
    N   N12  0.912602  0.239118  0.289423  -0.891840
    H   H22  0.847560  0.244636  0.301330  0.300879
    H   H23  0.919858  0.179632  0.150994  0.321432
    N   N13  0.903476  0.462133  0.164221  -0.616371
    H   H24  0.838358  0.466790  0.175140  0.260004
    H   H25  0.912555  0.384490  0.036294  0.203805
    N   N14  0.089171  0.757954  0.712330  -0.920818
    H   H26  0.067399  0.872165  0.730693  0.346505
    H   H27  0.154483  0.762217  0.704934  0.346974
    N   N15  0.073308  0.737009  0.385367  -0.779564
    H   H28  0.052449  0.852098  0.416317  0.316462
    H   H29  0.139521  0.740669  0.395678  0.344765
