# Generated by REPEAT Assigner based on pymatgen
data_DB0-m29_o89_o171_f0_pts.sym.65
_audit_creation_date              2022-05-24
_audit_creation_method            REPEAT_Assigner
_cell_length_a                    14.225100
_cell_length_b                    28.366725
_cell_length_c                    30.968011
_cell_angle_alpha                 88.507769
_cell_angle_beta                  88.444441
_cell_angle_gamma                 92.270185
_cell_volume                      12477.186261
_symmetry_space_group_name_H-M    P1
_symmetry_Int_Tables_number       1
loop_
    _symmetry_equiv_pos_site_id
    _symmetry_equiv_pos_as_xyz
    1  x,y,z
loop_
    _atom_site_type_symbol
    _atom_site_label
    _atom_site_fract_x
    _atom_site_fract_y
    _atom_site_fract_z
    _atom_type_partial_charge
    C   C1   0.819862  0.986677  0.050977  -0.236842
    C   C2   0.732415  0.987881  0.032568  0.058120
    C   C3   0.727837  0.991161  0.987884  -0.011088
    C   C4   0.809937  0.993162  0.963017  -0.160877
    C   C5   0.897397  0.988065  0.981295  0.068628
    C   C6   0.902436  0.986723  0.025820  0.199873
    C   C7   0.979584  0.984858  0.955805  -0.202372
    C   C8   0.066856  0.991406  0.975131  0.049313
    C   C9   0.071797  0.989688  0.019643  0.209456
    C   C10  0.989632  0.985448  0.045010  -0.291630
    C   C11  0.149369  0.000516  0.950620  -0.088395
    C   C12  0.236715  0.003063  0.969281  -0.106388
    C   C13  0.241319  0.998717  0.013910  0.128644
    C   C14  0.159419  0.991951  0.038506  -0.290544
    H   H1   0.822015  0.986168  0.085713  0.135421
    H   H2   0.803336  0.998268  0.928629  0.156721
    H   H3   0.146373  0.006680  0.916237  0.137832
    H   H4   0.166683  0.990022  0.073067  0.143493
    N   N1   0.012609  0.019753  0.117050  -0.261873
    C   C15  0.011865  0.003430  0.158232  -0.136659
    C   C16  0.993651  0.955218  0.159584  -0.248353
    C   C17  0.982921  0.941825  0.117423  -0.209504
    C   C18  0.995110  0.982460  0.092162  0.398321
    H   H5   0.024414  0.054730  0.106419  0.291950
    H   H6   0.023825  0.025333  0.185752  0.140656
    H   H7   0.988681  0.932409  0.188131  0.166119
    H   H8   0.967866  0.906562  0.106384  0.133625
    O   O1   0.566275  0.000597  0.048409  -0.416962
    C   C19  0.648301  0.987187  0.061706  0.483381
    O   O2   0.487347  0.898796  0.079512  -0.501401
    O   O3   0.655980  0.974176  0.102378  -0.527892
    O   O4   0.476420  0.941277  0.140498  -0.461642
    C   C20  0.484948  0.900596  0.121817  0.569221
    Fe  Fe1  0.470276  0.992041  0.095703  1.419632
    O   O5   0.347896  0.974496  0.068410  -0.610263
    O   O6   0.386492  0.041254  0.028686  -0.514109
    C   C21  0.329701  0.004303  0.036870  0.573251
    O   O7   0.485577  0.053710  0.125558  -0.668584
    O   O8   0.402675  0.014451  0.180370  -0.556293
    C   C22  0.445265  0.053072  0.164286  0.607697
    O   O9   0.481707  0.943174  0.875305  -0.682243
    O   O10  0.564300  0.982835  0.820595  -0.550228
    C   C23  0.520414  0.944359  0.836242  0.658114
    O   O11  0.623475  0.019309  0.933807  -0.640509
    O   O12  0.578109  0.953380  0.973336  -0.504853
    C   C24  0.638529  0.988919  0.965346  0.634491
    O   O13  0.312703  0.020988  0.899926  -0.552886
    O   O14  0.496216  0.055836  0.862475  -0.444385
    C   C25  0.484298  0.096112  0.881380  0.510172
    O   O15  0.404133  0.995396  0.953650  -0.412785
    C   C26  0.321328  0.007840  0.940510  0.573574
    O   O16  0.478386  0.097451  0.923682  -0.497303
    Fe  Fe2  0.500155  0.003982  0.906328  1.404594
    C   C27  0.947442  0.580857  0.450717  -0.069445
    C   C28  0.899152  0.615658  0.470428  0.109968
    C   C29  0.888351  0.615044  0.514784  0.129730
    C   C30  0.924435  0.579126  0.538840  -0.088782
    C   C31  0.974771  0.544077  0.519341  0.127578
    C   C32  0.986596  0.544979  0.474771  0.111279
    C   C33  0.012586  0.508342  0.543713  -0.353776
    C   C34  0.061707  0.473365  0.523865  0.132130
    C   C35  0.073288  0.474115  0.479286  0.104239
    C   C36  0.035878  0.510015  0.454899  -0.337955
    C   C37  0.100372  0.437452  0.548015  -0.084523
    C   C38  0.147264  0.402141  0.528422  0.137509
    C   C39  0.157251  0.402359  0.484045  0.111284
    C   C40  0.122448  0.438568  0.459864  -0.075112
    H   H9   0.044948  0.510647  0.420292  0.272129
    H   H10  0.003526  0.507706  0.578309  0.277403
    C   C41  0.201711  0.369371  0.459815  -0.340404
    C   C42  0.203482  0.380764  0.416129  0.116925
    S   S1   0.147928  0.434872  0.403047  -0.086245
    S   S2   0.097938  0.432852  0.605838  -0.094793
    C   C43  0.166522  0.381600  0.599602  0.132510
    C   C44  0.183943  0.370268  0.557059  -0.365745
    C   C45  0.840678  0.646899  0.539061  -0.350000
    C   C46  0.837576  0.634752  0.582606  0.125626
    S   S3   0.897089  0.581790  0.595555  -0.086090
    S   S4   0.949631  0.585665  0.392889  -0.092080
    C   C47  0.878663  0.636082  0.399326  0.124092
    C   C48  0.861113  0.647180  0.441907  -0.347091
    C   C49  0.243401  0.352888  0.384943  0.056017
    C   C50  0.202373  0.357349  0.634551  0.070086
    C   C51  0.792071  0.660586  0.613729  0.062144
    C   C52  0.840065  0.659545  0.364607  0.078158
    S   S5   0.282902  0.294669  0.396220  -0.072320
    C   C53  0.310991  0.292427  0.339477  0.146203
    C   C54  0.293240  0.333456  0.316740  -0.246599
    C   C55  0.254213  0.367000  0.342049  -0.191946
    C   C56  0.850277  0.645080  0.322589  -0.216756
    C   C57  0.800755  0.671249  0.293821  -0.225989
    C   C58  0.752426  0.706714  0.313064  0.138391
    S   S6   0.767536  0.709464  0.370273  -0.079231
    S   S7   0.745233  0.717364  0.602900  -0.071301
    C   C59  0.710681  0.716768  0.659095  0.133194
    C   C60  0.732722  0.676106  0.681372  -0.226773
    C   C61  0.779386  0.644995  0.656155  -0.201875
    C   C62  0.190578  0.371493  0.676596  -0.207604
    C   C63  0.235042  0.343617  0.705875  -0.238083
    C   C64  0.281131  0.307204  0.686988  0.149469
    S   S8   0.271249  0.306065  0.629383  -0.079897
    H   H11  0.232760  0.338457  0.473446  0.207504
    H   H12  0.225015  0.340976  0.547371  0.216190
    H   H13  0.807427  0.677227  0.525525  0.210107
    H   H14  0.818545  0.675872  0.451725  0.210621
    C   C65  0.343126  0.252470  0.319824  -0.008354
    H   H15  0.304909  0.338921  0.282338  0.197230
    H   H16  0.234791  0.400769  0.328904  0.183243
    H   H17  0.890711  0.615655  0.312545  0.191656
    H   H18  0.800785  0.663962  0.259766  0.196202
    C   C66  0.696930  0.737151  0.290198  -0.007630
    C   C67  0.668976  0.754323  0.678834  -0.005134
    H   H19  0.718199  0.669171  0.715405  0.193884
    H   H20  0.802307  0.611739  0.668998  0.184561
    H   H21  0.151797  0.401565  0.686406  0.189547
    H   H22  0.232461  0.350184  0.740071  0.198966
    C   C68  0.329131  0.274153  0.710601  -0.002829
    C   C69  0.347116  0.209201  0.340989  -0.170435
    C   C70  0.372804  0.173825  0.314122  -0.257837
    C   C71  0.391281  0.189493  0.272063  0.192785
    S   S9   0.377329  0.251566  0.263688  -0.050429
    S   S10  0.676262  0.731473  0.233703  -0.044596
    C   C72  0.608265  0.783006  0.238179  0.180116
    C   C73  0.604006  0.800534  0.279307  -0.224566
    C   C74  0.653083  0.774606  0.308541  -0.166911
    C   C75  0.659287  0.797671  0.658508  -0.162591
    C   C76  0.622794  0.830539  0.685421  -0.255898
    C   C77  0.601692  0.812673  0.726573  0.191268
    S   S11  0.627304  0.751726  0.734062  -0.043357
    S   S12  0.340492  0.276578  0.768006  -0.053824
    C   C78  0.398684  0.221914  0.764260  0.189629
    C   C79  0.408371  0.206291  0.722592  -0.227069
    C   C80  0.369941  0.235720  0.692497  -0.176643
    H   H23  0.328693  0.202563  0.374725  0.186720
    H   H24  0.377329  0.137683  0.325482  0.191685
    C   C81  0.415217  0.159851  0.238918  -0.062549
    C   C82  0.566153  0.803704  0.203020  -0.084086
    H   H25  0.566462  0.831297  0.288351  0.169947
    H   H26  0.657226  0.783779  0.342088  0.189789
    H   H27  0.680720  0.806195  0.625404  0.186917
    H   H28  0.612213  0.866437  0.674719  0.190927
    C   C83  0.566028  0.839390  0.759613  -0.040144
    C   C84  0.426641  0.196594  0.800260  -0.098244
    H   H29  0.441204  0.174090  0.713794  0.175565
    H   H30  0.370208  0.228097  0.658505  0.191783
    S   S13  0.410265  0.096672  0.244968  0.025452
    C   C85  0.443724  0.096278  0.188821  0.050665
    C   C86  0.458351  0.140462  0.169823  -0.184880
    C   C87  0.441510  0.176167  0.197763  -0.160023
    C   C88  0.416905  0.212548  0.841849  -0.106483
    C   C89  0.441154  0.179895  0.872637  -0.161812
    C   C90  0.469599  0.138483  0.855205  0.013953
    S   S14  0.471359  0.138456  0.797401  0.082101
    S   S15  0.557826  0.902444  0.755179  0.041538
    C   C91  0.518265  0.901825  0.810766  0.011972
    C   C92  0.507155  0.855017  0.830929  -0.173459
    C   C93  0.536529  0.819072  0.801772  -0.199446
    C   C94  0.570077  0.783938  0.160072  -0.135505
    C   C95  0.530610  0.815120  0.128351  -0.154610
    C   C96  0.498975  0.858013  0.147806  -0.056532
    S   S16  0.510040  0.859352  0.205388  0.105267
    H   H31  0.477075  0.146675  0.136034  0.193631
    H   H32  0.448015  0.212923  0.187710  0.169313
    H   H33  0.390446  0.246373  0.850253  0.162344
    H   H34  0.434062  0.185576  0.906930  0.155107
    H   H35  0.489025  0.848191  0.864698  0.206635
    H   H36  0.537232  0.782101  0.811010  0.187669
    H   H37  0.601945  0.751308  0.151807  0.172977
    H   H38  0.533710  0.809273  0.093997  0.170894
    C   C97  0.974130  0.968972  0.909496  0.767471
    F   F1   0.896513  0.938941  0.904310  -0.251372
    F   F2   0.050920  0.943122  0.898045  -0.235871
    F   F3   0.969583  0.007811  0.881829  -0.251797
