data_DB0-m3_o96_o6_f0_fsc.sym.23_repeat
_audit_creation_date              2024-02-20
_audit_creation_method            'Materials Studio'
_symmetry_space_group_name_H-M    'P1'
_symmetry_Int_Tables_number       1
_symmetry_cell_setting            triclinic
loop_
_symmetry_equiv_pos_as_xyz
  x,y,z
_cell_length_a                    13.1082
_cell_length_b                    13.7925
_cell_length_c                    15.9500
_cell_angle_alpha                 94.5607
_cell_angle_beta                  90.0463
_cell_angle_gamma                 90.6402
loop_
_atom_site_label
_atom_site_type_symbol
_atom_site_fract_x
_atom_site_fract_y
_atom_site_fract_z
_atom_site_U_iso_or_equiv
_atom_site_adp_type
_atom_site_occupancy
C1     C     0.82748   0.06347   0.22173   0.00000  Uiso   1.00
C2     C     0.17253   0.93653   0.77827   0.00000  Uiso   1.00
C3     C     0.77323   0.11434   0.16785   0.00000  Uiso   1.00
C4     C     0.22677   0.88566   0.83215   0.00000  Uiso   1.00
C5     C     0.82418   0.10788   0.09218   0.00000  Uiso   1.00
C6     C     0.17582   0.89212   0.90782   0.00000  Uiso   1.00
N1     N     0.91131   0.05756   0.09947   0.00000  Uiso   1.00
N2     N     0.08869   0.94244   0.90053   0.00000  Uiso   1.00
C7     C     0.91415   0.03194   0.17972   0.00000  Uiso   1.00
C8     C     0.08586   0.96806   0.82028   0.00000  Uiso   1.00
C9     C     0.78613   0.13769   0.02076   0.00000  Uiso   1.00
C10    C     0.21387   0.86231   0.97924   0.00000  Uiso   1.00
C11    C     0.82320   0.10585   0.93606   0.00000  Uiso   1.00
C12    C     0.17680   0.89415   0.06394   0.00000  Uiso   1.00
C13    C     0.76284   0.09655   0.86476   0.00000  Uiso   1.00
C14    C     0.23716   0.90345   0.13524   0.00000  Uiso   1.00
C15    C     0.82110   0.05758   0.80037   0.00000  Uiso   1.00
C16    C     0.17890   0.94242   0.19963   0.00000  Uiso   1.00
C17    C     0.91763   0.04548   0.83347   0.00000  Uiso   1.00
C18    C     0.08237   0.95452   0.16653   0.00000  Uiso   1.00
N3     N     0.91823   0.07584   0.91622   0.00000  Uiso   1.00
N4     N     0.08177   0.92416   0.08378   0.00000  Uiso   1.00
C19    C     0.00837   0.01309   0.78583   0.00000  Uiso   1.00
C20    C     0.99163   0.98691   0.21417   0.00000  Uiso   1.00
H1     H     0.71419   0.17508   0.02368   0.00000  Uiso   1.00
H2     H     0.28581   0.82492   0.97632   0.00000  Uiso   1.00
H3     H     0.00964   0.02264   0.71912   0.00000  Uiso   1.00
H4     H     0.99036   0.97736   0.28088   0.00000  Uiso   1.00
H5     H     0.98140   0.08127   0.95596   0.00000  Uiso   1.00
H6     H     0.01860   0.91873   0.04404   0.00000  Uiso   1.00
C21    C     0.33771   0.88108   0.14656   0.00000  Uiso   1.00
C22    C     0.66229   0.11892   0.85344   0.00000  Uiso   1.00
C23    C     0.37888   0.89917   0.22607   0.00000  Uiso   1.00
C24    C     0.62112   0.10083   0.77393   0.00000  Uiso   1.00
C25    C     0.32178   0.94239   0.29217   0.00000  Uiso   1.00
C26    C     0.67822   0.05761   0.70784   0.00000  Uiso   1.00
C27    C     0.21971   0.96493   0.27924   0.00000  Uiso   1.00
C28    C     0.78029   0.03507   0.72076   0.00000  Uiso   1.00
C29    C     0.78835   0.04152   0.29815   0.00000  Uiso   1.00
C30    C     0.21165   0.95848   0.70185   0.00000  Uiso   1.00
C31    C     0.69297   0.07737   0.31964   0.00000  Uiso   1.00
C32    C     0.30703   0.92263   0.68036   0.00000  Uiso   1.00
C33    C     0.64205   0.13703   0.26739   0.00000  Uiso   1.00
C34    C     0.35796   0.86298   0.73261   0.00000  Uiso   1.00
C35    C     0.68088   0.15447   0.18985   0.00000  Uiso   1.00
C36    C     0.31912   0.84553   0.81015   0.00000  Uiso   1.00
H7     H     0.38421   0.84988   0.09569   0.00000  Uiso   1.00
H8     H     0.61580   0.15012   0.90431   0.00000  Uiso   1.00
H9     H     0.17405   0.99817   0.32986   0.00000  Uiso   1.00
H10    H     0.82595   0.00183   0.67014   0.00000  Uiso   1.00
H11    H     0.82738   0.99422   0.33813   0.00000  Uiso   1.00
H12    H     0.17262   0.00578   0.66187   0.00000  Uiso   1.00
H13    H     0.56709   0.16425   0.28380   0.00000  Uiso   1.00
H14    H     0.43291   0.83576   0.71620   0.00000  Uiso   1.00
H15    H     0.63711   0.19572   0.14802   0.00000  Uiso   1.00
H16    H     0.36289   0.80428   0.85198   0.00000  Uiso   1.00
H17    H     0.45816   0.88243   0.23586   0.00000  Uiso   1.00
H18    H     0.54184   0.11757   0.76414   0.00000  Uiso   1.00
O1     O     0.37267   0.05163   0.41098   0.00000  Uiso   1.00
O2     O     0.62733   0.94837   0.58902   0.00000  Uiso   1.00
O3     O     0.43479   0.89560   0.39771   0.00000  Uiso   1.00
O4     O     0.56521   0.10440   0.60229   0.00000  Uiso   1.00
C37    C     0.37446   0.96325   0.37330   0.00000  Uiso   1.00
C38    C     0.62554   0.03675   0.62670   0.00000  Uiso   1.00
O5     O     0.63732   0.95546   0.40885   0.00000  Uiso   1.00
O6     O     0.36268   0.04454   0.59115   0.00000  Uiso   1.00
O7     O     0.57541   0.11146   0.42773   0.00000  Uiso   1.00
O8     O     0.42460   0.88854   0.57227   0.00000  Uiso   1.00
C39    C     0.63774   0.04743   0.39243   0.00000  Uiso   1.00
C40    C     0.36226   0.95257   0.60757   0.00000  Uiso   1.00
Zn1    Zn    0.53985   0.89889   0.49021   0.00000  Uiso   1.00
Zn2    Zn    0.46015   0.10112   0.50979   0.00000  Uiso   1.00
H19    H     0.67953   0.54974   0.52398   0.00000  Uiso   1.00
H20    H     0.32047   0.45026   0.47602   0.00000  Uiso   1.00
C41    C     0.56954   0.43280   0.52334   0.00000  Uiso   1.00
C42    C     0.43046   0.56720   0.47666   0.00000  Uiso   1.00
C43    C     0.46831   0.40582   0.51054   0.00000  Uiso   1.00
C44    C     0.53169   0.59418   0.48946   0.00000  Uiso   1.00
C45    C     0.39901   0.47272   0.48667   0.00000  Uiso   1.00
C46    C     0.60100   0.52728   0.51333   0.00000  Uiso   1.00
C47    C     0.43838   0.30598   0.51694   0.00000  Uiso   1.00
C48    C     0.56162   0.69402   0.48306   0.00000  Uiso   1.00
N5     N     0.57676   0.77656   0.48011   0.00000  Uiso   1.00
N6     N     0.42324   0.22344   0.51989   0.00000  Uiso   1.00
N7     N     0.64123   0.36257   0.54654   0.00000  Uiso   1.00
H21    H     0.64984   0.31136   0.49527   0.00000  Uiso   1.00
H22    H     0.71176   0.39704   0.55757   0.00000  Uiso   1.00
N8     N     0.35877   0.63743   0.45346   0.00000  Uiso   1.00
H23    H     0.35016   0.68865   0.50473   0.00000  Uiso   1.00
H24    H     0.28824   0.60296   0.44243   0.00000  Uiso   1.00
