# Generated by REPEAT Assigner based on pymatgen
data_DB0-m3_o2_o23_f0_nbo.sym.68_sqe
_audit_creation_date              2022-05-24
_audit_creation_method            REPEAT_Assigner
_cell_length_a                    43.905909
_cell_length_b                    30.323597
_cell_length_c                    30.118089
_cell_angle_alpha                 90.000000
_cell_angle_beta                  133.041438
_cell_angle_gamma                 90.000000
_cell_volume                      29306.600868
_symmetry_space_group_name_H-M    P1
_symmetry_Int_Tables_number       1
loop_
    _symmetry_equiv_pos_site_id
    _symmetry_equiv_pos_as_xyz
    1  x,y,z
loop_
    _atom_site_type_symbol
    _atom_site_label
    _atom_site_fract_x
    _atom_site_fract_y
    _atom_site_fract_z
    _atom_type_partial_charge
    O   O1    0.497669  0.964352  0.563900  -0.690720
    O   O2    0.504353  0.966487  0.438528  -0.708859
    O   O3    0.997669  0.464352  0.563900  -0.690737
    O   O4    0.004353  0.466487  0.438528  -0.708874
    O   O5    0.496220  0.040514  0.562186  -0.711017
    O   O6    0.501795  0.042612  0.435532  -0.693355
    O   O7    0.996220  0.540514  0.562186  -0.711024
    O   O8    0.001795  0.542612  0.435532  -0.693352
    C   C1    0.495864  0.002443  0.582456  0.613506
    C   C2    0.504161  0.004453  0.417625  0.616998
    C   C3    0.995864  0.502443  0.582456  0.613517
    C   C4    0.004161  0.504453  0.417625  0.616993
    O   O9    0.438072  0.966306  0.435935  -0.661488
    O   O10   0.562194  0.964571  0.566413  -0.654238
    O   O11   0.938072  0.466306  0.435935  -0.661506
    O   O12   0.062194  0.464571  0.566413  -0.654266
    O   O13   0.437798  0.042477  0.434156  -0.700169
    O   O14   0.561947  0.040718  0.563566  -0.720149
    O   O15   0.937798  0.542477  0.434156  -0.700184
    O   O16   0.061947  0.540718  0.563566  -0.720154
    C   C5    0.418488  0.004330  0.414764  0.741945
    C   C6    0.581516  0.002756  0.585260  0.758210
    C   C7    0.918488  0.504330  0.414764  0.742001
    C   C8    0.081516  0.502756  0.585260  0.758253
    Zn  Zn1   0.500047  0.953526  0.500013  1.310799
    Zn  Zn2   0.000047  0.453526  0.500013  1.310815
    Zn  Zn3   0.499968  0.053481  0.500043  1.355101
    Zn  Zn4   0.999968  0.553481  0.500043  1.355105
    C   C9    0.276626  0.959470  0.292057  -0.102130
    C   C10   0.723552  0.958979  0.707701  -0.113970
    C   C11   0.776626  0.459470  0.292057  -0.102125
    C   C12   0.223552  0.458979  0.707701  -0.113922
    C   C13   0.272977  0.041355  0.294681  -0.253457
    C   C14   0.726956  0.040923  0.705587  -0.250697
    C   C15   0.772977  0.541355  0.294681  -0.253430
    C   C16   0.226956  0.540923  0.705587  -0.250832
    C   C17   0.225667  0.041051  0.248782  0.007720
    C   C18   0.774274  0.040783  0.751585  0.014394
    C   C19   0.725667  0.541051  0.248782  0.007691
    C   C20   0.274274  0.540783  0.751585  0.014255
    H   H1    0.219832  0.952133  0.274292  -0.000474
    H   H2    0.780484  0.952103  0.725727  0.001516
    H   H3    0.719832  0.452133  0.274292  -0.000464
    H   H4    0.280484  0.452103  0.725727  0.001540
    H   H5    0.282582  0.073856  0.291711  0.041753
    H   H6    0.717237  0.073282  0.708713  0.039594
    H   H7    0.782582  0.573856  0.291711  0.041735
    H   H8    0.217237  0.573282  0.708713  0.039638
    H   H9    0.285907  0.039750  0.341403  0.053880
    H   H10   0.714083  0.039577  0.658886  0.053816
    H   H11   0.785907  0.539750  0.341403  0.053880
    H   H12   0.214083  0.539577  0.658886  0.053849
    H   H13   0.215315  0.069350  0.218004  0.037218
    H   H14   0.784503  0.068935  0.782513  0.035604
    H   H15   0.715315  0.569350  0.218004  0.037223
    H   H16   0.284503  0.568935  0.782513  0.035627
    C   C21   0.126718  0.995956  0.126348  -0.123714
    C   C22   0.873321  0.995740  0.873834  -0.131816
    C   C23   0.626718  0.495956  0.126348  -0.123721
    C   C24   0.373321  0.495740  0.873834  -0.131526
    C   C25   0.290069  0.003122  0.283549  0.860571
    C   C26   0.709944  0.002383  0.716430  0.858872
    C   C27   0.790069  0.503122  0.283549  0.860535
    C   C28   0.209944  0.502383  0.716430  0.858870
    C   C29   0.229451  0.957671  0.249266  -0.128065
    C   C30   0.770744  0.957354  0.750639  -0.132342
    C   C31   0.729451  0.457671  0.249266  -0.128097
    C   C32   0.270744  0.457354  0.750639  -0.132432
    C   C33   0.210330  0.999265  0.210108  0.459189
    C   C34   0.789705  0.998844  0.790014  0.447787
    C   C35   0.710330  0.499265  0.210108  0.459186
    C   C36   0.289705  0.498844  0.790014  0.448162
    C   C37   0.223834  0.003116  0.175085  0.179554
    C   C38   0.776121  0.002234  0.824962  0.149721
    C   C39   0.723834  0.503116  0.175085  0.179539
    C   C40   0.276121  0.502234  0.824962  0.149769
    C   C41   0.271828  0.004552  0.217159  -0.599708
    C   C42   0.728114  0.003458  0.782793  -0.560502
    C   C43   0.771828  0.504552  0.217159  -0.599605
    C   C44   0.228114  0.503458  0.782793  -0.560487
    C   C45   0.164426  0.997074  0.164268  -0.347052
    C   C46   0.835613  0.996785  0.835905  -0.331939
    C   C47   0.664426  0.497074  0.164268  -0.347042
    C   C48   0.335613  0.496785  0.835905  -0.332315
    C   C49   0.335957  0.003981  0.329911  -0.439285
    C   C50   0.664052  0.003045  0.670039  -0.438833
    C   C51   0.835957  0.503981  0.329911  -0.439236
    C   C52   0.164052  0.503045  0.670039  -0.438766
    C   C53   0.373629  0.004233  0.368519  -0.019304
    C   C54   0.626378  0.003053  0.631457  -0.026909
    C   C55   0.873629  0.504233  0.368519  -0.019364
    C   C56   0.126378  0.503053  0.631457  -0.026955
    H   H17   0.207652  0.978299  0.138624  -0.015609
    H   H18   0.792339  0.977290  0.861270  -0.008622
    H   H19   0.707652  0.478299  0.138624  -0.015611
    H   H20   0.292339  0.477290  0.861270  -0.008657
    H   H21   0.284915  0.931990  0.278286  0.028030
    H   H22   0.715255  0.931270  0.721175  0.032197
    H   H23   0.784915  0.431990  0.278286  0.028029
    H   H24   0.215255  0.431270  0.721175  0.032188
    H   H25   0.218080  0.928845  0.218909  0.029883
    H   H26   0.782143  0.928417  0.780830  0.032413
    H   H27   0.718080  0.428845  0.218909  0.029891
    H   H28   0.282143  0.428417  0.780830  0.032412
    H   H29   0.210533  0.034624  0.149930  -0.019871
    H   H30   0.789314  0.033679  0.850308  -0.015086
    H   H31   0.710533  0.534624  0.149930  -0.019865
    H   H32   0.289314  0.533679  0.850308  -0.015122
    C   C57   0.505741  0.038268  0.709573  -0.089533
    C   C58   0.492284  0.038479  0.288188  -0.088825
    C   C59   0.005741  0.538268  0.709573  -0.089529
    C   C60   0.992284  0.538479  0.288188  -0.088827
    H   H33   0.515650  0.067083  0.737727  0.099114
    H   H34   0.480973  0.066537  0.258371  0.097856
    H   H35   0.015650  0.567083  0.737727  0.099113
    H   H36   0.980973  0.566537  0.258371  0.097857
    C   C61   0.505859  0.039191  0.664105  -0.211963
    C   C62   0.492267  0.039892  0.333743  -0.213400
    C   C63   0.005859  0.539191  0.664105  -0.211967
    C   C64   0.992267  0.539892  0.333743  -0.213406
    H   H37   0.516568  0.068531  0.657895  0.154617
    H   H38   0.480226  0.068805  0.338352  0.156839
    H   H39   0.016568  0.568531  0.657895  0.154617
    H   H40   0.980226  0.568805  0.338352  0.156839
    C   C65   0.493792  0.002343  0.628556  0.147223
    C   C66   0.506156  0.003992  0.371446  0.138368
    C   C67   0.993792  0.502343  0.628556  0.147245
    C   C68   0.006156  0.503992  0.371446  0.138397
    C   C69   0.480502  0.965032  0.637402  -0.141755
    C   C70   0.521121  0.967191  0.364612  -0.137967
    C   C71   0.980502  0.465032  0.637402  -0.141786
    C   C72   0.021121  0.467191  0.364612  -0.137996
    H   H41   0.470615  0.936050  0.609534  0.124481
    H   H42   0.532419  0.938957  0.394144  0.127873
    H   H43   0.970615  0.436050  0.609534  0.124487
    H   H44   0.032419  0.438957  0.394144  0.127880
    C   C73   0.479390  0.964572  0.681867  -0.097816
    C   C74   0.522079  0.966285  0.319999  -0.104471
    C   C75   0.979390  0.464572  0.681867  -0.097795
    C   C76   0.022079  0.466285  0.319999  -0.104468
    H   H45   0.469519  0.935035  0.689143  0.094142
    H   H46   0.533248  0.937114  0.314289  0.095737
    H   H47   0.969519  0.435035  0.689143  0.094140
    H   H48   0.033248  0.437114  0.314289  0.095735
    C   C77   0.492502  0.000982  0.718436  0.049236
    C   C78   0.507191  0.001698  0.281331  0.054119
    C   C79   0.992502  0.500982  0.718436  0.049219
    C   C80   0.007191  0.501698  0.281331  0.054123
    C   C81   0.458968  0.985217  0.756483  -0.057505
    C   C82   0.541283  0.987063  0.243892  -0.054669
    C   C83   0.958968  0.485217  0.756483  -0.057512
    C   C84   0.041283  0.487063  0.243892  -0.054662
    H   H49   0.430923  0.975562  0.711271  0.075151
    H   H50   0.569772  0.979010  0.289560  0.076121
    H   H51   0.930923  0.475562  0.711271  0.075149
    H   H52   0.069772  0.479010  0.289560  0.076114
    C   C85   0.459830  0.984206  0.802936  -0.226367
    C   C86   0.540428  0.985795  0.197448  -0.226381
    C   C87   0.959830  0.484206  0.802936  -0.226366
    C   C88   0.040428  0.485795  0.197448  -0.226386
    H   H53   0.432535  0.973088  0.793557  0.138330
    H   H54   0.568204  0.976091  0.207313  0.135301
    H   H55   0.932535  0.473088  0.793557  0.138331
    H   H56   0.068204  0.476091  0.207313  0.135303
    C   C89   0.495511  0.996591  0.860774  0.141659
    C   C90   0.504198  0.996223  0.139053  0.145764
    C   C91   0.995511  0.496591  0.860774  0.141673
    C   C92   0.004198  0.496223  0.139053  0.145741
    C   C93   0.530098  0.010485  0.871852  -0.178932
    C   C94   0.469007  0.008332  0.127356  -0.179647
    C   C95   0.030098  0.510485  0.871852  -0.178934
    C   C96   0.969007  0.508332  0.127356  -0.179621
    H   H57   0.558193  0.020573  0.916769  0.150004
    H   H58   0.440463  0.016884  0.081988  0.147853
    H   H59   0.058193  0.520573  0.916769  0.150006
    H   H60   0.940463  0.516884  0.081988  0.147854
    C   C97   0.528807  0.012518  0.825055  -0.113795
    C   C98   0.470244  0.010654  0.174084  -0.110365
    C   C99   0.028807  0.512518  0.825055  -0.113801
    C   C100  0.970244  0.510654  0.174084  -0.110391
    H   H61   0.556078  0.023287  0.834130  0.092749
    H   H62   0.442527  0.020096  0.164546  0.092387
    H   H63   0.056078  0.523287  0.834130  0.092750
    H   H64   0.942527  0.520096  0.164546  0.092389
    C   C101  0.493344  0.999679  0.767461  0.039231
    C   C102  0.506302  0.999862  0.232281  0.034589
    C   C103  0.993344  0.499679  0.767461  0.039246
    C   C104  0.006302  0.499862  0.232281  0.034601
    O   O17   0.999185  0.929303  0.038555  -0.675603
    O   O18   0.001016  0.929557  0.963786  -0.694553
    O   O19   0.499185  0.429303  0.038555  -0.675611
    O   O20   0.501016  0.429557  0.963786  -0.694543
    C   C105  0.000147  0.908833  0.001162  0.599604
    C   C106  0.500147  0.408833  0.001162  0.599602
    O   O21   0.061826  0.994485  0.099412  -0.688041
    O   O22   0.938210  0.996362  0.900752  -0.690863
    O   O23   0.561826  0.494485  0.099412  -0.688037
    O   O24   0.438210  0.496362  0.900752  -0.690879
    O   O25   0.062558  0.995992  0.023525  -0.707889
    O   O26   0.937478  0.993786  0.976617  -0.708470
    O   O27   0.562558  0.495992  0.023525  -0.707898
    O   O28   0.437478  0.493786  0.976617  -0.708454
    C   C107  0.081728  0.995231  0.081105  0.820323
    C   C108  0.918311  0.995075  0.919050  0.824905
    C   C109  0.581728  0.495231  0.081105  0.820330
    C   C110  0.418311  0.495075  0.919050  0.824806
    Zn  Zn5   0.999732  0.995206  0.050057  1.314181
    Zn  Zn6   0.000294  0.995113  0.950084  1.316302
    Zn  Zn7   0.499732  0.495206  0.050057  1.314195
    Zn  Zn8   0.500294  0.495113  0.950084  1.316328
    O   O29   0.998452  0.060750  0.035778  -0.701336
    O   O30   0.001406  0.061005  0.962172  -0.684547
    O   O31   0.498452  0.560750  0.035778  -0.701364
    O   O32   0.501406  0.561005  0.962172  -0.684564
    C   C111  0.999861  0.081483  0.998961  0.628495
    C   C112  0.499861  0.581483  0.998961  0.628523
    O   O33   0.464889  0.060854  0.964682  -0.694116
    O   O34   0.536844  0.061050  0.037268  -0.679057
    O   O35   0.964889  0.560854  0.964682  -0.694120
    O   O36   0.036844  0.561050  0.037268  -0.679074
    C   C113  0.500829  0.081532  0.000927  0.645155
    C   C114  0.000829  0.581532  0.000927  0.645158
    O   O37   0.461120  0.993871  0.896227  -0.681163
    O   O38   0.538686  0.995590  0.103690  -0.677924
    O   O39   0.961120  0.493871  0.896227  -0.681176
    O   O40   0.038686  0.495590  0.103690  -0.677937
    O   O41   0.533006  0.996880  0.965955  -0.721377
    O   O42   0.466752  0.994732  0.033918  -0.718801
    O   O43   0.033006  0.496880  0.965955  -0.721371
    O   O44   0.966752  0.494732  0.033918  -0.718849
    C   C115  0.496591  0.995518  0.910082  0.656685
    C   C116  0.503184  0.995169  0.089809  0.651661
    C   C117  0.996591  0.495518  0.910082  0.656676
    C   C118  0.003184  0.495169  0.089809  0.651715
    Zn  Zn9   0.452697  0.995319  0.954436  1.321097
    Zn  Zn10  0.547077  0.995166  0.045430  1.321419
    Zn  Zn11  0.952697  0.495319  0.954436  1.321119
    Zn  Zn12  0.047077  0.495166  0.045430  1.321428
    O   O45   0.462950  0.929413  0.963687  -0.686954
    O   O46   0.534867  0.929616  0.034122  -0.703229
    O   O47   0.962950  0.429413  0.963687  -0.686937
    O   O48   0.034867  0.429616  0.034122  -0.703222
    C   C119  0.498949  0.908915  0.998928  0.659479
    C   C120  0.998949  0.408915  0.998928  0.659461
    C   C121  0.987923  0.792292  0.951303  -0.112845
    C   C122  0.012804  0.792112  0.050709  -0.108899
    C   C123  0.487923  0.292292  0.951303  -0.112847
    C   C124  0.512804  0.292112  0.050709  -0.108909
    H   H65   0.978580  0.774849  0.912338  0.110558
    H   H66   0.022217  0.774524  0.089630  0.110096
    H   H67   0.478580  0.274849  0.912338  0.110560
    H   H68   0.522217  0.274524  0.089630  0.110098
    C   C125  0.988436  0.837741  0.951710  -0.222807
    C   C126  0.012118  0.837556  0.050420  -0.226144
    C   C127  0.488436  0.337741  0.951710  -0.222797
    C   C128  0.512118  0.337556  0.050420  -0.226125
    H   H69   0.978812  0.855115  0.912536  0.147688
    H   H70   0.021677  0.854785  0.089639  0.146768
    H   H71   0.478812  0.355115  0.912536  0.147683
    H   H72   0.521677  0.354785  0.089639  0.146764
    C   C129  0.000236  0.860575  0.001096  0.200772
    C   C130  0.500236  0.360575  0.001096  0.200754
    C   C131  0.000410  0.769307  0.000978  0.060407
    C   C132  0.500410  0.269307  0.000978  0.060409
    C   C133  0.535050  0.198207  0.050042  -0.114801
    C   C134  0.466098  0.198109  0.951799  -0.117483
    C   C135  0.035050  0.698207  0.050042  -0.114809
    C   C136  0.966098  0.698109  0.951799  -0.117485
    H   H73   0.562383  0.215761  0.088520  0.102326
    H   H74   0.438685  0.215586  0.913340  0.102946
    H   H75   0.062383  0.715761  0.088520  0.102328
    H   H76   0.938685  0.715586  0.913340  0.102948
    C   C137  0.535411  0.152764  0.049655  -0.183711
    C   C138  0.465940  0.152659  0.952155  -0.180692
    C   C139  0.035411  0.652764  0.049655  -0.183706
    C   C140  0.965940  0.652659  0.952155  -0.180688
    H   H77   0.562848  0.135502  0.088382  0.132785
    H   H78   0.438578  0.135312  0.913428  0.132035
    H   H79   0.062848  0.635502  0.088382  0.132784
    H   H80   0.938578  0.635312  0.913428  0.132032
    C   C141  0.500726  0.129787  0.000902  0.116989
    C   C142  0.000726  0.629787  0.000902  0.116988
    C   C143  0.500521  0.221053  0.000934  0.080758
    C   C144  0.000521  0.721053  0.000934  0.080760
    C   C145  0.013413  0.198301  0.976063  -0.101629
    C   C146  0.985618  0.197995  0.021872  -0.101687
    C   C147  0.513413  0.698301  0.976063  -0.101633
    C   C148  0.485618  0.697995  0.021872  -0.101695
    H   H81   0.023873  0.215912  0.957330  0.114069
    H   H82   0.975053  0.215365  0.040604  0.113406
    H   H83   0.523873  0.715912  0.957330  0.114071
    H   H84   0.475053  0.715365  0.040604  0.113409
    C   C149  0.012998  0.152850  0.975254  -0.232290
    C   C150  0.986307  0.152545  0.022684  -0.230953
    C   C151  0.512998  0.652850  0.975254  -0.232280
    C   C152  0.486307  0.652545  0.022684  -0.230937
    H   H85   0.023813  0.135694  0.956757  0.154343
    H   H86   0.975593  0.135142  0.041177  0.154606
    H   H87   0.523813  0.635694  0.956757  0.154337
    H   H88   0.475593  0.635142  0.041177  0.154601
    C   C153  0.999723  0.129758  0.998972  0.189302
    C   C154  0.499723  0.629758  0.998972  0.189287
    C   C155  0.999448  0.221061  0.998969  0.035643
    C   C156  0.499448  0.721061  0.998969  0.035641
    C   C157  0.464428  0.792113  0.978164  -0.113595
    C   C158  0.534088  0.792389  0.019802  -0.116947
    C   C159  0.964428  0.292113  0.978164  -0.113598
    C   C160  0.034088  0.292389  0.019802  -0.116957
    H   H89   0.436809  0.774513  0.961067  0.106521
    H   H90   0.561801  0.775009  0.036902  0.106785
    H   H91   0.936809  0.274513  0.961067  0.106522
    H   H92   0.061801  0.275009  0.036902  0.106788
    C   C161  0.464076  0.837566  0.977329  -0.206829
    C   C162  0.534196  0.837837  0.020615  -0.202968
    C   C163  0.964076  0.337566  0.977329  -0.206824
    C   C164  0.034196  0.337837  0.020615  -0.202952
    H   H93   0.436344  0.854738  0.960472  0.146943
    H   H94   0.561834  0.855223  0.037454  0.147192
    H   H95   0.936344  0.354738  0.960472  0.146941
    H   H96   0.061834  0.355223  0.037454  0.147189
    C   C165  0.499074  0.860641  0.998963  0.126412
    C   C166  0.999074  0.360641  0.998963  0.126402
    C   C167  0.499319  0.769338  0.998983  0.087352
    C   C168  0.999319  0.269338  0.998983  0.087353
    C   C169  0.300096  0.948685  0.357608  0.036486
    C   C170  0.333528  0.919900  0.388119  -0.043343
    C   C171  0.356939  0.909954  0.448397  -0.383083
    C   C172  0.347235  0.927826  0.479439  0.453292
    O   O49   0.371465  0.917498  0.538708  -0.334804
    C   C173  0.365625  0.933899  0.574919  0.066829
    C   C174  0.313063  0.955523  0.448909  -0.231798
    C   C175  0.289631  0.965505  0.388545  -0.193916
    H   H97   0.342663  0.905751  0.365731  0.103701
    H   H98   0.383439  0.888163  0.471725  0.161593
    H   H99   0.389748  0.920002  0.621242  0.067339
    H   H100  0.334541  0.924037  0.556684  0.012078
    H   H101  0.368748  0.970337  0.577732  0.035662
    H   H102  0.303809  0.970042  0.470912  0.111955
    H   H103  0.263258  0.986966  0.366549  0.134531
    C   C176  0.700250  0.948547  0.642116  0.048572
    C   C177  0.666869  0.919658  0.611221  -0.053302
    C   C178  0.643663  0.909964  0.550928  -0.378551
    C   C179  0.653534  0.928194  0.520256  0.449918
    O   O50   0.629533  0.918078  0.460973  -0.335078
    C   C180  0.635611  0.934801  0.425163  0.073289
    C   C181  0.687646  0.956021  0.551165  -0.231366
    C   C182  0.710863  0.965752  0.611530  -0.196069
    H   H104  0.657627  0.905206  0.633328  0.106317
    H   H105  0.617206  0.888070  0.527304  0.161201
    H   H106  0.611663  0.921025  0.378724  0.063400
    H   H107  0.666796  0.925099  0.443654  0.011444
    H   H108  0.632417  0.971229  0.422529  0.034347
    H   H109  0.697026  0.970831  0.529470  0.112329
    H   H110  0.737194  0.987322  0.633809  0.133945
    C   C183  0.800096  0.448685  0.357608  0.036487
    C   C184  0.833528  0.419900  0.388119  -0.043340
    C   C185  0.856939  0.409954  0.448397  -0.383089
    C   C186  0.847235  0.427826  0.479439  0.453299
    O   O51   0.871465  0.417498  0.538708  -0.334806
    C   C187  0.865625  0.433899  0.574919  0.066828
    C   C188  0.813063  0.455523  0.448909  -0.231793
    C   C189  0.789631  0.465505  0.388545  -0.193923
    H   H111  0.842663  0.405751  0.365731  0.103700
    H   H112  0.883439  0.388163  0.471725  0.161594
    H   H113  0.889748  0.420002  0.621242  0.067341
    H   H114  0.834541  0.424037  0.556684  0.012076
    H   H115  0.868748  0.470337  0.577732  0.035663
    H   H116  0.803809  0.470042  0.470912  0.111953
    H   H117  0.763258  0.486966  0.366549  0.134534
    C   C190  0.200250  0.448547  0.642116  0.048537
    C   C191  0.166869  0.419658  0.611221  -0.053253
    C   C192  0.143663  0.409964  0.550928  -0.378590
    C   C193  0.153534  0.428194  0.520256  0.449969
    O   O52   0.129533  0.418078  0.460973  -0.335151
    C   C194  0.135611  0.434801  0.425163  0.073527
    C   C195  0.187646  0.456021  0.551165  -0.231378
    C   C196  0.210863  0.465752  0.611530  -0.196083
    H   H118  0.157627  0.405206  0.633328  0.106295
    H   H119  0.117206  0.388070  0.527304  0.161212
    H   H120  0.111663  0.421025  0.378724  0.063358
    H   H121  0.166796  0.425099  0.443654  0.011355
    H   H122  0.132417  0.471229  0.422529  0.034282
    H   H123  0.197026  0.470831  0.529470  0.112346
    H   H124  0.237194  0.487322  0.633809  0.133945
    C   C197  0.210271  0.051783  0.279785  0.017758
    C   C198  0.184485  0.025264  0.279915  -0.023148
    C   C199  0.172388  0.038602  0.309671  -0.434180
    C   C200  0.185016  0.078523  0.339247  0.536419
    O   O53   0.172353  0.089899  0.367846  -0.370123
    C   C201  0.182859  0.128757  0.398838  0.100892
    C   C202  0.209949  0.105590  0.338350  -0.267890
    C   C203  0.222066  0.092272  0.308620  -0.235758
    H   H125  0.172967  0.993874  0.257488  0.134868
    H   H126  0.152594  0.017403  0.309656  0.171549
    H   H127  0.168457  0.129595  0.417962  0.054491
    H   H128  0.170904  0.157110  0.367457  0.018045
    H   H129  0.217187  0.130957  0.436778  0.013276
    H   H130  0.220462  0.137432  0.360285  0.122041
    H   H131  0.241194  0.114262  0.308109  0.162409
    C   C204  0.789731  0.051981  0.720776  0.012638
    C   C205  0.815643  0.025775  0.720588  -0.016178
    C   C206  0.827781  0.039522  0.691023  -0.433116
    C   C207  0.815070  0.079551  0.661697  0.534994
    O   O54   0.827776  0.091332  0.633270  -0.370047
    C   C208  0.817190  0.130332  0.602522  0.101686
    C   C209  0.790012  0.106310  0.662658  -0.269248
    C   C210  0.777853  0.092582  0.692199  -0.234235
    H   H132  0.827213  0.994316  0.742800  0.132277
    H   H133  0.847668  0.018559  0.690981  0.170316
    H   H134  0.831651  0.131510  0.583494  0.054440
    H   H135  0.829026  0.158553  0.634059  0.018097
    H   H136  0.782863  0.132451  0.564532  0.013043
    H   H137  0.779428  0.138218  0.640916  0.122282
    H   H138  0.758623  0.114334  0.692762  0.162663
    C   C211  0.710271  0.551783  0.279785  0.017786
    C   C212  0.684485  0.525264  0.279915  -0.023164
    C   C213  0.672388  0.538602  0.309671  -0.434166
    C   C214  0.685016  0.578523  0.339247  0.536411
    O   O55   0.672353  0.589899  0.367846  -0.370124
    C   C215  0.682859  0.628757  0.398838  0.100896
    C   C216  0.709949  0.605590  0.338350  -0.267881
    C   C217  0.722066  0.592272  0.308620  -0.235783
    H   H139  0.672967  0.493874  0.257488  0.134872
    H   H140  0.652594  0.517403  0.309656  0.171546
    H   H141  0.668457  0.629595  0.417962  0.054489
    H   H142  0.670904  0.657110  0.367457  0.018044
    H   H143  0.717187  0.630957  0.436778  0.013275
    H   H144  0.720462  0.637432  0.360285  0.122040
    H   H145  0.741194  0.614262  0.308109  0.162418
    C   C218  0.289731  0.551981  0.720776  0.012736
    C   C219  0.315643  0.525775  0.720588  -0.016203
    C   C220  0.327781  0.539522  0.691023  -0.433077
    C   C221  0.315070  0.579551  0.661697  0.534899
    O   O56   0.327776  0.591332  0.633270  -0.370070
    C   C222  0.317190  0.630332  0.602522  0.101794
    C   C223  0.290012  0.606310  0.662658  -0.269134
    C   C224  0.277853  0.592582  0.692199  -0.234325
    H   H146  0.327213  0.494316  0.742800  0.132264
    H   H147  0.347668  0.518559  0.690981  0.170326
    H   H148  0.331651  0.631510  0.583494  0.054415
    H   H149  0.329026  0.658553  0.634059  0.018073
    H   H150  0.282863  0.632451  0.564532  0.013019
    H   H151  0.279428  0.638218  0.640916  0.122254
    H   H152  0.258623  0.614334  0.692762  0.162685
    C   C225  0.289575  0.966509  0.207001  0.187731
    C   C226  0.268878  0.926736  0.178980  -0.040491
    C   C227  0.286292  0.894390  0.170075  -0.482712
    C   C228  0.324575  0.900255  0.188588  0.546179
    O   O57   0.340214  0.867484  0.178762  -0.338505
    C   C229  0.378131  0.869431  0.195449  0.007385
    C   C230  0.345783  0.939226  0.216987  -0.310570
    C   C231  0.328533  0.971660  0.226026  -0.164596
    H   H153  0.239805  0.918557  0.165783  0.128007
    H   H154  0.269759  0.863723  0.148733  0.168279
    H   H155  0.383241  0.838305  0.181996  0.090082
    H   H156  0.403436  0.873207  0.245441  0.027824
    H   H157  0.378514  0.897261  0.171919  0.030243
    H   H158  0.376110  0.945492  0.232973  0.141970
    H   H159  0.346935  0.001040  0.249178  0.169132
    C   C232  0.710443  0.965117  0.792663  0.179398
    C   C233  0.731235  0.925337  0.820427  -0.044927
    C   C234  0.713889  0.892704  0.829087  -0.479811
    C   C235  0.675579  0.898280  0.810572  0.544737
    O   O58   0.660008  0.865234  0.820150  -0.339083
    C   C236  0.622072  0.866880  0.803431  0.004877
    C   C237  0.654277  0.937256  0.782425  -0.307472
    C   C238  0.671460  0.969977  0.773636  -0.161938
    H   H160  0.760345  0.917390  0.833616  0.129366
    H   H161  0.730499  0.862042  0.850236  0.167843
    H   H162  0.617030  0.835571  0.816659  0.090695
    H   H163  0.596775  0.870810  0.753462  0.030236
    H   H164  0.621602  0.894489  0.827131  0.031415
    H   H165  0.623924  0.943305  0.766447  0.139459
    H   H166  0.652984  0.999345  0.750668  0.165287
    C   C239  0.789575  0.466509  0.207001  0.187696
    C   C240  0.768878  0.426736  0.178980  -0.040476
    C   C241  0.786292  0.394390  0.170075  -0.482722
    C   C242  0.824575  0.400255  0.188588  0.546195
    O   O59   0.840214  0.367484  0.178762  -0.338511
    C   C243  0.878131  0.369431  0.195449  0.007379
    C   C244  0.845783  0.439226  0.216987  -0.310589
    C   C245  0.828533  0.471660  0.226026  -0.164586
    H   H167  0.739805  0.418557  0.165783  0.128004
    H   H168  0.769759  0.363723  0.148733  0.168281
    H   H169  0.883241  0.338305  0.181996  0.090085
    H   H170  0.903436  0.373207  0.245441  0.027826
    H   H171  0.878514  0.397261  0.171919  0.030249
    H   H172  0.876110  0.445492  0.232973  0.141974
    H   H173  0.846935  0.501040  0.249178  0.169128
    C   C246  0.210443  0.465117  0.792663  0.179258
    C   C247  0.231235  0.425337  0.820427  -0.044625
    C   C248  0.213889  0.392704  0.829087  -0.480276
    C   C249  0.175579  0.398280  0.810572  0.545123
    O   O60   0.160008  0.365234  0.820150  -0.339235
    C   C250  0.122072  0.366880  0.803431  0.005139
    C   C251  0.154277  0.437256  0.782425  -0.307456
    C   C252  0.171460  0.469977  0.773636  -0.162073
    H   H174  0.260345  0.417390  0.833616  0.129322
    H   H175  0.230499  0.362042  0.850236  0.167953
    H   H176  0.117030  0.335571  0.816659  0.090635
    H   H177  0.096775  0.370810  0.753462  0.030169
    H   H178  0.121602  0.394489  0.827131  0.031319
    H   H179  0.123924  0.443305  0.766447  0.139443
    H   H180  0.152984  0.499345  0.750668  0.165342
    C   C253  0.280519  0.045686  0.197865  0.041491
    C   C254  0.309071  0.078776  0.236600  0.036661
    C   C255  0.315635  0.113601  0.214596  -0.484938
    C   C256  0.295160  0.116169  0.154235  0.535639
    O   O61   0.302741  0.151078  0.135133  -0.337148
    C   C257  0.284444  0.157149  0.076181  0.030718
    C   C258  0.268125  0.082673  0.115609  -0.336379
    C   C259  0.261486  0.047831  0.137482  -0.072202
    H   H181  0.327988  0.078417  0.284776  0.107669
    H   H182  0.337697  0.139019  0.245499  0.169683
    H   H183  0.296000  0.188397  0.073052  0.074160
    H   H184  0.250119  0.159433  0.045787  0.028922
    H   H185  0.292859  0.129612  0.062019  0.036837
    H   H186  0.251829  0.082478  0.068037  0.141544
    H   H187  0.240748  0.021882  0.106002  0.110148
    C   C260  0.719253  0.044330  0.802251  0.036638
    C   C261  0.690612  0.077403  0.763656  0.033621
    C   C262  0.683921  0.111988  0.785795  -0.487217
    C   C263  0.704352  0.114316  0.846152  0.538974
    O   O62   0.696656  0.149004  0.865394  -0.336549
    C   C264  0.714908  0.154831  0.924361  0.025180
    C   C265  0.731463  0.080812  0.884629  -0.338378
    C   C266  0.738227  0.046209  0.862620  -0.072971
    H   H188  0.671723  0.077209  0.715486  0.109695
    H   H189  0.661796  0.137405  0.755002  0.170074
    H   H190  0.703259  0.185937  0.927619  0.075781
    H   H191  0.749230  0.157244  0.954795  0.030520
    H   H192  0.706550  0.127106  0.938369  0.037722
    H   H193  0.747725  0.080426  0.932186  0.142661
    H   H194  0.759026  0.020241  0.893982  0.110175
    C   C267  0.780519  0.545686  0.197865  0.041358
    C   C268  0.809071  0.578776  0.236600  0.036814
    C   C269  0.815635  0.613601  0.214596  -0.485053
    C   C270  0.795160  0.616169  0.154235  0.535702
    O   O63   0.802741  0.651078  0.135133  -0.337143
    C   C271  0.784444  0.657149  0.076181  0.030686
    C   C272  0.768125  0.582673  0.115609  -0.336435
    C   C273  0.761486  0.547831  0.137482  -0.072128
    H   H195  0.827988  0.578417  0.284776  0.107641
    H   H196  0.837697  0.639019  0.245499  0.169703
    H   H197  0.796000  0.688397  0.073052  0.074165
    H   H198  0.750119  0.659433  0.045787  0.028928
    H   H199  0.792859  0.629612  0.062019  0.036856
    H   H200  0.751829  0.582478  0.068037  0.141546
    H   H201  0.740748  0.521882  0.106002  0.110136
    C   C274  0.219253  0.544330  0.802251  0.036629
    C   C275  0.190612  0.577403  0.763656  0.033608
    C   C276  0.183921  0.611988  0.785795  -0.487231
    C   C277  0.204352  0.614316  0.846152  0.539002
    O   O64   0.196656  0.649004  0.865394  -0.336557
    C   C278  0.214908  0.654831  0.924361  0.025177
    C   C279  0.231463  0.580812  0.884629  -0.338429
    C   C280  0.238227  0.546209  0.862620  -0.072887
    H   H202  0.171723  0.577209  0.715486  0.109695
    H   H203  0.161796  0.637405  0.755002  0.170079
    H   H204  0.203259  0.685937  0.927619  0.075783
    H   H205  0.249230  0.657244  0.954795  0.030521
    H   H206  0.206550  0.627106  0.938369  0.037725
    H   H207  0.247725  0.580426  0.932186  0.142668
    H   H208  0.259026  0.520241  0.893982  0.110154
