# Generated by REPEAT Assigner based on pymatgen
data_DB0-m29_o81_o87_f0_pts.sym.63
_audit_creation_date              2022-05-24
_audit_creation_method            REPEAT_Assigner
_cell_length_a                    16.306139
_cell_length_b                    8.734268
_cell_length_c                    10.910152
_cell_angle_alpha                 77.735120
_cell_angle_beta                  87.851403
_cell_angle_gamma                 105.352487
_cell_volume                      1456.937611
_symmetry_space_group_name_H-M    P1
_symmetry_Int_Tables_number       1
loop_
    _symmetry_equiv_pos_site_id
    _symmetry_equiv_pos_as_xyz
    1  x,y,z
loop_
    _atom_site_type_symbol
    _atom_site_label
    _atom_site_fract_x
    _atom_site_fract_y
    _atom_site_fract_z
    _atom_type_partial_charge
    C   C1   0.865484  0.915253  0.849446  -0.194849
    C   C2   0.264107  0.966486  0.921060  -0.104653
    C   C3   0.179950  0.933797  0.889554  0.228208
    C   C4   0.119270  0.983649  0.953100  -0.033276
    C   C5   0.034368  0.946407  0.928245  -0.179024
    C   C6   0.975490  0.009852  0.982339  0.117809
    C   C7   0.784425  0.896682  0.814294  0.349753
    C   C8   0.724954  0.941582  0.881172  -0.095270
    C   C9   0.891104  0.985333  0.949567  0.005445
    C   C10  0.832652  0.040287  0.012896  0.079953
    C   C11  0.746531  0.005292  0.986827  -0.086117
    C   C12  0.283939  0.038371  0.022819  0.057759
    C   C13  0.225020  0.096588  0.078213  -0.218620
    C   C14  0.143499  0.071197  0.042665  0.152488
    C   C15  0.085630  0.128967  0.101048  -0.048754
    C   C16  0.001895  0.099358  0.071326  -0.074843
    C   C17  0.945353  0.163252  0.127485  0.438668
    C   C18  0.862746  0.137236  0.096130  -0.265877
    H   H1   0.908745  0.887141  0.786802  0.120087
    H   H2   0.014595  0.860132  0.871278  0.137081
    H   H3   0.242164  0.156924  0.154203  0.157465
    H   H4   0.108129  0.200897  0.168405  0.132399
    H   H5   0.824948  0.203835  0.133268  0.148021
    O   O1   0.597415  0.979007  0.047313  -0.583882
    C   C19  0.676914  0.017649  0.074949  0.700702
    O   O2   0.591678  0.736223  0.270076  -0.466142
    O   O3   0.690898  0.039515  0.188416  -0.459552
    O   O4   0.480155  0.815553  0.339580  -0.574472
    C   C20  0.526681  0.712433  0.352987  0.529058
    Fe  Fe1  0.508369  0.977834  0.176144  1.467928
    O   O5   0.396536  0.926390  0.101413  -0.621194
    O   O6   0.403810  0.187387  0.110626  -0.540084
    C   C21  0.365562  0.052854  0.076917  0.657046
    O   O7   0.555427  0.197644  0.213971  -0.670099
    O   O8   0.442703  0.093842  0.364597  -0.494246
    C   C22  0.508706  0.214671  0.308326  0.952741
    O   O9   0.452991  0.780263  0.694134  -0.619520
    O   O10  0.564053  0.879738  0.540676  -0.526622
    C   C23  0.497916  0.760603  0.598838  0.898294
    O   O11  0.613884  0.055270  0.800415  -0.625749
    O   O12  0.597364  0.785285  0.813534  -0.545205
    C   C24  0.641197  0.925414  0.833728  0.658472
    O   O13  0.317090  0.893086  0.735669  -0.438013
    O   O14  0.527841  0.161246  0.563693  -0.612030
    C   C25  0.479860  0.261745  0.552657  0.627107
    O   O15  0.413414  0.004274  0.858238  -0.607958
    C   C26  0.333404  0.945755  0.838581  0.770978
    O   O16  0.414378  0.232499  0.636217  -0.550507
    Fe  Fe2  0.501035  0.001978  0.728535  1.456771
    C   C27  0.519315  0.378196  0.330647  -0.328185
    C   C28  0.499259  0.403019  0.444122  -0.004025
    C   C29  0.504698  0.571256  0.461814  0.090948
    C   C30  0.484053  0.596508  0.575075  -0.334306
    H   H6   0.460790  0.497783  0.656758  0.196987
    H   H7   0.539551  0.475650  0.247656  0.204847
    N   N1   0.157348  0.856850  0.789281  -0.469348
    C   C31  0.149003  0.695131  0.817814  0.742277
    O   O17  0.177276  0.634268  0.912087  -0.575378
    C   C32  0.105604  0.589781  0.734738  -0.400628
    H   H8   0.118745  0.898399  0.725530  0.291291
    H   H9   0.085082  0.663721  0.652242  0.091112
    H   H10  0.048861  0.496097  0.789182  0.079032
    H   H11  0.150513  0.528404  0.701076  0.149371
    N   N2   0.764806  0.841200  0.703282  -0.584428
    C   C33  0.765245  0.685662  0.708146  0.811128
    O   O18  0.793578  0.610770  0.795972  -0.578576
    C   C34  0.729839  0.603004  0.607395  -0.605483
    H   H12  0.725473  0.888380  0.643923  0.329288
    H   H13  0.707666  0.687381  0.533859  0.150455
    H   H14  0.675358  0.495238  0.649653  0.185191
    H   H15  0.780247  0.562316  0.563398  0.158520
    N   N3   0.971368  0.258100  0.216346  -0.696129
    C   C35  0.976671  0.168284  0.331274  0.828752
    O   O19  0.980189  0.028263  0.343054  -0.584325
    C   C36  0.977453  0.238429  0.444732  -0.538106
    H   H16  0.943259  0.350206  0.218067  0.354549
    H   H17  0.975931  0.367350  0.418003  0.139040
    H   H18  0.036440  0.232855  0.490720  0.153964
    H   H19  0.920951  0.166170  0.511958  0.134492
