# Generated by REPEAT Assigner based on pymatgen
data_DB0-m3_o90_o22_f0_fsc.sym.8
_audit_creation_date              2022-05-24
_audit_creation_method            REPEAT_Assigner
_cell_length_a                    6.631596
_cell_length_b                    9.015647
_cell_length_c                    15.885500
_cell_angle_alpha                 96.191937
_cell_angle_beta                  81.393936
_cell_angle_gamma                 89.930169
_cell_volume                      933.446646
_symmetry_space_group_name_H-M    P1
_symmetry_Int_Tables_number       1
loop_
    _symmetry_equiv_pos_site_id
    _symmetry_equiv_pos_as_xyz
    1  x,y,z
loop_
    _atom_site_type_symbol
    _atom_site_label
    _atom_site_fract_x
    _atom_site_fract_y
    _atom_site_fract_z
    _atom_type_partial_charge
    C   C1   0.326731  0.024128  0.696904  -0.097326
    C   C2   0.196948  0.014220  0.772379  0.150231
    H   H1   0.037520  0.993902  0.770672  0.004407
    C   C3   0.268607  0.028443  0.849681  -0.466833
    C   C4   0.471981  0.054879  0.851979  0.127068
    H   H2   0.529342  0.067386  0.912517  0.004184
    C   C5   0.603532  0.060584  0.776547  -0.160224
    H   H3   0.763627  0.077391  0.778427  0.120962
    C   C6   0.533357  0.041488  0.698572  -0.050003
    N   N1   0.197782  0.027139  0.004211  -0.244847
    N   N2   0.070729  0.013211  0.075337  -0.305715
    C   C7   0.872448  0.986234  0.071941  0.780894
    N   N3   0.803326  0.973708  0.996150  -0.258690
    N   N4   0.930373  0.987637  0.925028  -0.289960
    C   C8   0.128648  0.014616  0.928419  0.757595
    C   C9   0.529064  0.945986  0.148237  0.131215
    H   H4   0.471916  0.933475  0.087654  0.000350
    C   C10  0.397283  0.940289  0.223600  -0.145624
    H   H5   0.237226  0.923483  0.221619  0.114214
    C   C11  0.467181  0.959400  0.301629  -0.043150
    C   C12  0.673749  0.976784  0.303435  -0.109691
    C   C13  0.803787  0.986667  0.228017  0.178191
    H   H6   0.963180  0.006982  0.229824  0.011837
    C   C14  0.732389  0.972423  0.150653  -0.492971
    O   O1   0.759850  0.892318  0.592474  -0.704904
    O   O2   0.760663  0.147942  0.591614  -0.713197
    C   C15  0.683979  0.026222  0.620769  0.855209
    O   O3   0.179458  0.141227  0.592718  -0.648185
    O   O4   0.179969  0.884396  0.587517  -0.632853
    C   C16  0.236522  0.015845  0.618282  0.680268
    O   O5   0.240970  0.108705  0.407807  -0.690199
    O   O6   0.240162  0.852855  0.408674  -0.727631
    C   C17  0.316347  0.974654  0.379349  0.854021
    O   O7   0.821435  0.859777  0.407491  -0.621414
    O   O8   0.820876  0.116393  0.412705  -0.617832
    C   C18  0.763627  0.985080  0.382144  0.631213
    Zn  Zn1  0.004973  0.166076  0.501406  0.973621
    Zn  Zn2  0.995744  0.834830  0.498849  0.962573
    C   C19  0.184166  0.430643  0.533709  0.018435
    H   H7   0.321360  0.411434  0.484325  -0.037787
    H   H8   0.210126  0.383253  0.592858  0.026691
    C   C20  0.138878  0.596636  0.553297  0.016504
    H   H9   0.069184  0.621658  0.621321  0.006118
    H   H10  0.282364  0.659187  0.541325  -0.000736
    H   H11  0.128796  0.332338  0.369652  0.009207
    H   H12  0.227654  0.576972  0.395952  0.126770
    C   C21  0.012090  0.400478  0.414885  0.164161
    C   C22  0.827702  0.427033  0.553408  -0.024754
    N   N5   0.010742  0.360737  0.501121  0.197693
    H   H13  0.693446  0.359157  0.541480  0.055104
    H   H14  0.845524  0.431707  0.621949  0.036779
    N   N6   0.996456  0.640159  0.498770  0.348485
    C   C23  0.060864  0.564336  0.413727  -0.296929
    C   C24  0.798428  0.583586  0.530593  -0.069185
    H   H15  0.726905  0.656158  0.588167  0.092467
    H   H16  0.859390  0.380062  0.395921  -0.051132
    H   H17  0.979294  0.612746  0.366772  0.084049
    Cl  Cl1  0.640124  0.579070  0.449401  -0.018746
