# Generated by REPEAT Assigner based on pymatgen
data_DB0-m29_o90_o90_f0_pts.sym.6
_audit_creation_date              2022-05-24
_audit_creation_method            REPEAT_Assigner
_cell_length_a                    16.767719
_cell_length_b                    17.393634
_cell_length_c                    10.891659
_cell_angle_alpha                 109.913044
_cell_angle_beta                  108.775575
_cell_angle_gamma                 101.930126
_cell_volume                      2643.137753
_symmetry_space_group_name_H-M    P1
_symmetry_Int_Tables_number       1
loop_
    _symmetry_equiv_pos_site_id
    _symmetry_equiv_pos_as_xyz
    1  x,y,z
loop_
    _atom_site_type_symbol
    _atom_site_label
    _atom_site_fract_x
    _atom_site_fract_y
    _atom_site_fract_z
    _atom_type_partial_charge
    C   C1   0.279607  0.001847  0.952860  -0.120238
    C   C2   0.207672  0.993487  0.989418  0.118439
    H   H1   0.214237  0.982891  0.083767  0.088363
    C   C3   0.130933  0.004703  0.912916  -0.462781
    C   C4   0.125339  0.021446  0.795924  0.124126
    H   H2   0.066135  0.030274  0.733914  0.043219
    C   C5   0.196007  0.027948  0.757032  -0.165147
    H   H3   0.189547  0.040346  0.664232  0.133377
    C   C6   0.273668  0.018588  0.834797  0.080340
    N   N1   0.984359  0.016240  0.887275  -0.254292
    N   N2   0.919191  0.015911  0.930660  -0.245997
    C   C7   0.926164  0.002526  0.047696  0.779943
    N   N3   0.999672  0.989161  0.119837  -0.241319
    N   N4   0.064781  0.989458  0.076452  -0.262405
    C   C8   0.057837  0.002781  0.959429  0.796635
    C   C9   0.859685  0.982942  0.211387  0.110870
    H   H4   0.919940  0.975975  0.274371  0.045323
    C   C10  0.788867  0.973953  0.249545  -0.140583
    H   H5   0.796551  0.961498  0.342568  0.130128
    C   C11  0.709487  0.980136  0.170263  0.025934
    C   C12  0.702556  0.997621  0.052110  -0.099517
    C   C13  0.774870  0.008514  0.016537  0.123781
    H   H6   0.767546  0.019031  0.921913  0.072002
    C   C14  0.852896  0.999438  0.093886  -0.450929
    O   O1   0.569480  0.996256  0.169938  -0.557863
    C   C15  0.636861  0.971421  0.218395  0.592968
    O   O2   0.471029  0.806508  0.130857  -0.506422
    O   O3   0.643099  0.945419  0.319852  -0.497640
    O   O4   0.470341  0.896616  0.337515  -0.550855
    C   C16  0.468239  0.820218  0.255327  0.577485
    Fe  Fe1  0.488137  0.986094  0.265478  1.494992
    O   O5   0.362851  0.953011  0.117816  -0.643325
    O   O6   0.439962  0.065011  0.091019  -0.485550
    C   C17  0.364059  0.003298  0.051091  0.758604
    O   O7   0.546923  0.102882  0.438784  -0.655287
    O   O8   0.404721  0.102943  0.346182  -0.546497
    C   C18  0.487145  0.139896  0.448392  0.697873
    O   O9   0.442243  0.887126  0.563887  -0.598083
    O   O10  0.590053  0.903176  0.661567  -0.541087
    C   C19  0.508112  0.858087  0.559351  0.636005
    O   O11  0.615701  0.046605  0.889585  -0.563204
    O   O12  0.543732  0.926422  0.903349  -0.426512
    C   C20  0.617062  0.993525  0.951706  0.711462
    O   O13  0.347864  0.061255  0.700111  -0.522895
    O   O14  0.503391  0.093158  0.657731  -0.536524
    C   C21  0.546419  0.175266  0.754167  0.588370
    O   O15  0.405935  0.987990  0.820667  -0.564713
    C   C22  0.346413  0.024648  0.787023  0.548431
    O   O16  0.588991  0.193127  0.890327  -0.427204
    Fe  Fe2  0.491065  0.004826  0.733358  1.449096
    C   C23  0.514552  0.227294  0.561804  0.025259
    C   C24  0.507180  0.291291  0.516739  -0.034885
    H   H7   0.482416  0.272918  0.402407  0.070071
    C   C25  0.531423  0.376369  0.614113  -0.354318
    C   C26  0.562398  0.396946  0.759169  0.120113
    H   H8   0.579300  0.463010  0.837130  0.009804
    C   C27  0.566899  0.332636  0.806207  -0.096013
    C   C28  0.544212  0.246277  0.707708  -0.002741
    N   N5   0.538938  0.525185  0.652947  -0.245647
    N   N6   0.527809  0.583590  0.603150  -0.257516
    C   C29  0.498524  0.560756  0.460718  0.846489
    N   N7   0.480657  0.478094  0.369136  -0.354972
    N   N8   0.491555  0.419721  0.418879  -0.158647
    C   C30  0.520924  0.442437  0.561154  0.713482
    C   C31  0.463512  0.605579  0.261999  0.157419
    H   H9   0.453333  0.541059  0.186381  0.018955
    C   C32  0.455694  0.668624  0.213427  -0.217224
    H   H10  0.439967  0.651911  0.101165  0.155303
    C   C33  0.468911  0.752189  0.307192  0.058354
    C   C34  0.489202  0.771195  0.451079  0.022254
    C   C35  0.499323  0.708770  0.499419  0.055329
    H   H11  0.517479  0.726446  0.612535  0.044233
    C   C36  0.486511  0.625793  0.405987  -0.451762
    C   C37  0.589248  0.358118  0.959170  0.199272
    C   C38  0.668442  0.425588  0.062960  -0.113689
    C   C39  0.688560  0.451742  0.207338  -0.148891
    C   C40  0.628904  0.411388  0.248202  -0.056139
    C   C41  0.548573  0.345640  0.144606  -0.000282
    C   C42  0.528293  0.319727  0.000280  -0.134999
    H   H12  0.715357  0.457361  0.031254  0.096027
    H   H13  0.751145  0.503885  0.288507  0.119925
    H   H14  0.644872  0.431748  0.361403  0.081765
    H   H15  0.501334  0.314391  0.176286  0.070703
    H   H16  0.464778  0.268896  0.919277  0.102072
