# Generated by REPEAT Assigner based on pymatgen
data_DB0-m2_o5_o24_f0_nbo.sym.114_sqe
_audit_creation_date              2022-05-24
_audit_creation_method            REPEAT_Assigner
_cell_length_a                    18.406943
_cell_length_b                    18.404188
_cell_length_c                    21.485492
_cell_angle_alpha                 90.000000
_cell_angle_beta                  90.000000
_cell_angle_gamma                 90.000000
_cell_volume                      7278.529169
_symmetry_space_group_name_H-M    P1
_symmetry_Int_Tables_number       1
loop_
    _symmetry_equiv_pos_site_id
    _symmetry_equiv_pos_as_xyz
    1  x,y,z
loop_
    _atom_site_type_symbol
    _atom_site_label
    _atom_site_fract_x
    _atom_site_fract_y
    _atom_site_fract_z
    _atom_type_partial_charge
    O   O1    0.438706  0.101531  0.502375  -0.552708
    O   O2    0.440922  0.890260  0.502030  -0.593656
    O   O3    0.933207  0.602884  0.002236  -0.603062
    O   O4    0.931315  0.391609  0.002511  -0.594695
    O   O5    0.563869  0.102881  0.502119  -0.606589
    O   O6    0.566306  0.891676  0.501757  -0.582113
    O   O7    0.058427  0.602453  0.002352  -0.578032
    O   O8    0.056532  0.391242  0.002390  -0.580967
    C   C1    0.500985  0.135976  0.499510  0.814242
    C   C2    0.504012  0.857257  0.498997  0.824657
    C   C3    0.995993  0.636430  0.999395  0.818308
    C   C4    0.993859  0.357697  0.999579  0.776542
    O   O9    0.440031  0.993027  0.590351  -0.585397
    O   O10   0.439635  0.993426  0.409411  -0.608450
    O   O11   0.932243  0.494457  0.090463  -0.437566
    O   O12   0.932380  0.494138  0.909672  -0.467135
    O   O13   0.565330  0.994490  0.590127  -0.583303
    O   O14   0.564661  0.994895  0.409097  -0.605186
    O   O15   0.057453  0.499820  0.090590  -0.576488
    O   O16   0.057299  0.499768  0.909517  -0.595467
    C   C5    0.502642  0.997755  0.619204  0.570712
    C   C6    0.501938  0.998193  0.380259  0.504511
    C   C7    0.994584  0.497346  0.119613  0.432370
    C   C8    0.994570  0.497036  0.880476  0.368862
    Cu  Cu1   0.430000  0.995789  0.499899  0.998736
    Cu  Cu2   0.922479  0.497321  0.000056  0.997064
    Cu  Cu3   0.574837  0.997409  0.499587  1.003079
    Cu  Cu4   0.067219  0.496761  0.000047  0.984789
    C   C9    0.561911  0.029917  0.729025  -0.349152
    C   C10   0.560560  0.031452  0.270662  -0.360682
    C   C11   0.498386  0.931059  0.270358  -0.304808
    C   C12   0.498480  0.930315  0.728948  -0.292315
    C   C13   0.031984  0.554703  0.228147  -0.292598
    C   C14   0.030648  0.555102  0.771970  -0.297474
    C   C15   0.027974  0.437362  0.772006  -0.289576
    C   C16   0.026704  0.437058  0.228088  -0.284528
    C   C17   0.556996  0.963038  0.770328  0.154855
    C   C18   0.556615  0.964650  0.229212  0.150848
    C   C19   0.063527  0.494287  0.268050  0.113378
    C   C20   0.063501  0.495422  0.732051  0.112770
    H   H1    0.612798  0.055776  0.712536  0.127736
    H   H2    0.611064  0.057817  0.287416  0.128885
    H   H3    0.497110  0.874038  0.286977  0.114177
    H   H4    0.496630  0.873376  0.712172  0.121121
    H   H5    0.062183  0.602580  0.210498  0.123327
    H   H6    0.059773  0.603648  0.789610  0.120250
    H   H7    0.054854  0.387571  0.789716  0.120652
    H   H8    0.052463  0.386699  0.210338  0.126444
    C   C21   0.499992  0.999261  0.810517  0.274066
    C   C22   0.499296  0.000312  0.188992  0.285305
    C   C23   0.998711  0.497154  0.311334  0.386250
    C   C24   0.998624  0.496851  0.688786  0.407664
    C   C25   0.503905  0.065707  0.769072  0.062593
    C   C26   0.502232  0.066674  0.230595  0.046490
    C   C27   0.441026  0.967989  0.230297  0.033709
    C   C28   0.441474  0.967796  0.768987  0.033323
    C   C29   0.966491  0.556658  0.271346  -0.001084
    C   C30   0.965109  0.555604  0.728806  -0.032213
    C   C31   0.962441  0.439754  0.728829  -0.036689
    C   C32   0.961255  0.440898  0.271280  -0.017394
    C   C33   0.445356  0.034311  0.727987  -0.217516
    C   C34   0.443951  0.034414  0.271485  -0.265765
    C   C35   0.928714  0.500385  0.231768  -0.139020
    C   C36   0.928603  0.498497  0.768369  -0.139584
    C   C37   0.502432  0.997878  0.688568  0.332397
    C   C38   0.501384  0.998532  0.310906  0.438085
    C   C39   0.993898  0.497526  0.189021  0.363809
    C   C40   0.993855  0.497077  0.811090  0.452049
    C   C41   0.500740  0.213908  0.500116  -0.194261
    C   C42   0.505025  0.779336  0.499474  -0.192197
    C   C43   0.996563  0.714387  0.999818  -0.203995
    C   C44   0.994014  0.279807  0.000023  -0.141919
    C   C45   0.501673  0.279363  0.500356  -0.036977
    C   C46   0.505826  0.713884  0.499725  -0.092027
    C   C47   0.997292  0.779860  0.000017  -0.050651
    C   C48   0.994755  0.214376  0.000200  -0.128929
    O   O17   0.603057  0.936048  0.997327  -0.543479
    O   O18   0.604104  0.061498  0.002417  -0.643343
    O   O19   0.112094  0.434964  0.497421  -0.629734
    O   O20   0.111197  0.560327  0.502684  -0.641501
    C   C49   0.637306  0.998473  0.999925  0.910466
    C   C50   0.145371  0.497885  0.500024  0.995624
    O   O21   0.500347  0.936466  0.909243  -0.450286
    O   O22   0.500106  0.937604  0.090259  -0.471483
    O   O23   0.501213  0.062794  0.090259  -0.490904
    O   O24   0.501438  0.061634  0.909311  -0.518489
    O   O25   0.009080  0.434224  0.409387  -0.431852
    O   O26   0.008820  0.434632  0.590337  -0.456586
    O   O27   0.008161  0.559538  0.590703  -0.438801
    O   O28   0.007920  0.559134  0.409790  -0.463959
    C   C51   0.498450  0.999155  0.880119  0.334265
    C   C52   0.498074  0.000301  0.119400  0.332336
    C   C53   0.002706  0.496769  0.380724  0.249710
    C   C54   0.002649  0.496974  0.619386  0.245317
    Cu  Cu5   0.497375  0.927244  0.999790  0.933860
    Cu  Cu6   0.498572  0.072013  0.999742  1.025150
    Cu  Cu7   0.006565  0.424474  0.499871  0.971641
    Cu  Cu8   0.005518  0.569257  0.500237  0.978018
    O   O29   0.391883  0.937924  0.997118  -0.569855
    O   O30   0.392870  0.063000  0.002228  -0.620680
    O   O31   0.900884  0.433459  0.497224  -0.545417
    O   O32   0.899982  0.558706  0.502875  -0.546346
    C   C55   0.358530  0.000671  0.999711  0.893029
    C   C56   0.866604  0.495840  0.500031  0.796925
    O   O33   0.611414  0.498360  0.553788  -0.552045
    O   O34   0.611396  0.498129  0.446370  -0.552005
    O   O35   0.103418  0.000713  0.053799  -0.558168
    O   O36   0.103315  0.000779  0.946352  -0.558912
    C   C57   0.645137  0.494623  0.500078  0.729265
    C   C58   0.137151  0.998003  0.000046  0.754521
    O   O37   0.507297  0.391102  0.553845  -0.566851
    O   O38   0.507274  0.390887  0.446689  -0.574076
    O   O39   0.509511  0.602121  0.446218  -0.564621
    O   O40   0.509522  0.602346  0.553631  -0.555990
    O   O41   0.001251  0.891573  0.053679  -0.576862
    O   O42   0.001154  0.891639  0.946528  -0.585312
    O   O43   0.999589  0.102877  0.946486  -0.569560
    O   O44   0.999693  0.102819  0.053908  -0.560833
    C   C59   0.503077  0.357296  0.500313  0.691282
    C   C60   0.506144  0.635954  0.499871  0.739879
    C   C61   0.997732  0.857824  0.000088  0.706154
    C   C62   0.995665  0.136489  0.000211  0.763608
    Cu  Cu9   0.505768  0.496763  0.562141  0.983136
    Cu  Cu10  0.505748  0.496504  0.438049  0.991068
    Cu  Cu11  0.997825  0.997166  0.062195  0.981871
    Cu  Cu12  0.997709  0.997238  0.938107  0.991809
    O   O45   0.400201  0.500561  0.553726  -0.577045
    O   O46   0.400187  0.500344  0.446480  -0.576838
    O   O47   0.892198  0.999139  0.053851  -0.576885
    O   O48   0.892105  0.999198  0.946605  -0.578329
    C   C63   0.366452  0.497473  0.500108  0.713222
    C   C64   0.858430  0.995817  0.000242  0.690713
    C   C65   0.715159  0.997683  0.000112  -0.207515
    C   C66   0.223208  0.498330  0.500062  -0.198613
    C   C67   0.288608  0.498232  0.500095  -0.073219
    C   C68   0.780568  0.996829  0.000231  -0.050813
    C   C69   0.280570  0.000775  0.999862  -0.149847
    C   C70   0.788620  0.495304  0.500040  -0.157228
    C   C71   0.723130  0.494955  0.500058  -0.106840
    C   C72   0.215102  0.999813  0.999967  -0.131846
    C   C73   0.622595  0.922360  0.791488  0.349406
    H   H9    0.658031  0.897573  0.757264  0.022600
    O   O49   0.637345  0.917822  0.846644  -0.408611
    C   C74   0.622786  0.924831  0.208157  0.364336
    H   H10   0.658456  0.900514  0.242453  0.017311
    O   O50   0.637746  0.920497  0.153029  -0.415145
    C   C75   0.141547  0.490747  0.286494  0.366641
    H   H11   0.183136  0.488807  0.250828  0.022035
    O   O51   0.158860  0.490029  0.341242  -0.406559
    C   C76   0.141564  0.493559  0.713592  0.366893
    H   H12   0.183194  0.492574  0.749252  0.021898
    O   O52   0.158862  0.493079  0.658840  -0.407698
    C   C77   0.506334  0.143244  0.789008  0.425929
    H   H13   0.553125  0.176406  0.777553  0.004776
    O   O53   0.455335  0.169748  0.817216  -0.416199
    C   C78   0.503784  0.144295  0.210848  0.428848
    H   H14   0.550044  0.178025  0.222640  0.004958
    O   O54   0.452672  0.170205  0.182392  -0.415990
    C   C79   0.372017  0.932624  0.210093  0.410105
    H   H15   0.335206  0.910846  0.244750  0.003147
    O   O55   0.356382  0.928677  0.155076  -0.426196
    C   C80   0.371941  0.933186  0.788768  0.393309
    H   H16   0.335067  0.912057  0.753849  0.008337
    O   O56   0.355956  0.929183  0.843705  -0.418028
    C   C81   0.928602  0.625194  0.289511  0.391911
    H   H17   0.914774  0.664496  0.253864  0.021396
    O   O57   0.909787  0.635786  0.343114  -0.423576
    C   C82   0.925744  0.623264  0.710538  0.398222
    H   H18   0.910824  0.662224  0.746139  0.018255
    O   O58   0.907088  0.633502  0.656845  -0.420691
    C   C83   0.920341  0.373941  0.710130  0.409407
    H   H19   0.902110  0.336293  0.745634  0.011668
    O   O59   0.903765  0.363588  0.655954  -0.426178
    C   C84   0.917758  0.376031  0.290045  0.387741
    H   H20   0.898474  0.338902  0.254551  0.019644
    O   O60   0.901306  0.365898  0.344281  -0.419605
    C   C85   0.381655  0.075864  0.704118  0.453857
    H   H21   0.326970  0.058810  0.715728  0.000015
    O   O61   0.391013  0.129223  0.671463  -0.400038
    C   C86   0.379628  0.075022  0.295344  0.500681
    H   H22   0.325215  0.057105  0.283748  -0.011250
    O   O62   0.388164  0.128526  0.327994  -0.417443
    C   C87   0.848621  0.504528  0.220538  0.392634
    H   H23   0.812059  0.504370  0.260092  0.028182
    O   O63   0.823756  0.509117  0.168177  -0.411351
    C   C88   0.848427  0.500761  0.779556  0.388461
    H   H24   0.811947  0.500251  0.739954  0.028465
    O   O64   0.823378  0.503957  0.831930  -0.408288
