# Generated by REPEAT Assigner based on pymatgen
data_DB0-m3_o4_o17_f0_nbo.sym.133_sqe
_audit_creation_date              2022-05-24
_audit_creation_method            REPEAT_Assigner
_cell_length_a                    30.102262
_cell_length_b                    30.822211
_cell_length_c                    21.674326
_cell_angle_alpha                 90.000000
_cell_angle_beta                  133.962397
_cell_angle_gamma                 90.000000
_cell_volume                      14474.969953
_symmetry_space_group_name_H-M    P1
_symmetry_Int_Tables_number       1
loop_
    _symmetry_equiv_pos_site_id
    _symmetry_equiv_pos_as_xyz
    1  x,y,z
loop_
    _atom_site_type_symbol
    _atom_site_label
    _atom_site_fract_x
    _atom_site_fract_y
    _atom_site_fract_z
    _atom_type_partial_charge
    O   O1    0.318669  0.770053  0.130237  -0.668564
    O   O2    0.681331  0.770053  0.869763  -0.668576
    O   O3    0.818669  0.270053  0.130237  -0.668551
    O   O4    0.181331  0.270053  0.869763  -0.668571
    O   O5    0.262994  0.823268  0.026454  -0.662436
    O   O6    0.737006  0.823268  0.973546  -0.662423
    O   O7    0.762994  0.323268  0.026454  -0.662434
    O   O8    0.237006  0.323268  0.973546  -0.662418
    C   C1    0.305668  0.810887  0.106856  0.692152
    C   C2    0.694332  0.810887  0.893144  0.692153
    C   C3    0.805668  0.310887  0.106856  0.692144
    C   C4    0.194332  0.310887  0.893144  0.692139
    O   O9    0.335882  0.720661  0.038830  -0.746965
    O   O10   0.664118  0.720661  0.961169  -0.746959
    O   O11   0.835882  0.220661  0.038830  -0.746960
    O   O12   0.164118  0.220661  0.961169  -0.746953
    O   O13   0.285406  0.775909  0.938934  -0.718968
    O   O14   0.714595  0.775909  0.061065  -0.718972
    O   O15   0.785406  0.275909  0.938934  -0.718970
    O   O16   0.214595  0.275909  0.061065  -0.718974
    C   C5    0.330989  0.748112  0.988192  0.713608
    C   C6    0.669011  0.748112  0.011808  0.713608
    C   C7    0.830989  0.248112  0.988192  0.713603
    C   C8    0.169011  0.248112  0.011808  0.713616
    Zn  Zn1   0.279403  0.715406  0.058457  1.267660
    Zn  Zn2   0.720597  0.715406  0.941542  1.267710
    Zn  Zn3   0.779403  0.215406  0.058457  1.267653
    Zn  Zn4   0.220597  0.215406  0.941542  1.267701
    Zn  Zn5   0.210409  0.784772  0.921136  1.307800
    Zn  Zn6   0.789591  0.784772  0.078864  1.307800
    Zn  Zn7   0.710409  0.284772  0.921136  1.307808
    Zn  Zn8   0.289591  0.284772  0.078864  1.307809
    O   O17   0.225730  0.676981  0.953214  -0.631901
    O   O18   0.774270  0.676981  0.046785  -0.632032
    O   O19   0.725730  0.176981  0.953214  -0.631907
    O   O20   0.274270  0.176981  0.046785  -0.632035
    O   O21   0.172060  0.730082  0.849104  -0.657174
    O   O22   0.827940  0.730082  0.150896  -0.657198
    O   O23   0.672060  0.230082  0.849104  -0.657185
    O   O24   0.327940  0.230082  0.150896  -0.657203
    O   O25   0.205307  0.725087  0.042462  -0.739908
    O   O26   0.794693  0.725087  0.957537  -0.739926
    O   O27   0.705307  0.225087  0.042462  -0.739906
    O   O28   0.294693  0.225087  0.957537  -0.739917
    O   O29   0.153045  0.778720  0.939103  -0.654830
    O   O30   0.846955  0.778720  0.060897  -0.654822
    O   O31   0.653045  0.278720  0.939103  -0.654831
    O   O32   0.346955  0.278720  0.060897  -0.654842
    C   C9    0.184070  0.689182  0.872847  0.602816
    C   C10   0.815930  0.689182  0.127153  0.602958
    C   C11   0.684070  0.189182  0.872847  0.602839
    C   C12   0.315930  0.189182  0.127153  0.602948
    C   C13   0.158910  0.752118  0.991589  0.658666
    C   C14   0.841090  0.752118  0.008411  0.658652
    C   C15   0.658910  0.252118  0.991589  0.658646
    C   C16   0.341090  0.252118  0.008411  0.658662
    C   C17   0.598876  0.787394  0.013711  -0.420627
    C   C18   0.401124  0.787394  0.986289  -0.420636
    C   C19   0.098876  0.287394  0.013711  -0.420618
    C   C20   0.901124  0.287394  0.986289  -0.420632
    C   C21   0.620234  0.748499  0.011298  0.231971
    C   C22   0.379766  0.748499  0.988702  0.232000
    C   C23   0.120234  0.248499  0.011298  0.231957
    C   C24   0.879766  0.248499  0.988702  0.231998
    C   C25   0.594107  0.710140  0.005334  -0.314872
    C   C26   0.405893  0.710140  0.994666  -0.314882
    C   C27   0.094107  0.210140  0.005334  -0.314862
    C   C28   0.905893  0.210140  0.994666  -0.314878
    C   C29   0.547307  0.710580  0.003211  0.223169
    C   C30   0.452693  0.710580  0.996789  0.223165
    C   C31   0.047307  0.210580  0.003211  0.223160
    C   C32   0.952693  0.210580  0.996789  0.223161
    C   C33   0.524346  0.749518  0.002863  -0.021531
    C   C34   0.475654  0.749518  0.997137  -0.021532
    C   C35   0.024346  0.249518  0.002863  -0.021526
    C   C36   0.975654  0.249518  0.997137  -0.021531
    C   C37   0.549984  0.788227  0.007999  0.191784
    C   C38   0.450016  0.788227  0.992001  0.191770
    C   C39   0.049984  0.288227  0.007999  0.191776
    C   C40   0.950016  0.288227  0.992001  0.191762
    C   C41   0.523293  0.671875  0.000937  -0.223142
    C   C42   0.476707  0.671875  0.999063  -0.223144
    C   C43   0.023293  0.171875  0.000937  -0.223137
    C   C44   0.976707  0.171875  0.999063  -0.223142
    C   C45   0.474573  0.827204  0.994798  -0.253701
    C   C46   0.525427  0.827204  0.005202  -0.253750
    C   C47   0.974573  0.327204  0.994798  -0.253696
    C   C48   0.025427  0.327204  0.005202  -0.253745
    H   H1    0.619413  0.816773  0.015981  0.145321
    H   H2    0.380588  0.816773  0.984019  0.145324
    H   H3    0.119413  0.316773  0.015981  0.145314
    H   H4    0.880588  0.316773  0.984019  0.145322
    H   H5    0.611241  0.679637  0.004173  0.138074
    H   H6    0.388759  0.679637  0.995827  0.138078
    H   H7    0.111241  0.179637  0.004173  0.138071
    H   H8    0.888759  0.179637  0.995827  0.138076
    H   H9    0.541345  0.641376  0.001589  0.153778
    H   H10   0.458655  0.641376  0.998411  0.153781
    H   H11   0.041345  0.141376  0.001589  0.153776
    H   H12   0.958655  0.141376  0.998411  0.153780
    C   C49   0.391105  0.832710  0.257831  0.007856
    C   C50   0.608896  0.832710  0.742169  0.007915
    C   C51   0.891105  0.332710  0.257831  0.007861
    C   C52   0.108896  0.332710  0.742169  0.007892
    C   C53   0.340722  0.843836  0.174385  -0.003295
    C   C54   0.659278  0.843836  0.825615  -0.003326
    C   C55   0.840722  0.343836  0.174385  -0.003297
    C   C56   0.159278  0.343836  0.825615  -0.003294
    C   C57   0.324214  0.887437  0.158571  -0.155908
    C   C58   0.675786  0.887437  0.841429  -0.155894
    C   C59   0.824214  0.387437  0.158571  -0.155899
    C   C60   0.175786  0.387437  0.841429  -0.155911
    H   H13   0.284582  0.898393  0.094412  0.144862
    H   H14   0.715418  0.898393  0.905588  0.144856
    H   H15   0.784582  0.398393  0.094412  0.144859
    H   H16   0.215418  0.398393  0.905588  0.144856
    C   C61   0.357278  0.917404  0.225864  -0.198066
    C   C62   0.642722  0.917404  0.774136  -0.198076
    C   C63   0.857278  0.417404  0.225864  -0.198073
    C   C64   0.142722  0.417404  0.774136  -0.198078
    H   H17   0.342794  0.950898  0.212915  0.147062
    H   H18   0.657206  0.950898  0.787085  0.147060
    H   H19   0.842794  0.450898  0.212915  0.147063
    H   H20   0.157206  0.450898  0.787085  0.147073
    C   C65   0.408320  0.904552  0.309199  0.030372
    C   C66   0.591680  0.904552  0.690801  0.030393
    C   C67   0.908320  0.404552  0.309199  0.030364
    C   C68   0.091680  0.404552  0.690801  0.030387
    C   C69   0.423442  0.861544  0.320995  0.051758
    C   C70   0.576558  0.861544  0.679005  0.051708
    C   C71   0.923442  0.361544  0.320995  0.051767
    C   C72   0.076558  0.361544  0.679005  0.051724
    C   C73   0.465030  0.829024  0.389054  -0.084568
    C   C74   0.534971  0.829024  0.610946  -0.084545
    C   C75   0.965030  0.329024  0.389054  -0.084564
    C   C76   0.034971  0.329024  0.610946  -0.084546
    C   C77   0.427939  0.795111  0.315074  -0.170820
    C   C78   0.572061  0.795111  0.684926  -0.170860
    C   C79   0.927939  0.295111  0.315074  -0.170854
    C   C80   0.072061  0.295111  0.684926  -0.170868
    H   H21   0.513598  0.832786  0.420663  0.085483
    H   H22   0.486402  0.832786  0.579337  0.085479
    H   H23   0.013598  0.332786  0.420663  0.085486
    H   H24   0.986402  0.332786  0.579337  0.085482
    H   H25   0.456286  0.825971  0.430651  0.061183
    H   H26   0.543714  0.825971  0.569349  0.061179
    H   H27   0.956286  0.325971  0.430651  0.061179
    H   H28   0.043714  0.325971  0.569349  0.061178
    H   H29   0.455231  0.779068  0.304606  0.084503
    H   H30   0.544770  0.779068  0.695394  0.084513
    H   H31   0.955231  0.279068  0.304606  0.084510
    H   H32   0.044770  0.279068  0.695394  0.084516
    C   C81   0.871725  0.751444  0.928925  -0.311449
    C   C82   0.128275  0.751444  0.071075  -0.311855
    C   C83   0.371725  0.251444  0.928925  -0.311798
    C   C84   0.628275  0.251444  0.071075  -0.311778
    C   C85   0.888413  0.752945  0.006119  0.226870
    C   C86   0.111587  0.752945  0.993881  0.226942
    C   C87   0.388413  0.252945  0.006119  0.226977
    C   C88   0.611587  0.252945  0.993881  0.226965
    C   C89   0.949764  0.755680  0.081401  -0.379427
    C   C90   0.050236  0.755680  0.918599  -0.379352
    C   C91   0.449764  0.255680  0.081401  -0.379375
    C   C92   0.550236  0.255680  0.918599  -0.379363
    C   C93   0.995364  0.756598  0.080280  0.147438
    C   C94   0.004636  0.756598  0.919720  0.147181
    C   C95   0.495364  0.256598  0.080280  0.147198
    C   C96   0.504636  0.256598  0.919720  0.147170
    C   C97   0.977987  0.755234  0.001879  -0.023677
    C   C98   0.022013  0.755234  0.998121  -0.023497
    C   C99   0.477987  0.255234  0.001879  -0.023545
    C   C100  0.522013  0.255234  0.998121  -0.023523
    C   C101  0.916350  0.753421  0.926804  0.232377
    C   C102  0.083650  0.753421  0.073196  0.232833
    C   C103  0.416350  0.253421  0.926804  0.232680
    C   C104  0.583650  0.253421  0.073196  0.232660
    C   C105  0.057934  0.757445  0.155730  -0.087138
    C   C106  0.942066  0.757445  0.844269  -0.087051
    C   C107  0.557934  0.257445  0.155730  -0.087080
    C   C108  0.442066  0.257445  0.844269  -0.087052
    C   C109  0.101243  0.754197  0.151128  -0.301935
    C   C110  0.898757  0.754197  0.848872  -0.301701
    C   C111  0.601243  0.254197  0.151128  -0.301785
    C   C112  0.398757  0.254197  0.848872  -0.301803
    H   H33   0.823464  0.749977  0.869935  0.163874
    H   H34   0.176536  0.749977  0.130065  0.163981
    H   H35   0.323464  0.249977  0.869935  0.163964
    H   H36   0.676536  0.249977  0.130065  0.163956
    H   H37   0.960591  0.754761  0.140305  0.186832
    H   H38   0.039409  0.754761  0.859695  0.186819
    H   H39   0.460591  0.254761  0.140305  0.186830
    H   H40   0.539409  0.254761  0.859695  0.186826
    H   H41   0.149798  0.754247  0.209272  0.182323
    H   H42   0.850202  0.754247  0.790727  0.182312
    H   H43   0.649798  0.254247  0.209272  0.182310
    H   H44   0.350202  0.254247  0.790727  0.182315
    C   C113  0.165523  0.612337  0.826730  0.000433
    C   C114  0.834477  0.612337  0.173270  0.000513
    C   C115  0.665523  0.112337  0.826730  0.000448
    C   C116  0.334477  0.112337  0.173270  0.000500
    C   C117  0.149617  0.655417  0.806857  0.065822
    C   C118  0.850383  0.655417  0.193143  0.065721
    C   C119  0.649617  0.155417  0.806857  0.065801
    C   C120  0.350383  0.155417  0.193143  0.065737
    C   C121  0.099535  0.665268  0.720889  -0.181490
    C   C122  0.900465  0.665268  0.279111  -0.181476
    C   C123  0.599535  0.165268  0.720889  -0.181476
    C   C124  0.400465  0.165268  0.279111  -0.181479
    H   H45   0.084297  0.698444  0.700957  0.150692
    H   H46   0.915703  0.698444  0.299043  0.150692
    H   H47   0.584297  0.198444  0.700957  0.150692
    H   H48   0.415703  0.198444  0.299043  0.150695
    C   C125  0.068096  0.632517  0.659023  -0.210768
    C   C126  0.931904  0.632517  0.340977  -0.210743
    C   C127  0.568096  0.132517  0.659023  -0.210786
    C   C128  0.431904  0.132517  0.340977  -0.210753
    H   H49   0.029407  0.640717  0.592470  0.159389
    H   H50   0.970593  0.640717  0.407530  0.159376
    H   H51   0.529407  0.140717  0.592470  0.159393
    H   H52   0.470593  0.140717  0.407530  0.159379
    C   C129  0.087250  0.589719  0.681958  0.033462
    C   C130  0.912750  0.589719  0.318042  0.033459
    C   C131  0.587250  0.089719  0.681958  0.033474
    C   C132  0.412750  0.089719  0.318042  0.033458
    C   C133  0.136708  0.581585  0.767045  0.059897
    C   C134  0.863292  0.581585  0.232955  0.059845
    C   C135  0.636708  0.081585  0.767045  0.059894
    C   C136  0.363292  0.081585  0.232955  0.059868
    C   C137  0.176218  0.545666  0.827719  -0.084307
    C   C138  0.823782  0.545666  0.172280  -0.084278
    C   C139  0.676218  0.045666  0.827719  -0.084291
    C   C140  0.323782  0.045666  0.172280  -0.084290
    C   C141  0.210125  0.581559  0.898006  -0.291509
    C   C142  0.789875  0.581559  0.101994  -0.291493
    C   C143  0.710125  0.081559  0.898006  -0.291544
    C   C144  0.289875  0.081559  0.101994  -0.291500
    H   H53   0.150166  0.522764  0.832224  0.066747
    H   H54   0.849834  0.522764  0.167776  0.066742
    H   H55   0.650166  0.022764  0.832224  0.066747
    H   H56   0.349834  0.022764  0.167776  0.066743
    H   H57   0.204623  0.531123  0.817924  0.098702
    H   H58   0.795377  0.531123  0.182076  0.098699
    H   H59   0.704623  0.031123  0.817924  0.098706
    H   H60   0.295377  0.031123  0.182076  0.098702
    O   O33   0.997295  0.541653  0.415781  -0.693022
    O   O34   0.002705  0.541653  0.584219  -0.693034
    O   O35   0.497295  0.041653  0.415781  -0.693029
    O   O36   0.502705  0.041653  0.584219  -0.693041
    O   O37   0.914785  0.540058  0.403830  -0.662961
    O   O38   0.085215  0.540058  0.596170  -0.662954
    O   O39   0.414785  0.040058  0.403830  -0.662972
    O   O40   0.585215  0.040058  0.596170  -0.662966
    C   C145  0.942913  0.555199  0.381885  0.691290
    C   C146  0.057087  0.555199  0.618114  0.691294
    C   C147  0.442913  0.055199  0.381885  0.691292
    C   C148  0.557087  0.055199  0.618114  0.691293
    O   O41   0.496839  0.948565  0.415238  -0.702994
    O   O42   0.503161  0.948565  0.584762  -0.703016
    O   O43   0.996839  0.448565  0.415238  -0.703007
    O   O44   0.003161  0.448565  0.584762  -0.703031
    O   O45   0.414541  0.950224  0.403457  -0.663001
    O   O46   0.585459  0.950224  0.596543  -0.663016
    O   O47   0.914541  0.450224  0.403457  -0.663010
    O   O48   0.085459  0.450224  0.596543  -0.663030
    C   C149  0.442168  0.935237  0.380719  0.693905
    C   C150  0.557832  0.935237  0.619281  0.693940
    C   C151  0.942168  0.435237  0.380719  0.693928
    C   C152  0.057832  0.435237  0.619281  0.693961
    Zn  Zn9   0.552609  0.994981  0.504907  1.308354
    Zn  Zn10  0.447391  0.994981  0.495093  1.308367
    Zn  Zn11  0.052609  0.494981  0.504907  1.308347
    Zn  Zn12  0.947391  0.494981  0.495093  1.308359
    C   C153  0.391465  0.765450  0.320293  0.795754
    O   O49   0.353091  0.780150  0.318745  -0.557219
    N   N1    0.400875  0.719727  0.325880  -0.834543
    H   H61   0.369813  0.705147  0.326361  0.333106
    H   H62   0.389470  0.709887  0.270227  0.316443
    C   C154  0.608535  0.765450  0.679707  0.795759
    O   O50   0.646909  0.780150  0.681255  -0.557218
    N   N2    0.599125  0.719727  0.674120  -0.834535
    H   H63   0.630187  0.705147  0.673639  0.333101
    H   H64   0.610530  0.709887  0.729773  0.316440
    C   C155  0.891465  0.265450  0.320293  0.795772
    O   O51   0.853091  0.280150  0.318745  -0.557225
    N   N3    0.900875  0.219727  0.325880  -0.834539
    H   H65   0.869813  0.205147  0.326361  0.333104
    H   H66   0.889470  0.209887  0.270227  0.316439
    C   C156  0.108535  0.265450  0.679707  0.795761
    O   O52   0.146909  0.280150  0.681255  -0.557220
    N   N4    0.099125  0.219727  0.674120  -0.834529
    H   H67   0.130187  0.205147  0.673639  0.333098
    H   H68   0.110530  0.209887  0.729773  0.316438
    C   C157  0.080894  0.762063  0.241481  0.879947
    O   O53   0.057762  0.788348  0.254310  -0.570021
    N   N5    0.134918  0.739118  0.312266  -0.997936
    H   H69   0.123450  0.721013  0.340268  0.353585
    H   H70   0.167864  0.762117  0.356899  0.371477
    C   C158  0.919107  0.762063  0.758519  0.879913
    O   O54   0.942238  0.788348  0.745689  -0.570005
    N   N6    0.865082  0.739118  0.687734  -0.998004
    H   H71   0.876550  0.721013  0.659732  0.353615
    H   H72   0.832136  0.762117  0.643101  0.371486
    C   C159  0.580894  0.262063  0.241481  0.879931
    O   O55   0.557762  0.288348  0.254310  -0.570012
    N   N7    0.634918  0.239118  0.312266  -0.998001
    H   H73   0.623450  0.221013  0.340268  0.353615
    H   H74   0.667864  0.262117  0.356899  0.371488
    C   C160  0.419107  0.262063  0.758519  0.879914
    O   O56   0.442238  0.288348  0.745689  -0.570006
    N   N8    0.365082  0.239118  0.687734  -0.998000
    H   H75   0.376550  0.221013  0.659732  0.353612
    H   H76   0.332136  0.262117  0.643101  0.371490
    C   C161  0.202068  0.575491  0.958270  0.782683
    O   O57   0.229027  0.546078  0.010516  -0.573204
    N   N9    0.161437  0.602913  0.953246  -0.664845
    H   H77   0.164574  0.593781  0.002543  0.293570
    H   H78   0.116416  0.596464  0.895295  0.251598
    C   C162  0.797932  0.575491  0.041730  0.782671
    O   O58   0.770973  0.546078  0.989484  -0.573206
    N   N10   0.838563  0.602913  0.046754  -0.664763
    H   H79   0.835426  0.593781  0.997456  0.293544
    H   H80   0.883585  0.596464  0.104705  0.251565
    C   C163  0.702068  0.075491  0.958270  0.782675
    O   O59   0.729027  0.046078  0.010516  -0.573197
    N   N11   0.661437  0.102913  0.953246  -0.664831
    H   H81   0.664574  0.093781  0.002543  0.293564
    H   H82   0.616416  0.096464  0.895295  0.251595
    C   C164  0.297932  0.075491  0.041730  0.782663
    O   O60   0.270973  0.046078  0.989484  -0.573200
    N   N12   0.338563  0.102913  0.046754  -0.664759
    H   H83   0.335426  0.093781  0.997456  0.293543
    H   H84   0.383585  0.096464  0.104705  0.251564
    C   C165  0.275049  0.589263  0.939795  0.839872
    O   O61   0.285797  0.595606  0.895680  -0.562843
    N   N13   0.324532  0.589852  0.030960  -0.781050
    H   H85   0.365226  0.595078  0.045497  0.322989
    H   H86   0.318071  0.616475  0.053795  0.317484
    C   C166  0.724951  0.589263  0.060205  0.839851
    O   O62   0.714203  0.595606  0.104320  -0.562840
    N   N14   0.675468  0.589852  0.969040  -0.781065
    H   H87   0.634774  0.595078  0.954503  0.322999
    H   H88   0.681929  0.616475  0.946205  0.317496
    C   C167  0.775049  0.089263  0.939795  0.839891
    O   O63   0.785797  0.095606  0.895680  -0.562849
    N   N15   0.824532  0.089852  0.030960  -0.781058
    H   H89   0.865226  0.095078  0.045497  0.322991
    H   H90   0.818071  0.116475  0.053795  0.317487
    C   C168  0.224951  0.089263  0.060205  0.839872
    O   O64   0.214203  0.095606  0.104320  -0.562846
    N   N16   0.175468  0.089852  0.969040  -0.781077
    H   H91   0.134774  0.095078  0.954503  0.323002
    H   H92   0.181929  0.116475  0.946205  0.317500
    C   C169  0.449125  0.869041  0.990316  0.913812
    O   O65   0.478595  0.892136  0.053652  -0.584675
    N   N17   0.391339  0.883814  0.910917  -0.712582
    H   H93   0.361408  0.888072  0.919313  0.299750
    H   H94   0.373498  0.859490  0.865334  0.279303
    C   C170  0.550875  0.869041  0.009684  0.913864
    O   O66   0.521406  0.892136  0.946348  -0.584688
    N   N18   0.608661  0.883814  0.089083  -0.712581
    H   H95   0.638592  0.888072  0.080687  0.299744
    H   H96   0.626502  0.859490  0.134666  0.279298
    C   C171  0.949125  0.369041  0.990316  0.913815
    O   O67   0.978595  0.392136  0.053652  -0.584677
    N   N19   0.891339  0.383814  0.910917  -0.712585
    H   H97   0.861408  0.388072  0.919313  0.299752
    H   H98   0.873498  0.359490  0.865334  0.279303
    C   C172  0.050875  0.369041  0.009684  0.913870
    O   O68   0.021406  0.392136  0.946348  -0.584692
    N   N20   0.108661  0.383814  0.089083  -0.712586
    H   H99   0.138592  0.388072  0.080687  0.299747
    H   H100  0.126502  0.359490  0.134666  0.279298
