data_DB0-m3_o12_o23_f0_pcu.sym.7_repeat
_audit_creation_date              2024-02-23
_audit_creation_method            'Materials Studio'
_symmetry_space_group_name_H-M    'P1'
_symmetry_Int_Tables_number       1
_symmetry_cell_setting            triclinic
loop_
_symmetry_equiv_pos_as_xyz
  x,y,z
_cell_length_a                    10.0023
_cell_length_b                    11.2493
_cell_length_c                    15.9688
_cell_angle_alpha                 89.9878
_cell_angle_beta                  80.7280
_cell_angle_gamma                 92.4456
loop_
_atom_site_label
_atom_site_type_symbol
_atom_site_fract_x
_atom_site_fract_y
_atom_site_fract_z
_atom_site_U_iso_or_equiv
_atom_site_adp_type
_atom_site_occupancy
O1     O     0.42553   0.69699   0.50719   0.00000  Uiso   1.00
O2     O     0.65528   0.66584   0.48245   0.00000  Uiso   1.00
C1     C     0.55265   0.73624   0.49351   0.00000  Uiso   1.00
O3     O     0.38794   0.52177   0.63588   0.00000  Uiso   1.00
O4     O     0.61780   0.49061   0.61128   0.00000  Uiso   1.00
C2     C     0.50345   0.50621   0.66239   0.00000  Uiso   1.00
Zn1    Zn    0.34900   0.52697   0.51534   0.00000  Uiso   1.00
Zn2    Zn    0.65189   0.48562   0.48278   0.00000  Uiso   1.00
O5     O     0.34560   0.34674   0.51568   0.00000  Uiso   1.00
O6     O     0.57537   0.31559   0.49094   0.00000  Uiso   1.00
O7     O     0.38309   0.52193   0.38687   0.00000  Uiso   1.00
O8     O     0.61295   0.49076   0.36223   0.00000  Uiso   1.00
C3     C     0.44824   0.27634   0.50461   0.00000  Uiso   1.00
C4     C     0.49738   0.50635   0.33574   0.00000  Uiso   1.00
C5     C     0.42697   0.61283   0.95779   0.00000  Uiso   1.00
C6     C     0.64225   0.51011   0.93992   0.00000  Uiso   1.00
C7     C     0.63583   0.52802   0.03456   0.00000  Uiso   1.00
H1     H     0.43645   0.68783   0.08065   0.00000  Uiso   1.00
H2     H     0.48903   0.69493   0.93737   0.00000  Uiso   1.00
H3     H     0.69151   0.42567   0.92070   0.00000  Uiso   1.00
H4     H     0.70226   0.58508   0.90507   0.00000  Uiso   1.00
H5     H     0.66858   0.62100   0.04673   0.00000  Uiso   1.00
H6     H     0.70538   0.46720   0.05890   0.00000  Uiso   1.00
C8     C     0.49569   0.50560   0.24606   0.00000  Uiso   1.00
C9     C     0.49928   0.50524   0.91971   0.00000  Uiso   1.00
C10    C     0.40556   0.60210   0.05359   0.00000  Uiso   1.00
C11    C     0.49123   0.50337   0.07929   0.00000  Uiso   1.00
C12    C     0.44375   0.38129   0.04971   0.00000  Uiso   1.00
C13    C     0.42408   0.39300   0.95786   0.00000  Uiso   1.00
C14    C     0.49373   0.50466   0.17079   0.00000  Uiso   1.00
C15    C     0.50294   0.50562   0.82775   0.00000  Uiso   1.00
C16    C     0.50420   0.50588   0.75217   0.00000  Uiso   1.00
H7     H     0.31461   0.39803   0.95430   0.00000  Uiso   1.00
H8     H     0.46431   0.31445   0.92180   0.00000  Uiso   1.00
H9     H     0.32733   0.61765   0.93622   0.00000  Uiso   1.00
H10    H     0.29627   0.58443   0.07600   0.00000  Uiso   1.00
H11    H     0.52883   0.32171   0.05139   0.00000  Uiso   1.00
H12    H     0.62272   0.10129   0.48593   0.00000  Uiso   1.00
H13    H     0.37817   0.91130   0.51219   0.00000  Uiso   1.00
C17    C     0.58256   0.86502   0.49030   0.00000  Uiso   1.00
C18    C     0.48368   0.94213   0.50088   0.00000  Uiso   1.00
H14    H     0.31338   0.11500   0.51909   0.00000  Uiso   1.00
C19    C     0.41833   0.14757   0.50782   0.00000  Uiso   1.00
C20    C     0.51721   0.07045   0.49724   0.00000  Uiso   1.00
H15    H     0.68751   0.89759   0.47903   0.00000  Uiso   1.00
H16    H     0.11767   0.43487   0.44523   0.00000  Uiso   1.00
H17    H     0.88323   0.57772   0.55289   0.00000  Uiso   1.00
N1     N     0.85066   0.45790   0.46114   0.00000  Uiso   1.00
C21    C     0.92721   0.51543   0.50558   0.00000  Uiso   1.00
H18    H     0.10257   0.61260   0.58069   0.00000  Uiso   1.00
N2     N     0.15021   0.55462   0.53702   0.00000  Uiso   1.00
C22    C     0.07367   0.49712   0.49256   0.00000  Uiso   1.00
H19    H     0.89830   0.39989   0.41750   0.00000  Uiso   1.00
C23    C     0.32016   0.31785   0.10021   0.00000  Uiso   1.00
C24    C     0.22708   0.36917   0.16260   0.00000  Uiso   1.00
C25    C     0.11745   0.30246   0.20436   0.00000  Uiso   1.00
C26    C     0.09852   0.18444   0.18499   0.00000  Uiso   1.00
C27    C     0.18963   0.13271   0.12356   0.00000  Uiso   1.00
C28    C     0.29927   0.19890   0.08163   0.00000  Uiso   1.00
H20    H     0.23554   0.46073   0.18089   0.00000  Uiso   1.00
H21    H     0.04588   0.34328   0.25265   0.00000  Uiso   1.00
H22    H     0.01245   0.13264   0.21793   0.00000  Uiso   1.00
H23    H     0.17529   0.03996   0.10814   0.00000  Uiso   1.00
H24    H     0.36986   0.15629   0.03371   0.00000  Uiso   1.00
