# Generated by REPEAT Assigner based on pymatgen
data_DB0-m3_o1_o27_f0_pcu.sym.10_sqe
_audit_creation_date              2022-05-24
_audit_creation_method            REPEAT_Assigner
_cell_length_a                    11.047309
_cell_length_b                    9.781971
_cell_length_c                    19.377564
_cell_angle_alpha                 90.000000
_cell_angle_beta                  90.007395
_cell_angle_gamma                 90.000000
_cell_volume                      2094.025784
_symmetry_space_group_name_H-M    P1
_symmetry_Int_Tables_number       1
loop_
    _symmetry_equiv_pos_site_id
    _symmetry_equiv_pos_as_xyz
    1  x,y,z
loop_
    _atom_site_type_symbol
    _atom_site_label
    _atom_site_fract_x
    _atom_site_fract_y
    _atom_site_fract_z
    _atom_type_partial_charge
    O   O1   0.319717  0.618056  0.498223  -0.522032
    O   O2   0.680350  0.383239  0.501642  -0.594122
    O   O3   0.680339  0.618067  0.501800  -0.531028
    O   O4   0.319630  0.383224  0.498325  -0.587438
    C   C1   0.261866  0.500755  0.497924  0.808272
    C   C2   0.738152  0.500751  0.502069  0.824349
    O   O5   0.503343  0.618257  0.397195  -0.567633
    O   O6   0.496913  0.382908  0.602785  -0.463017
    O   O7   0.496768  0.618254  0.602831  -0.583068
    O   O8   0.503018  0.382917  0.397179  -0.465919
    C   C3   0.504200  0.500547  0.364800  0.343235
    C   C4   0.495818  0.500502  0.635199  0.350351
    Zn  Zn1  0.500029  0.655840  0.500011  0.958078
    Zn  Zn2  0.499990  0.345376  0.499982  0.927841
    C   C5   0.062406  0.379554  0.498879  0.281522
    C   C6   0.937491  0.623148  0.500669  0.290799
    C   C7   0.937598  0.379544  0.500717  0.286839
    C   C8   0.062536  0.623151  0.499675  0.267935
    C   C9   0.872733  0.501191  0.501469  -0.453792
    C   C10  0.127283  0.501205  0.498514  -0.435440
    C   C11  0.564226  0.071175  0.547521  0.224842
    C   C12  0.434873  0.929946  0.452869  0.259191
    C   C13  0.435821  0.071114  0.452432  0.248716
    C   C14  0.565228  0.930006  0.547103  0.281796
    C   C15  0.510723  0.621678  0.252878  -0.562167
    C   C16  0.497242  0.378204  0.746832  -0.599352
    C   C17  0.492353  0.621482  0.747205  -0.555442
    C   C18  0.499738  0.378512  0.253123  -0.536020
    H   H1   0.516899  0.718261  0.279608  0.181633
    H   H2   0.498177  0.281577  0.719827  0.184238
    H   H3   0.490247  0.718337  0.720549  0.203078
    H   H4   0.494765  0.281969  0.280057  0.185445
    C   C19  0.509248  0.621963  0.181724  0.686941
    C   C20  0.498401  0.377275  0.818008  0.731096
    C   C21  0.493507  0.621657  0.818350  0.681974
    C   C22  0.498873  0.377850  0.181956  0.667999
    C   C23  0.503177  0.499811  0.145441  -0.872868
    C   C24  0.496751  0.499301  0.854710  -0.886068
    N   N1   0.500028  0.860513  0.500008  -0.230597
    N   N2   0.499995  0.140676  0.499979  -0.158533
    C   C25  0.505241  0.500265  0.289050  0.418014
    C   C26  0.494769  0.500095  0.710959  0.433502
    N   N3   0.547388  0.393176  0.034006  -0.277904
    N   N4   0.452104  0.605397  0.966343  -0.232433
    N   N5   0.545820  0.393039  0.965786  -0.417546
    N   N6   0.453784  0.605657  0.034551  -0.457069
    C   C27  0.498165  0.499145  0.930903  0.960955
    C   C28  0.501479  0.499572  0.069383  1.005948
    O   O9   0.119917  0.256071  0.497151  -0.517749
    H   H5   0.105635  0.222198  0.449712  0.351204
    O   O10  0.879648  0.746650  0.500960  -0.507825
    H   H6   0.875875  0.773677  0.451752  0.344159
    O   O11  0.880072  0.256043  0.501974  -0.516171
    H   H7   0.894500  0.221356  0.549248  0.350434
    O   O12  0.120392  0.746646  0.499777  -0.502955
    H   H8   0.124236  0.773016  0.549074  0.345205
    O   O13  0.518173  0.744183  0.147939  -0.487718
    H   H9   0.436151  0.784487  0.151233  0.315667
    O   O14  0.497441  0.254102  0.851284  -0.485552
    H   H10  0.581934  0.220931  0.848009  0.308213
    O   O15  0.495711  0.744502  0.851906  -0.575919
    H   H11  0.582524  0.769403  0.853781  0.359473
    O   O16  0.488899  0.255479  0.148414  -0.553624
    H   H12  0.400695  0.238080  0.146141  0.351338
    O   O17  0.628553  0.140026  0.596642  -0.430106
    H   H13  0.714129  0.119826  0.585829  0.357381
    O   O18  0.367122  0.861002  0.405263  -0.381194
    H   H14  0.411568  0.872924  0.361330  0.327045
    O   O19  0.371503  0.139896  0.403284  -0.455082
    H   H15  0.285941  0.119357  0.413972  0.365171
    O   O20  0.633116  0.861127  0.594665  -0.375538
    H   H16  0.589219  0.873894  0.638712  0.309041
