# Generated by REPEAT Assigner based on pymatgen
data_DB0-m9_o23_o23_f0_sra.sym.30_sqe
_audit_creation_date              2022-05-24
_audit_creation_method            REPEAT_Assigner
_cell_length_a                    6.327895
_cell_length_b                    20.309705
_cell_length_c                    23.918884
_cell_angle_alpha                 90.000000
_cell_angle_beta                  90.000000
_cell_angle_gamma                 90.000000
_cell_volume                      3073.999432
_symmetry_space_group_name_H-M    P1
_symmetry_Int_Tables_number       1
loop_
    _symmetry_equiv_pos_site_id
    _symmetry_equiv_pos_as_xyz
    1  x,y,z
loop_
    _atom_site_type_symbol
    _atom_site_label
    _atom_site_fract_x
    _atom_site_fract_y
    _atom_site_fract_z
    _atom_type_partial_charge
    O  O1   0.395761  0.799278  0.439489  -0.555401
    O  O2   0.104239  0.200722  0.939489  -0.555397
    O  O3   0.895761  0.700722  0.560511  -0.555327
    O  O4   0.604239  0.299278  0.060511  -0.555343
    O  O5   0.031954  0.828694  0.557244  -0.517546
    O  O6   0.468046  0.171306  0.057244  -0.517547
    O  O7   0.531954  0.671306  0.442756  -0.517524
    O  O8   0.968046  0.328694  0.942756  -0.517529
    C  C1   0.225070  0.830872  0.578419  0.679072
    C  C2   0.274930  0.169128  0.078419  0.679101
    C  C3   0.725070  0.669128  0.421581  0.679133
    C  C4   0.774930  0.330872  0.921581  0.679144
    O  O9   0.031975  0.829014  0.443093  -0.512146
    O  O10  0.468025  0.170986  0.943093  -0.512149
    O  O11  0.531975  0.670986  0.556907  -0.512009
    O  O12  0.968025  0.329014  0.056907  -0.512016
    O  O13  0.895733  0.701066  0.439304  -0.542597
    O  O14  0.604267  0.298934  0.939304  -0.542611
    O  O15  0.395733  0.798934  0.560696  -0.542571
    O  O16  0.104267  0.201066  0.060696  -0.542582
    C  C5   0.225069  0.831315  0.421915  0.718751
    C  C6   0.274931  0.168685  0.921915  0.718752
    C  C7   0.725069  0.668685  0.578086  0.718583
    C  C8   0.774931  0.331315  0.078086  0.718616
    O  O17  0.181989  0.709475  0.499908  -0.342220
    O  O18  0.318011  0.290525  0.999908  -0.342225
    O  O19  0.681989  0.790525  0.500092  -0.342232
    O  O20  0.818011  0.209475  0.000092  -0.342223
    V  V1   0.933396  0.765711  0.500040  1.285072
    V  V2   0.566604  0.234289  0.000040  1.285013
    V  V3   0.433396  0.734289  0.499960  1.284686
    V  V4   0.066604  0.265711  0.999960  1.284923
    C  C9   0.963633  0.541302  0.741986  -0.349914
    C  C10  0.536367  0.458698  0.241986  -0.349916
    C  C11  0.463633  0.958698  0.258014  -0.349865
    C  C12  0.036367  0.041302  0.758014  -0.349868
    C  C13  0.572844  0.556202  0.746338  -0.401451
    C  C14  0.927156  0.443798  0.246338  -0.401523
    C  C15  0.072844  0.943798  0.253662  -0.401584
    C  C16  0.427156  0.056202  0.753662  -0.401523
    C  C17  0.544291  0.502217  0.789419  0.024318
    C  C18  0.955709  0.497783  0.289419  0.024517
    C  C19  0.044291  0.997783  0.210581  0.024375
    C  C20  0.455709  0.002217  0.710581  0.024178
    H  H1   0.427548  0.559493  0.720564  0.091247
    H  H2   0.072452  0.440507  0.220564  0.091261
    H  H3   0.927548  0.940507  0.279436  0.091280
    H  H4   0.572452  0.059493  0.779436  0.091267
    H  H5   0.599923  0.604507  0.766501  0.252523
    H  H6   0.900077  0.395493  0.266501  0.252543
    H  H7   0.099923  0.895493  0.233499  0.252548
    H  H8   0.400077  0.104507  0.733499  0.252537
    H  H9   0.410642  0.470917  0.776876  0.085641
    H  H10  0.089358  0.529083  0.276876  0.085593
    H  H11  0.910642  0.029083  0.223124  0.085622
    H  H12  0.589358  0.970917  0.723124  0.085674
    C  C21  0.746880  0.375870  0.875926  0.031685
    C  C22  0.753120  0.624130  0.375926  0.031621
    C  C23  0.246880  0.124130  0.124074  0.031681
    C  C24  0.253120  0.875870  0.624074  0.031753
    C  C25  0.758618  0.539082  0.708968  0.568340
    C  C26  0.741382  0.460918  0.208968  0.568347
    C  C27  0.258618  0.960918  0.291032  0.568816
    C  C28  0.241382  0.039082  0.791032  0.568793
    C  C29  0.932133  0.504211  0.796501  0.754601
    C  C30  0.567867  0.495789  0.296501  0.754680
    C  C31  0.432133  0.995789  0.203499  0.754599
    C  C32  0.067867  0.004211  0.703499  0.754538
    C  C33  0.740375  0.460056  0.790407  0.462657
    C  C34  0.759625  0.539944  0.290407  0.462372
    C  C35  0.240375  0.039944  0.209593  0.462478
    C  C36  0.259625  0.960056  0.709593  0.462794
    C  C37  0.750793  0.422201  0.735426  -0.206103
    C  C38  0.749207  0.577799  0.235426  -0.206031
    C  C39  0.250793  0.077799  0.264574  -0.206162
    C  C40  0.249207  0.922201  0.764574  -0.206221
    C  C41  0.727682  0.469911  0.687190  -0.140523
    C  C42  0.772317  0.530089  0.187190  -0.140510
    C  C43  0.227682  0.030089  0.312810  -0.140528
    C  C44  0.272317  0.969911  0.812810  -0.140552
    C  C45  0.736472  0.413867  0.837332  -0.457570
    C  C46  0.763528  0.586133  0.337332  -0.457413
    C  C47  0.236472  0.086133  0.162668  -0.457456
    C  C48  0.263528  0.913867  0.662668  -0.457633
    C  C49  0.763077  0.585359  0.662110  -0.296587
    C  C50  0.736923  0.414641  0.162110  -0.296569
    C  C51  0.263077  0.914641  0.337890  -0.297031
    C  C52  0.236923  0.085359  0.837890  -0.297027
    C  C53  0.752962  0.623486  0.623604  -0.091775
    C  C54  0.747038  0.376514  0.123604  -0.091793
    C  C55  0.252962  0.876514  0.376396  -0.091556
    C  C56  0.247038  0.123486  0.876396  -0.091551
    H  H13  0.848065  0.458789  0.654845  0.074530
    H  H14  0.651935  0.541211  0.154845  0.074526
    H  H15  0.348065  0.041211  0.345155  0.074515
    H  H16  0.151935  0.958789  0.845155  0.074523
    H  H17  0.567262  0.465450  0.668911  0.056585
    H  H18  0.932738  0.534550  0.168911  0.056582
    H  H19  0.067262  0.034550  0.331089  0.056573
    H  H20  0.432738  0.965450  0.831089  0.056577
    H  H21  0.903073  0.396176  0.731414  0.116885
    H  H22  0.596927  0.603824  0.231414  0.116871
    H  H23  0.403073  0.103824  0.268586  0.116897
    H  H24  0.096927  0.896176  0.768586  0.116904
    H  H25  0.090218  0.517136  0.717346  0.106606
    H  H26  0.409782  0.482864  0.217346  0.106604
    H  H27  0.590218  0.982864  0.282654  0.106551
    H  H28  0.909782  0.017136  0.782654  0.106551
    N  N1   0.901212  0.550336  0.842215  0.242641
    O  O21  0.028283  0.548841  0.884901  -0.305064
    O  O22  0.753927  0.594751  0.839934  -0.154770
    N  N2   0.598788  0.449664  0.342215  0.242651
    O  O23  0.471717  0.451159  0.384901  -0.305066
    O  O24  0.746073  0.405249  0.339934  -0.154768
    N  N3   0.401212  0.949664  0.157785  0.242660
    O  O25  0.528283  0.951159  0.115099  -0.305072
    O  O26  0.253927  0.905249  0.160066  -0.154777
    N  N4   0.098788  0.050336  0.657785  0.242671
    O  O27  0.971717  0.048841  0.615099  -0.305080
    O  O28  0.246073  0.094751  0.660066  -0.154787
    N  N5   0.115597  0.464138  0.809244  0.014632
    O  O29  0.154674  0.411043  0.780786  -0.276398
    O  O30  0.223541  0.476237  0.854308  -0.037096
    N  N6   0.384403  0.535862  0.309244  0.014642
    O  O31  0.345326  0.588957  0.280786  -0.276335
    O  O32  0.276459  0.523763  0.354308  -0.037035
    N  N7   0.615597  0.035862  0.190756  0.014589
    O  O33  0.654674  0.088957  0.219214  -0.276353
    O  O34  0.723541  0.023763  0.145692  -0.037048
    N  N8   0.884403  0.964138  0.690756  0.014603
    O  O35  0.845326  0.911043  0.719214  -0.276411
    O  O36  0.776459  0.976237  0.645692  -0.037083
    N  N9   0.582040  0.373966  0.732952  0.679091
    O  O37  0.628193  0.311620  0.731402  -0.373058
    O  O38  0.389232  0.392979  0.723502  -0.339878
    N  N10  0.917960  0.626034  0.232952  0.679060
    O  O39  0.871807  0.688380  0.231402  -0.373029
    O  O40  0.110767  0.607021  0.223502  -0.339851
    N  N11  0.082040  0.126034  0.267049  0.679110
    O  O41  0.128193  0.188380  0.268598  -0.373050
    O  O42  0.889233  0.107021  0.276498  -0.339876
    N  N12  0.417960  0.873966  0.767049  0.679144
    O  O43  0.371807  0.811620  0.768598  -0.373077
    O  O44  0.610767  0.892979  0.776498  -0.339895
    N  N13  0.022592  0.609081  0.753123  0.531326
    O  O45  0.203690  0.631277  0.735707  -0.321468
    O  O46  0.889250  0.648818  0.776994  -0.303478
    N  N14  0.477408  0.390919  0.253123  0.531352
    O  O47  0.296310  0.368723  0.235707  -0.321467
    O  O48  0.610750  0.351182  0.276994  -0.303482
    N  N15  0.522592  0.890919  0.246877  0.531383
    O  O49  0.703690  0.868723  0.264293  -0.321498
    O  O50  0.389250  0.851182  0.223006  -0.303512
    N  N16  0.977408  0.109081  0.746877  0.531353
    O  O51  0.796310  0.131277  0.764293  -0.321491
    O  O52  0.110750  0.148818  0.723006  -0.303509
    N  N17  0.504726  0.530289  0.844186  0.201183
    O  O53  0.431628  0.589920  0.848363  -0.237596
    O  O54  0.516574  0.493223  0.888393  -0.214773
    N  N18  0.995274  0.469711  0.344186  0.201158
    O  O55  0.068372  0.410080  0.348363  -0.237599
    O  O56  0.983426  0.506777  0.388393  -0.214753
    N  N19  0.004726  0.969711  0.155814  0.201236
    O  O57  0.931628  0.910080  0.151637  -0.237617
    O  O58  0.016574  0.006777  0.111607  -0.214791
    N  N20  0.495274  0.030289  0.655814  0.201264
    O  O59  0.568372  0.089920  0.651637  -0.237615
    O  O60  0.483426  0.993223  0.611607  -0.214814
