# Generated by REPEAT Assigner based on pymatgen
data_DB0-m2_o16_o29_f0_pcu.sym.33_sqe
_audit_creation_date              2022-05-24
_audit_creation_method            REPEAT_Assigner
_cell_length_a                    12.204924
_cell_length_b                    13.456606
_cell_length_c                    27.501608
_cell_angle_alpha                 78.536926
_cell_angle_beta                  102.502399
_cell_angle_gamma                 116.316057
_cell_volume                      3925.313688
_symmetry_space_group_name_H-M    P1
_symmetry_Int_Tables_number       1
loop_
    _symmetry_equiv_pos_site_id
    _symmetry_equiv_pos_as_xyz
    1  x,y,z
loop_
    _atom_site_type_symbol
    _atom_site_label
    _atom_site_fract_x
    _atom_site_fract_y
    _atom_site_fract_z
    _atom_type_partial_charge
    O   O1   0.973947  0.318923  0.514007  -0.629351
    O   O2   0.807771  0.362914  0.495838  -0.538539
    C   C1   0.854215  0.289124  0.505388  0.764603
    O   O3   0.091107  0.472945  0.578551  -0.592367
    O   O4   0.931263  0.526423  0.562670  -0.601650
    C   C2   0.014360  0.500011  0.593730  0.677238
    Cu  Cu1  0.097630  0.473493  0.508126  0.918402
    Cu  Cu2  0.903344  0.524577  0.490150  0.798571
    O   O5   0.193976  0.635079  0.502855  -0.591528
    O   O6   0.026458  0.679182  0.483305  -0.574163
    O   O7   0.071500  0.473476  0.435544  -0.599013
    O   O8   0.908889  0.523781  0.419754  -0.557898
    C   C3   0.146098  0.708241  0.490877  0.746216
    C   C4   0.987215  0.498550  0.404563  0.653108
    C   C5   0.941246  0.403567  0.825434  0.421125
    O   O9   0.863908  0.315275  0.800912  -0.519564
    N   N1   0.024220  0.492898  0.801146  -0.158987
    C   C6   0.102792  0.582234  0.824920  0.438389
    C   C7   0.928984  0.508588  0.714723  -0.174537
    C   C8   0.927008  0.511148  0.664259  -0.082936
    C   C9   0.113734  0.485244  0.682086  -0.079936
    C   C10  0.116387  0.484352  0.732652  -0.190401
    C   C11  0.023543  0.495386  0.749044  0.283902
    C   C12  0.013647  0.493551  0.900137  0.099719
    C   C13  0.935771  0.402333  0.875294  -0.097244
    C   C14  0.850933  0.311186  0.900048  -0.059637
    C   C15  0.097843  0.583996  0.874556  -0.117987
    C   C16  0.018993  0.498924  0.647591  -0.055277
    H   H1   0.186812  0.475825  0.669982  0.112707
    H   H2   0.190636  0.473693  0.759438  0.135382
    H   H3   0.786906  0.239271  0.881272  0.132575
    C   C17  0.981374  0.498095  0.350767  -0.043285
    C   C18  0.923905  0.399586  0.026547  0.044113
    C   C19  0.067415  0.593573  0.022109  0.046018
    C   C20  0.991986  0.497237  0.048931  0.032958
    C   C21  0.856976  0.302813  0.055987  -0.185545
    C   C22  0.853694  0.304426  0.105388  -0.054355
    C   C23  0.916359  0.402352  0.126771  -0.108545
    C   C24  0.984969  0.498448  0.098628  0.091537
    C   C25  0.047191  0.595580  0.120867  -0.111369
    C   C26  0.040283  0.595344  0.170478  0.433340
    N   N2   0.974292  0.499995  0.197482  -0.149001
    C   C27  0.912821  0.404088  0.176536  0.434151
    C   C28  0.907322  0.542680  0.264954  -0.177131
    C   C29  0.909348  0.541441  0.315485  -0.091674
    C   C30  0.049968  0.455003  0.334975  -0.090343
    C   C31  0.046254  0.454845  0.284599  -0.158579
    C   C32  0.975560  0.499068  0.249479  0.269411
    O   O10  0.847660  0.309972  0.204323  -0.522789
    C   C33  0.925133  0.400561  0.975650  0.049060
    C   C34  0.006745  0.494624  0.949866  0.022755
    C   C35  0.081097  0.589941  0.973308  0.054189
    C   C36  0.845631  0.309928  0.949523  -0.187572
    H   H4   0.855450  0.576067  0.326908  0.109210
    H   H5   0.851642  0.577367  0.237506  0.129566
    H   H6   0.801143  0.227211  0.126800  0.133012
    H   H7   0.808778  0.222074  0.042821  0.133082
    H   H8   0.773857  0.236979  0.965421  0.134369
    O   O11  0.183631  0.671085  0.799677  -0.516589
    C   C37  0.176509  0.675894  0.898654  -0.049947
    H   H9   0.851626  0.521587  0.638273  0.112461
    H   H10  0.856278  0.517628  0.727352  0.126739
    H   H11  0.245402  0.747153  0.879955  0.129831
    C   C38  0.126499  0.691729  0.044811  -0.187904
    C   C39  0.116189  0.692461  0.093462  -0.050099
    O   O12  0.102252  0.689714  0.192458  -0.522027
    C   C40  0.168367  0.679164  0.947288  -0.191974
    H   H12  0.179185  0.771645  0.025675  0.132417
    H   H13  0.106677  0.420224  0.361657  0.112344
    H   H14  0.163878  0.770486  0.109518  0.129730
    H   H15  0.100132  0.420934  0.272620  0.122482
    H   H16  0.235661  0.752740  0.963724  0.136123
    C   C41  0.260784  0.013009  0.447547  0.119598
    H   H17  0.084497  0.877086  0.449730  0.117321
    H   H18  0.439441  0.207889  0.414265  0.121404
    C   C42  0.229845  0.827174  0.483035  -0.158987
    C   C43  0.819146  0.097594  0.539768  -0.186278
    C   C44  0.744377  0.987141  0.551698  0.284877
    C   C45  0.619240  0.946239  0.535388  -0.318424
    C   C46  0.566135  0.014002  0.504573  0.041119
    C   C47  0.643952  0.124979  0.490826  0.226549
    C   C48  0.437481  0.974204  0.487651  0.046232
    C   C49  0.388989  0.047644  0.459482  0.026226
    C   C50  0.469796  0.152533  0.441539  -0.123116
    C   C51  0.594625  0.188770  0.455590  -0.247523
    C   C52  0.355683  0.862596  0.497692  -0.096689
    C   C53  0.183082  0.903286  0.459777  -0.153859
    C   C54  0.770293  0.168586  0.510697  -0.251149
    H   H19  0.386390  0.799459  0.516055  0.086193
    H   H20  0.916045  0.129023  0.555052  0.144987
    H   H21  0.567298  0.860076  0.548002  0.170310
    H   H22  0.651192  0.267644  0.436807  0.131293
    C   C55  0.346159  0.331280  0.572828  -0.285340
    H   H23  0.166712  0.309175  0.579496  0.131194
    H   H24  0.547165  0.302037  0.593604  0.145295
    H   H25  0.346554  0.266583  0.603197  0.139993
    N   N3   0.243470  0.435123  0.521770  -0.109709
    C   C56  0.760288  0.641187  0.437992  0.050759
    C   C57  0.662742  0.670195  0.422301  -0.173995
    C   C58  0.559054  0.616860  0.445366  -0.090816
    C   C59  0.552655  0.533095  0.484941  0.041046
    C   C60  0.654628  0.506622  0.500124  0.206556
    C   C61  0.447428  0.474392  0.509556  -0.109513
    C   C62  0.446946  0.390746  0.548092  0.335968
    C   C63  0.547506  0.366474  0.563011  -0.282648
    C   C64  0.650012  0.424057  0.539804  -0.104857
    C   C65  0.342090  0.496062  0.497473  0.020691
    C   C66  0.244884  0.354894  0.559395  0.021159
    N   N4   0.757203  0.561580  0.476736  -0.150294
    H   H26  0.335083  0.561087  0.468943  0.109522
    H   H27  0.839870  0.683187  0.418578  0.125330
    H   H28  0.485886  0.643216  0.430636  0.123419
    H   H29  0.667038  0.734598  0.391235  0.124871
    H   H30  0.725299  0.401578  0.554382  0.154898
    C   C67  0.198803  0.089501  0.424254  -0.255836
    C   C68  0.135364  0.063511  0.372449  0.281848
    C   C69  0.008410  0.025962  0.361265  -0.213972
    C   C70  0.949858  0.002782  0.313368  -0.069362
    C   C71  0.017718  0.017195  0.276439  -0.133887
    C   C72  0.144293  0.054950  0.287394  -0.069082
    C   C73  0.203082  0.078164  0.335268  -0.246197
    H   H31  0.260724  0.179237  0.423512  0.075865
    H   H32  0.129024  0.075216  0.447869  0.081920
    H   H33  0.953874  0.014337  0.389800  0.102027
    H   H34  0.850585  0.973368  0.304776  0.105143
    H   H35  0.971714  0.999074  0.238894  0.102261
    H   H36  0.197600  0.066551  0.258402  0.105401
    H   H37  0.302351  0.108108  0.343302  0.118212
    C   C74  0.798284  0.911129  0.583276  -0.347688
    C   C75  0.750297  0.871465  0.632308  0.307143
    C   C76  0.680646  0.759216  0.645261  -0.244600
    C   C77  0.637394  0.723021  0.690819  -0.076754
    C   C78  0.663869  0.798645  0.723601  -0.142369
    C   C79  0.733832  0.910569  0.710870  -0.081972
    C   C80  0.777124  0.946965  0.665324  -0.227086
    H   H38  0.900401  0.955239  0.590461  0.091826
    H   H39  0.773754  0.839175  0.562849  0.093536
    H   H40  0.659301  0.699061  0.619898  0.114212
    H   H41  0.582736  0.635214  0.700849  0.107410
    H   H42  0.630005  0.770154  0.759323  0.107625
    H   H43  0.754974  0.969843  0.736648  0.114768
    H   H44  0.832631  0.034785  0.655757  0.114909
