data_DB0-m2_o11_o23_f0_pcu.sym.2_repeat
_audit_creation_date              2024-02-23
_audit_creation_method            'Materials Studio'
_symmetry_space_group_name_H-M    'P1'
_symmetry_Int_Tables_number       1
_symmetry_cell_setting            triclinic
loop_
_symmetry_equiv_pos_as_xyz
  x,y,z
_cell_length_a                    15.8675
_cell_length_b                    11.0421
_cell_length_c                    9.5364
_cell_angle_alpha                 90.0206
_cell_angle_beta                  89.9973
_cell_angle_gamma                 89.9983
loop_
_atom_site_label
_atom_site_type_symbol
_atom_site_fract_x
_atom_site_fract_y
_atom_site_fract_z
_atom_site_U_iso_or_equiv
_atom_site_adp_type
_atom_site_occupancy
O1     O     0.49565   0.32322   0.62275   0.00000  Uiso   1.00
O2     O     0.49435   0.32378   0.38080   0.00000  Uiso   1.00
C1     C     0.49697   0.26700   0.50185   0.00000  Uiso   1.00
O3     O     0.37689   0.50440   0.62677   0.00000  Uiso   1.00
O4     O     0.37496   0.49595   0.38498   0.00000  Uiso   1.00
C2     C     0.33675   0.50019   0.50665   0.00000  Uiso   1.00
Cu1    Cu    0.49953   0.49896   0.64359   0.00000  Uiso   1.00
Cu2    Cu    0.49725   0.50006   0.36292   0.00000  Uiso   1.00
O5     O     0.49738   0.67499   0.62507   0.00000  Uiso   1.00
O6     O     0.49481   0.67594   0.38471   0.00000  Uiso   1.00
O7     O     0.62181   0.50194   0.62098   0.00000  Uiso   1.00
O8     O     0.61986   0.49531   0.38015   0.00000  Uiso   1.00
C3     C     0.49851   0.73218   0.50523   0.00000  Uiso   1.00
C4     C     0.66011   0.49818   0.49975   0.00000  Uiso   1.00
C5     C     0.04500   0.42676   0.62892   0.00000  Uiso   1.00
C6     C     0.04695   0.43546   0.36513   0.00000  Uiso   1.00
C7     C     0.95163   0.41483   0.37649   0.00000  Uiso   1.00
H1     H     0.91937   0.35666   0.66480   0.00000  Uiso   1.00
H2     H     0.06092   0.32930   0.62353   0.00000  Uiso   1.00
H3     H     0.05675   0.50233   0.27992   0.00000  Uiso   1.00
H4     H     0.92243   0.44895   0.27851   0.00000  Uiso   1.00
C8     C     0.75050   0.49642   0.49826   0.00000  Uiso   1.00
C9     C     0.07826   0.49374   0.50115   0.00000  Uiso   1.00
C10    C     0.95037   0.44344   0.63742   0.00000  Uiso   1.00
C11    C     0.91865   0.49186   0.49808   0.00000  Uiso   1.00
C12    C     0.95086   0.62050   0.48112   0.00000  Uiso   1.00
C13    C     0.04516   0.62248   0.50610   0.00000  Uiso   1.00
C14    C     0.82641   0.49451   0.49794   0.00000  Uiso   1.00
C15    C     0.17044   0.49683   0.50569   0.00000  Uiso   1.00
C16    C     0.24635   0.49887   0.50767   0.00000  Uiso   1.00
H5     H     0.05856   0.66262   0.61037   0.00000  Uiso   1.00
H6     H     0.07615   0.67835   0.42435   0.00000  Uiso   1.00
H7     H     0.91942   0.68095   0.55790   0.00000  Uiso   1.00
H8     H     0.07422   0.46467   0.72503   0.00000  Uiso   1.00
H9     H     0.93563   0.50988   0.72116   0.00000  Uiso   1.00
H10    H     0.93689   0.65339   0.37373   0.00000  Uiso   1.00
C17    C     0.49677   0.93183   0.39207   0.00000  Uiso   1.00
C18    C     0.49830   0.86486   0.50927   0.00000  Uiso   1.00
H11    H     0.49588   0.88671   0.29119   0.00000  Uiso   1.00
H12    H     0.50004   0.90505   0.61231   0.00000  Uiso   1.00
C19    C     0.49709   0.06610   0.39056   0.00000  Uiso   1.00
C20    C     0.49567   0.13441   0.50650   0.00000  Uiso   1.00
H13    H     0.49862   0.10995   0.28896   0.00000  Uiso   1.00
H14    H     0.49373   0.09514   0.60996   0.00000  Uiso   1.00
C21    C     0.45022   0.43062   0.92502   0.00000  Uiso   1.00
N1     N     0.50051   0.49779   0.85333   0.00000  Uiso   1.00
H15    H     0.40253   0.37777   0.87142   0.00000  Uiso   1.00
H16    H     0.55288   0.53082   0.90368   0.00000  Uiso   1.00
C22    C     0.45708   0.42054   0.07963   0.00000  Uiso   1.00
N2     N     0.49499   0.50154   0.15319   0.00000  Uiso   1.00
H17    H     0.42795   0.34379   0.13114   0.00000  Uiso   1.00
H18    H     0.50887   0.58185   0.10413   0.00000  Uiso   1.00
C23    C     0.09744   0.32325   0.32245   0.00000  Uiso   1.00
H19    H     0.10155   0.25568   0.40793   0.00000  Uiso   1.00
H20    H     0.06931   0.28152   0.22768   0.00000  Uiso   1.00
H21    H     0.16227   0.34967   0.29169   0.00000  Uiso   1.00
C24    C     0.92597   0.28153   0.39083   0.00000  Uiso   1.00
H22    H     0.93536   0.23391   0.28971   0.00000  Uiso   1.00
H23    H     0.96157   0.23398   0.47402   0.00000  Uiso   1.00
H24    H     0.85794   0.27378   0.41521   0.00000  Uiso   1.00
