data_DB0-m2_o11_o29_f0_pcu.sym.15_repeat
_audit_creation_date              2024-02-23
_audit_creation_method            'Materials Studio'
_symmetry_space_group_name_H-M    'P1'
_symmetry_Int_Tables_number       1
_symmetry_cell_setting            triclinic
loop_
_symmetry_equiv_pos_as_xyz
  x,y,z
_cell_length_a                    27.5226
_cell_length_b                    10.9908
_cell_length_c                    9.5244
_cell_angle_alpha                 90.0205
_cell_angle_beta                  90.0156
_cell_angle_gamma                 89.9936
loop_
_atom_site_label
_atom_site_type_symbol
_atom_site_fract_x
_atom_site_fract_y
_atom_site_fract_z
_atom_site_U_iso_or_equiv
_atom_site_adp_type
_atom_site_occupancy
O1     O     0.50823   0.32517   0.61759   0.00000  Uiso   1.00
O2     O     0.50537   0.32580   0.37578   0.00000  Uiso   1.00
C1     C     0.50987   0.26918   0.49639   0.00000  Uiso   1.00
O3     O     0.43311   0.48075   0.62314   0.00000  Uiso   1.00
O4     O     0.43093   0.49276   0.38120   0.00000  Uiso   1.00
C2     C     0.40932   0.48226   0.50348   0.00000  Uiso   1.00
Cu1    Cu    0.50340   0.50144   0.63851   0.00000  Uiso   1.00
Cu2    Cu    0.50130   0.50258   0.35771   0.00000  Uiso   1.00
O5     O     0.49492   0.67711   0.62021   0.00000  Uiso   1.00
O6     O     0.49415   0.67837   0.37934   0.00000  Uiso   1.00
O7     O     0.57368   0.51363   0.61413   0.00000  Uiso   1.00
O8     O     0.57168   0.52075   0.37386   0.00000  Uiso   1.00
C3     C     0.49317   0.73479   0.50021   0.00000  Uiso   1.00
C4     C     0.59548   0.52169   0.49268   0.00000  Uiso   1.00
C5     C     0.17793   0.39128   0.44045   0.00000  Uiso   1.00
O9     O     0.20150   0.30118   0.37363   0.00000  Uiso   1.00
N1     N     0.20345   0.47530   0.51244   0.00000  Uiso   1.00
C6     C     0.18026   0.56453   0.58264   0.00000  Uiso   1.00
C7     C     0.27992   0.47816   0.38448   0.00000  Uiso   1.00
C8     C     0.32998   0.47970   0.38215   0.00000  Uiso   1.00
C9     C     0.33143   0.46763   0.63246   0.00000  Uiso   1.00
C10    C     0.28130   0.46613   0.63446   0.00000  Uiso   1.00
C11    C     0.25532   0.47217   0.51055   0.00000  Uiso   1.00
C12    C     0.10329   0.48693   0.50728   0.00000  Uiso   1.00
C13    C     0.12769   0.39612   0.43709   0.00000  Uiso   1.00
C14    C     0.10182   0.31120   0.36224   0.00000  Uiso   1.00
C15    C     0.13004   0.57127   0.58097   0.00000  Uiso   1.00
C16    C     0.35608   0.47523   0.50620   0.00000  Uiso   1.00
H1     H     0.35087   0.46410   0.73097   0.00000  Uiso   1.00
H2     H     0.26250   0.46021   0.73386   0.00000  Uiso   1.00
H3     H     0.11994   0.24014   0.30388   0.00000  Uiso   1.00
C17    C     0.64873   0.52835   0.48998   0.00000  Uiso   1.00
C18    C     0.97557   0.40877   0.43398   0.00000  Uiso   1.00
C19    C     0.97842   0.59885   0.56044   0.00000  Uiso   1.00
C20    C     0.95198   0.50724   0.49507   0.00000  Uiso   1.00
C21    C     0.94737   0.31547   0.37735   0.00000  Uiso   1.00
C22    C     0.89760   0.32267   0.37570   0.00000  Uiso   1.00
C23    C     0.87443   0.42238   0.43109   0.00000  Uiso   1.00
C24    C     0.90146   0.51396   0.49119   0.00000  Uiso   1.00
C25    C     0.87734   0.61208   0.54784   0.00000  Uiso   1.00
C26    C     0.82708   0.61713   0.54434   0.00000  Uiso   1.00
N2     N     0.80133   0.52610   0.48571   0.00000  Uiso   1.00
C27    C     0.82422   0.42945   0.42921   0.00000  Uiso   1.00
C28    C     0.72470   0.53592   0.61250   0.00000  Uiso   1.00
C29    C     0.67461   0.53446   0.61429   0.00000  Uiso   1.00
C30    C     0.67359   0.52471   0.36383   0.00000  Uiso   1.00
C31    C     0.72372   0.52515   0.36241   0.00000  Uiso   1.00
C32    C     0.74948   0.53026   0.48671   0.00000  Uiso   1.00
O10    O     0.79797   0.33791   0.37440   0.00000  Uiso   1.00
C33    C     0.02647   0.40514   0.43205   0.00000  Uiso   1.00
C34    C     0.05278   0.49356   0.50344   0.00000  Uiso   1.00
C35    C     0.02905   0.58865   0.57086   0.00000  Uiso   1.00
C36    C     0.05201   0.31555   0.35920   0.00000  Uiso   1.00
H4     H     0.65614   0.53689   0.71435   0.00000  Uiso   1.00
H5     H     0.74447   0.53818   0.71060   0.00000  Uiso   1.00
H6     H     0.87736   0.24807   0.33055   0.00000  Uiso   1.00
H7     H     0.96216   0.23238   0.33619   0.00000  Uiso   1.00
H8     H     0.03501   0.24798   0.29418   0.00000  Uiso   1.00
O11    O     0.20620   0.64969   0.65075   0.00000  Uiso   1.00
C37    C     0.10652   0.66220   0.65284   0.00000  Uiso   1.00
H9     H     0.34816   0.48630   0.28193   0.00000  Uiso   1.00
H10    H     0.26007   0.48483   0.28681   0.00000  Uiso   1.00
H11    H     0.12642   0.72825   0.71414   0.00000  Uiso   1.00
C38    C     0.95332   0.69932   0.61278   0.00000  Uiso   1.00
C39    C     0.90355   0.70538   0.60670   0.00000  Uiso   1.00
O12    O     0.80371   0.71404   0.59770   0.00000  Uiso   1.00
C40    C     0.05680   0.67081   0.64846   0.00000  Uiso   1.00
H12    H     0.97077   0.77799   0.65675   0.00000  Uiso   1.00
H13    H     0.65429   0.51946   0.26521   0.00000  Uiso   1.00
H14    H     0.88577   0.78494   0.64913   0.00000  Uiso   1.00
H15    H     0.74275   0.52141   0.26323   0.00000  Uiso   1.00
H16    H     0.04152   0.74233   0.71138   0.00000  Uiso   1.00
C41    C     0.50174   0.93429   0.39532   0.00000  Uiso   1.00
C42    C     0.48445   0.86659   0.50190   0.00000  Uiso   1.00
H17    H     0.51916   0.88870   0.30791   0.00000  Uiso   1.00
C43    C     0.50006   0.06832   0.38899   0.00000  Uiso   1.00
C44    C     0.51285   0.13621   0.49913   0.00000  Uiso   1.00
H18    H     0.49173   0.11121   0.28944   0.00000  Uiso   1.00
H19    H     0.52377   0.09292   0.59632   0.00000  Uiso   1.00
C45    C     0.47793   0.42629   0.91965   0.00000  Uiso   1.00
N3     N     0.50489   0.49922   0.84849   0.00000  Uiso   1.00
H20    H     0.45194   0.36875   0.86589   0.00000  Uiso   1.00
H21    H     0.53448   0.53501   0.89970   0.00000  Uiso   1.00
C46    C     0.48286   0.41570   0.07395   0.00000  Uiso   1.00
N4     N     0.49973   0.50408   0.14770   0.00000  Uiso   1.00
H22    H     0.47055   0.33325   0.12500   0.00000  Uiso   1.00
H23    H     0.50240   0.58669   0.09784   0.00000  Uiso   1.00
C47    C     0.45340   0.91724   0.61843   0.00000  Uiso   1.00
C48    C     0.40585   0.84762   0.62739   0.00000  Uiso   1.00
H24    H     0.39047   0.83603   0.52057   0.00000  Uiso   1.00
H25    H     0.41123   0.75753   0.67703   0.00000  Uiso   1.00
H26    H     0.37988   0.90019   0.69254   0.00000  Uiso   1.00
H27    H     0.47294   0.90975   0.71990   0.00000  Uiso   1.00
H28    H     0.44308   0.01302   0.60068   0.00000  Uiso   1.00
