# Generated by REPEAT Assigner based on pymatgen
data_DB0-m2_o6_o16_f0_pcu.sym.85_sqe
_audit_creation_date              2022-05-24
_audit_creation_method            REPEAT_Assigner
_cell_length_a                    13.540573
_cell_length_b                    14.604077
_cell_length_c                    16.026043
_cell_angle_alpha                 90.008725
_cell_angle_beta                  89.983375
_cell_angle_gamma                 73.678643
_cell_volume                      3041.397470
_symmetry_space_group_name_H-M    P1
_symmetry_Int_Tables_number       1
loop_
    _symmetry_equiv_pos_site_id
    _symmetry_equiv_pos_as_xyz
    1  x,y,z
loop_
    _atom_site_type_symbol
    _atom_site_label
    _atom_site_fract_x
    _atom_site_fract_y
    _atom_site_fract_z
    _atom_type_partial_charge
    O   O1   0.501506  0.426583  0.622887  -0.596557
    O   O2   0.498890  0.584785  0.621503  -0.612702
    C   C1   0.500071  0.506104  0.661113  0.844223
    O   O3   0.639107  0.393788  0.497921  -0.545925
    O   O4   0.632906  0.552320  0.488421  -0.536295
    C   C2   0.684791  0.461795  0.491361  0.723294
    Cu  Cu1  0.490059  0.415818  0.502046  0.913483
    Cu  Cu2  0.483775  0.600483  0.500731  0.906837
    O   O5   0.484356  0.429424  0.380774  -0.598188
    O   O6   0.476055  0.588761  0.379690  -0.591669
    O   O7   0.340668  0.463883  0.512067  -0.562991
    O   O8   0.334878  0.622524  0.507524  -0.539400
    C   C3   0.474796  0.509972  0.341476  0.818298
    C   C4   0.289539  0.554437  0.513662  0.603724
    C   C5   0.024381  0.676095  0.589264  -0.400623
    H   H1   0.836969  0.685787  0.631547  0.138772
    H   H2   0.985023  0.735830  0.627908  0.175309
    C   C6   0.177688  0.579281  0.526858  -0.095120
    C   C7   0.843558  0.355211  0.433045  0.418989
    C   C8   0.946205  0.335300  0.412681  -0.304546
    C   C9   0.004015  0.393230  0.439167  -0.098207
    C   C10  0.961851  0.471939  0.489808  -0.010505
    C   C11  0.858236  0.491463  0.511945  0.245662
    C   C12  0.019873  0.532526  0.517635  0.024454
    C   C13  0.972201  0.611902  0.564835  0.253659
    C   C14  0.872443  0.626608  0.590892  -0.194465
    C   C15  0.817032  0.565748  0.566990  -0.267685
    C   C16  0.124669  0.515887  0.501214  -0.218055
    C   C17  0.126619  0.661773  0.568719  0.349967
    C   C18  0.797865  0.435208  0.480627  -0.353050
    H   H3   0.169015  0.453486  0.468982  0.146337
    H   H4   0.081855  0.374000  0.416766  0.133223
    H   H5   0.981917  0.277054  0.371220  0.169178
    H   H6   0.741567  0.578122  0.593954  0.170523
    H   H7   0.484484  0.365840  0.921047  0.174205
    C   C19  0.487342  0.424766  0.042435  0.312551
    C   C20  0.492428  0.504245  0.087561  -0.017963
    C   C21  0.505497  0.582969  0.046427  -0.228852
    H   H8   0.509605  0.644840  0.081766  0.176825
    C   C22  0.514449  0.583148  0.960704  0.306090
    C   C23  0.505854  0.504899  0.915420  0.003440
    C   C24  0.491750  0.426572  0.956519  -0.242026
    C   C25  0.482772  0.507010  0.176897  0.093802
    C   C26  0.505383  0.505623  0.825759  0.097672
    C   C27  0.503903  0.505899  0.750577  -0.333976
    C   C28  0.477274  0.508777  0.251966  -0.318009
    C   C29  0.447619  0.067276  0.435069  -0.306259
    H   H9   0.420368  0.114436  0.382895  0.203870
    C   C30  0.490676  0.101307  0.502046  0.026924
    C   C31  0.531538  0.042377  0.568135  0.333514
    C   C32  0.526704  0.948881  0.567500  -0.345180
    H   H10  0.553972  0.901697  0.619657  0.217747
    C   C33  0.483609  0.914869  0.500541  0.081255
    C   C34  0.442763  0.973786  0.434453  0.305082
    C   C35  0.493466  0.198819  0.502514  0.243728
    C   C36  0.480716  0.817392  0.500097  0.208559
    N   N1   0.479508  0.738488  0.499942  -0.229620
    N   N2   0.494587  0.277749  0.502682  -0.244021
    O   O9   0.179161  0.722218  0.595596  -0.354841
    C   C37  0.139270  0.817886  0.600963  0.781561
    O   O10  0.060611  0.858517  0.563744  -0.518155
    C   C38  0.197158  0.875148  0.646580  -0.518454
    H   H11  0.267987  0.826716  0.673836  0.112439
    H   H12  0.148302  0.916111  0.697167  0.147882
    H   H13  0.218375  0.925196  0.602670  0.164618
    O   O11  0.473922  0.346910  0.080553  -0.406084
    C   C39  0.545139  0.292907  0.132615  0.822211
    O   O12  0.629262  0.307192  0.139559  -0.524540
    C   C40  0.522093  0.213427  0.179664  -0.522119
    H   H14  0.443358  0.210208  0.164043  0.117092
    H   H15  0.527083  0.225933  0.247590  0.163531
    H   H16  0.578615  0.145024  0.162447  0.152108
    O   O13  0.526975  0.661365  0.922576  -0.419265
    C   C41  0.610863  0.658778  0.876096  0.878761
    O   O14  0.684046  0.587447  0.875235  -0.551273
    C   C42  0.615651  0.744740  0.828124  -0.623009
    H   H17  0.543211  0.802461  0.837376  0.140410
    H   H18  0.625676  0.726695  0.760842  0.196249
    H   H19  0.681609  0.769076  0.850397  0.172359
    O   O15  0.402906  0.937203  0.369460  -0.360199
    C   C43  0.323590  0.987153  0.321882  0.793548
    O   O16  0.265108  0.061594  0.347047  -0.503186
    C   C44  0.301718  0.946260  0.241175  -0.554941
    H   H20  0.360386  0.877215  0.229937  0.138162
    H   H21  0.304232  0.996445  0.189821  0.163449
    H   H22  0.224269  0.934663  0.243673  0.193158
    O   O17  0.571367  0.078943  0.633157  -0.369589
    C   C45  0.650488  0.028908  0.680884  0.799996
    O   O18  0.709055  0.954489  0.655756  -0.501087
    C   C46  0.672020  0.069642  0.761768  -0.580050
    H   H23  0.613307  0.138665  0.772984  0.152598
    H   H24  0.749482  0.081238  0.759568  0.201642
    H   H25  0.669287  0.019345  0.812980  0.166878
    O   O19  0.785441  0.302249  0.400965  -0.341673
    C   C47  0.818394  0.206614  0.390525  0.743204
    O   O20  0.893995  0.158752  0.427593  -0.516210
    C   C48  0.756351  0.158254  0.339136  -0.469892
    H   H26  0.752675  0.184536  0.273982  0.129543
    H   H27  0.677408  0.174102  0.365080  0.140026
    H   H28  0.792773  0.080100  0.340087  0.133836
