data_DB0-m2_o11_o29_f0_pcu.sym.2_repeat
_audit_creation_date              2024-02-23
_audit_creation_method            'Materials Studio'
_symmetry_space_group_name_H-M    'P1'
_symmetry_Int_Tables_number       1
_symmetry_cell_setting            triclinic
loop_
_symmetry_equiv_pos_as_xyz
  x,y,z
_cell_length_a                    27.5357
_cell_length_b                    11.0154
_cell_length_c                    9.5723
_cell_angle_alpha                 90.0204
_cell_angle_beta                  90.0156
_cell_angle_gamma                 89.9936
loop_
_atom_site_label
_atom_site_type_symbol
_atom_site_fract_x
_atom_site_fract_y
_atom_site_fract_z
_atom_site_U_iso_or_equiv
_atom_site_adp_type
_atom_site_occupancy
O1     O     0.49471   0.32083   0.62461   0.00000  Uiso   1.00
O2     O     0.49411   0.31770   0.38478   0.00000  Uiso   1.00
C1     C     0.49372   0.26228   0.50567   0.00000  Uiso   1.00
O3     O     0.43160   0.50635   0.62597   0.00000  Uiso   1.00
O4     O     0.42989   0.50945   0.38518   0.00000  Uiso   1.00
C2     C     0.40803   0.51260   0.50711   0.00000  Uiso   1.00
Cu1    Cu    0.50224   0.49656   0.64045   0.00000  Uiso   1.00
Cu2    Cu    0.50002   0.49315   0.36090   0.00000  Uiso   1.00
O5     O     0.50620   0.67226   0.61706   0.00000  Uiso   1.00
O6     O     0.50317   0.66985   0.37684   0.00000  Uiso   1.00
O7     O     0.57222   0.47775   0.61574   0.00000  Uiso   1.00
O8     O     0.57069   0.48604   0.37634   0.00000  Uiso   1.00
C3     C     0.50764   0.72730   0.49623   0.00000  Uiso   1.00
C4     C     0.59425   0.47826   0.49473   0.00000  Uiso   1.00
C5     C     0.17892   0.42172   0.56708   0.00000  Uiso   1.00
O9     O     0.20480   0.32654   0.61373   0.00000  Uiso   1.00
N1     N     0.20213   0.52053   0.51771   0.00000  Uiso   1.00
C6     C     0.17654   0.61490   0.46653   0.00000  Uiso   1.00
C7     C     0.28004   0.50573   0.63804   0.00000  Uiso   1.00
C8     C     0.33013   0.50393   0.63547   0.00000  Uiso   1.00
C9     C     0.32870   0.54187   0.39013   0.00000  Uiso   1.00
C10    C     0.27865   0.54290   0.39272   0.00000  Uiso   1.00
C11    C     0.25401   0.52379   0.51640   0.00000  Uiso   1.00
C12    C     0.10191   0.51085   0.51268   0.00000  Uiso   1.00
C13    C     0.12871   0.41611   0.56583   0.00000  Uiso   1.00
C14    C     0.10525   0.31582   0.61767   0.00000  Uiso   1.00
C15    C     0.12630   0.61086   0.46286   0.00000  Uiso   1.00
C16    C     0.35479   0.52032   0.51100   0.00000  Uiso   1.00
H1     H     0.34691   0.55813   0.29220   0.00000  Uiso   1.00
H2     H     0.25888   0.55634   0.29638   0.00000  Uiso   1.00
H3     H     0.12519   0.24099   0.66271   0.00000  Uiso   1.00
C17    C     0.64747   0.47321   0.49229   0.00000  Uiso   1.00
C18    C     0.97693   0.39460   0.54710   0.00000  Uiso   1.00
C19    C     0.97416   0.59962   0.45864   0.00000  Uiso   1.00
C20    C     0.95053   0.49434   0.50087   0.00000  Uiso   1.00
C21    C     0.95169   0.28897   0.58145   0.00000  Uiso   1.00
C22    C     0.90192   0.28468   0.57645   0.00000  Uiso   1.00
C23    C     0.87582   0.38479   0.53584   0.00000  Uiso   1.00
C24    C     0.90000   0.48877   0.49698   0.00000  Uiso   1.00
C25    C     0.87301   0.58722   0.45448   0.00000  Uiso   1.00
C26    C     0.82282   0.58076   0.45176   0.00000  Uiso   1.00
N2     N     0.79991   0.47825   0.49081   0.00000  Uiso   1.00
C27    C     0.82558   0.38075   0.53256   0.00000  Uiso   1.00
C28    C     0.72260   0.49224   0.36821   0.00000  Uiso   1.00
C29    C     0.67251   0.49118   0.36876   0.00000  Uiso   1.00
C30    C     0.67313   0.45403   0.61456   0.00000  Uiso   1.00
C31    C     0.72319   0.45369   0.61339   0.00000  Uiso   1.00
C32    C     0.74812   0.47390   0.49055   0.00000  Uiso   1.00
O10    O     0.80214   0.27852   0.56881   0.00000  Uiso   1.00
C33    C     0.02765   0.40212   0.55666   0.00000  Uiso   1.00
C34    C     0.05137   0.50547   0.50899   0.00000  Uiso   1.00
C35    C     0.02506   0.60339   0.45743   0.00000  Uiso   1.00
C36    C     0.05552   0.30892   0.61407   0.00000  Uiso   1.00
H4     H     0.65336   0.50672   0.27186   0.00000  Uiso   1.00
H5     H     0.74180   0.50721   0.27122   0.00000  Uiso   1.00
H6     H     0.88406   0.20091   0.60472   0.00000  Uiso   1.00
H7     H     0.96891   0.20521   0.61025   0.00000  Uiso   1.00
H8     H     0.04047   0.22885   0.66103   0.00000  Uiso   1.00
O11    O     0.20000   0.71438   0.42130   0.00000  Uiso   1.00
C37    C     0.10043   0.70621   0.40820   0.00000  Uiso   1.00
H9     H     0.34954   0.48770   0.73178   0.00000  Uiso   1.00
H10    H     0.26132   0.49265   0.73615   0.00000  Uiso   1.00
H11    H     0.11851   0.78513   0.36602   0.00000  Uiso   1.00
C38    C     0.94596   0.69919   0.41955   0.00000  Uiso   1.00
C39    C     0.89622   0.69259   0.41711   0.00000  Uiso   1.00
O12    O     0.79659   0.67814   0.41355   0.00000  Uiso   1.00
C40    C     0.05064   0.70261   0.40474   0.00000  Uiso   1.00
H12    H     0.96066   0.78634   0.39262   0.00000  Uiso   1.00
H13    H     0.65450   0.43972   0.71252   0.00000  Uiso   1.00
H14    H     0.87603   0.77216   0.38579   0.00000  Uiso   1.00
H15    H     0.74281   0.44042   0.71004   0.00000  Uiso   1.00
H16    H     0.03377   0.77959   0.35605   0.00000  Uiso   1.00
C41    C     0.49744   0.92897   0.39172   0.00000  Uiso   1.00
C42    C     0.51145   0.85979   0.49877   0.00000  Uiso   1.00
H17    H     0.48653   0.88683   0.29433   0.00000  Uiso   1.00
H18    H     0.52551   0.90083   0.59302   0.00000  Uiso   1.00
C43    C     0.50025   0.06278   0.39793   0.00000  Uiso   1.00
C44    C     0.48732   0.13002   0.50928   0.00000  Uiso   1.00
H19    H     0.51330   0.10834   0.30495   0.00000  Uiso   1.00
C45    C     0.47711   0.42294   0.91708   0.00000  Uiso   1.00
N3     N     0.50382   0.49847   0.84944   0.00000  Uiso   1.00
H20    H     0.45783   0.35354   0.85942   0.00000  Uiso   1.00
H21    H     0.51481   0.57542   0.90111   0.00000  Uiso   1.00
C46    C     0.46871   0.43081   0.07008   0.00000  Uiso   1.00
N4     N     0.49816   0.48885   0.15173   0.00000  Uiso   1.00
H22    H     0.53018   0.51608   0.10674   0.00000  Uiso   1.00
C47    C     0.46233   0.07765   0.63471   0.00000  Uiso   1.00
H23    H     0.43706   0.14611   0.67863   0.00000  Uiso   1.00
H24    H     0.43996   0.99775   0.60631   0.00000  Uiso   1.00
H25    H     0.48931   0.05423   0.71637   0.00000  Uiso   1.00
C48    C     0.42420   0.36893   0.12431   0.00000  Uiso   1.00
H26    H     0.40622   0.31833   0.03866   0.00000  Uiso   1.00
H27    H     0.43303   0.30290   0.20710   0.00000  Uiso   1.00
H28    H     0.39795   0.43731   0.16154   0.00000  Uiso   1.00
