# Generated by REPEAT Assigner based on pymatgen
data_DB0-m2_o7_o25_f0_pcu.sym.11
_audit_creation_date              2022-05-24
_audit_creation_method            REPEAT_Assigner
_cell_length_a                    15.921599
_cell_length_b                    17.716350
_cell_length_c                    16.224172
_cell_angle_alpha                 89.974985
_cell_angle_beta                  90.003326
_cell_angle_gamma                 90.005194
_cell_volume                      4576.394109
_symmetry_space_group_name_H-M    P1
_symmetry_Int_Tables_number       1
loop_
    _symmetry_equiv_pos_site_id
    _symmetry_equiv_pos_as_xyz
    1  x,y,z
loop_
    _atom_site_type_symbol
    _atom_site_label
    _atom_site_fract_x
    _atom_site_fract_y
    _atom_site_fract_z
    _atom_type_partial_charge
    O   O1   0.495072  0.392021  0.572798  -0.494311
    O   O2   0.503317  0.609298  0.427216  -0.506025
    O   O3   0.501744  0.389960  0.431457  -0.571936
    O   O4   0.496485  0.611352  0.568547  -0.588676
    C   C1   0.498132  0.355317  0.502836  0.752868
    C   C2   0.500217  0.646006  0.497165  0.783943
    O   O5   0.376651  0.499650  0.570347  -0.657883
    O   O6   0.621685  0.501583  0.429644  -0.648413
    O   O7   0.377592  0.503003  0.428583  -0.615348
    O   O8   0.620761  0.498378  0.571420  -0.608300
    C   C3   0.337959  0.501482  0.499242  0.834512
    C   C4   0.660333  0.499677  0.500756  0.818596
    Cu  Cu1  0.498610  0.501669  0.582381  0.796624
    Cu  Cu2  0.499712  0.499548  0.417618  0.771606
    C   C5   0.972929  0.438613  0.540485  -0.230751
    C   C6   0.025165  0.561506  0.459459  -0.240733
    C   C7   0.027217  0.441317  0.464251  0.352789
    C   C8   0.970885  0.558778  0.535671  0.361902
    H   H1   0.950662  0.386443  0.571325  0.084687
    H   H2   0.047188  0.613735  0.428611  0.086687
    H   H3   0.947800  0.494284  0.358026  0.077329
    H   H4   0.049969  0.505888  0.642012  0.079863
    C   C9   0.247829  0.501824  0.498892  -0.186144
    C   C10  0.750370  0.498920  0.501059  -0.179992
    C   C11  0.026681  0.501692  0.577779  -0.237631
    C   C12  0.971423  0.498431  0.422167  -0.226106
    C   C13  0.080330  0.502539  0.500429  0.500012
    C   C14  0.917831  0.497573  0.499495  0.492018
    C   C15  0.172164  0.502133  0.499297  -0.278087
    C   C16  0.826017  0.498286  0.500633  -0.280465
    C   C17  0.495460  0.845898  0.571049  -0.243139
    C   C18  0.504639  0.155485  0.429009  -0.234910
    H   H5   0.491171  0.875716  0.629012  0.158523
    H   H6   0.509467  0.125654  0.371101  0.157233
    C   C19  0.495428  0.768106  0.570072  -0.044294
    C   C20  0.503990  0.233288  0.429957  -0.057317
    H   H7   0.490951  0.738436  0.628082  0.117984
    H   H8   0.508417  0.263033  0.371977  0.120378
    C   C21  0.500862  0.729202  0.496203  -0.350475
    C   C22  0.498041  0.272145  0.503812  -0.326322
    C   C23  0.506630  0.769936  0.423030  0.349364
    C   C24  0.492469  0.231410  0.576982  0.332472
    C   C25  0.506383  0.847786  0.424671  0.227028
    C   C26  0.493368  0.153572  0.575372  0.237391
    C   C27  0.500807  0.885717  0.498443  0.077551
    C   C28  0.499393  0.115643  0.501618  0.069096
    C   C29  0.500466  0.966679  0.499593  -0.091286
    C   C30  0.500031  0.034672  0.500471  -0.089793
    C   C31  0.553875  0.547337  0.831905  -0.271454
    C   C32  0.449742  0.448793  0.168281  -0.262909
    H   H9   0.596704  0.583770  0.864908  0.150669
    H   H10  0.408107  0.411199  0.135365  0.149555
    C   C33  0.552040  0.548139  0.746880  0.026495
    C   C34  0.449997  0.449681  0.253302  0.010489
    H   H11  0.593829  0.585232  0.713462  0.121922
    H   H12  0.408506  0.412465  0.286920  0.125400
    N   N1   0.497911  0.503658  0.705596  -0.026746
    N   N2   0.500428  0.497728  0.294413  -0.000585
    C   C35  0.447192  0.455497  0.746450  0.019351
    C   C36  0.554001  0.543115  0.253386  0.003407
    H   H13  0.405445  0.418668  0.712712  0.139295
    H   H14  0.595512  0.580346  0.286896  0.144892
    C   C37  0.447690  0.453215  0.831335  -0.273441
    C   C38  0.555379  0.543430  0.168467  -0.266064
    H   H15  0.406444  0.414997  0.863858  0.148668
    H   H16  0.597569  0.580724  0.135815  0.147732
    C   C39  0.501041  0.499731  0.874462  0.364817
    C   C40  0.502446  0.496353  0.125534  0.355410
    C   C41  0.501781  0.498199  0.962875  -0.172024
    C   C42  0.502135  0.497095  0.037119  -0.165785
    O   O9   0.060518  0.377829  0.425498  -0.577448
    H   H17  0.010727  0.348338  0.408213  0.343575
    O   O10  0.937154  0.622158  0.574291  -0.577829
    H   H18  0.986680  0.651876  0.591799  0.343450
    O   O11  0.512942  0.734509  0.348480  -0.526310
    H   H19  0.574058  0.732300  0.337424  0.357049
    O   O12  0.485851  0.266827  0.651518  -0.522871
    H   H20  0.424770  0.268083  0.662909  0.358429
    O   O13  0.511786  0.887447  0.352628  -0.523745
    H   H21  0.452880  0.892714  0.333930  0.365142
    O   O14  0.488169  0.113909  0.647431  -0.525640
    H   H22  0.547151  0.108283  0.665778  0.364984
