# Generated by REPEAT Assigner based on pymatgen
data_DB0-m3_o7_o14_f0_pcu.sym.20_sqe
_audit_creation_date              2022-05-24
_audit_creation_method            REPEAT_Assigner
_cell_length_a                    17.774218
_cell_length_b                    16.586401
_cell_length_c                    11.001565
_cell_angle_alpha                 90.000000
_cell_angle_beta                  90.000567
_cell_angle_gamma                 90.000000
_cell_volume                      3243.374753
_symmetry_space_group_name_H-M    P1
_symmetry_Int_Tables_number       1
loop_
    _symmetry_equiv_pos_site_id
    _symmetry_equiv_pos_as_xyz
    1  x,y,z
loop_
    _atom_site_type_symbol
    _atom_site_label
    _atom_site_fract_x
    _atom_site_fract_y
    _atom_site_fract_z
    _atom_type_partial_charge
    O   O1   0.387996  0.568910  0.492030  -0.659691
    O   O2   0.612006  0.568910  0.507972  -0.659715
    O   O3   0.388018  0.430225  0.489780  -0.647177
    O   O4   0.611984  0.430226  0.510219  -0.647169
    C   C1   0.352717  0.499581  0.488351  0.686082
    C   C2   0.647285  0.499581  0.511650  0.686117
    O   O5   0.504901  0.568594  0.319512  -0.577374
    O   O6   0.495102  0.568593  0.680491  -0.577249
    O   O7   0.506522  0.430386  0.318791  -0.665471
    O   O8   0.493480  0.430384  0.681208  -0.665474
    C   C3   0.508953  0.500129  0.261196  0.746610
    C   C4   0.491048  0.500127  0.738804  0.746472
    Zn  Zn1  0.500001  0.590909  0.500001  0.976551
    Zn  Zn2  0.500001  0.408164  0.499999  1.087826
    H   H1   0.503931  0.373575  0.109537  0.085157
    H   H2   0.496093  0.373573  0.890464  0.085201
    C   C5   0.535359  0.647706  0.109980  -0.237090
    C   C6   0.464612  0.647696  0.890016  -0.236225
    H   H3   0.569007  0.650861  0.191245  0.125641
    H   H4   0.430965  0.650842  0.808749  0.125399
    C   C7   0.520031  0.719527  0.053035  -0.087438
    C   C8   0.479925  0.719522  0.946960  -0.088416
    H   H5   0.536968  0.775825  0.094291  0.083364
    H   H6   0.462978  0.775815  0.905701  0.083604
    C   C9   0.488301  0.574671  0.939807  0.201784
    C   C10  0.511685  0.574675  0.060192  0.202491
    C   C11  0.511381  0.502212  0.126049  -0.233646
    C   C12  0.488619  0.502209  0.873951  -0.233321
    C   C13  0.503279  0.430761  0.062528  -0.056928
    C   C14  0.496733  0.430760  0.937473  -0.057150
    C   C15  0.846683  0.571452  0.508648  -0.237220
    C   C16  0.153320  0.571452  0.491355  -0.237113
    H   H7   0.877099  0.627866  0.506176  0.139390
    H   H8   0.122903  0.627866  0.493827  0.139354
    C   C17  0.769119  0.571628  0.511463  -0.058840
    C   C18  0.230883  0.571628  0.488539  -0.059021
    H   H9   0.739944  0.628779  0.510980  0.099032
    H   H10  0.260059  0.628779  0.489024  0.099117
    C   C19  0.729835  0.499588  0.513443  -0.058814
    C   C20  0.270167  0.499588  0.486558  -0.058705
    C   C21  0.769124  0.427539  0.513752  -0.066519
    C   C22  0.230878  0.427539  0.486247  -0.066576
    H   H11  0.739950  0.370393  0.515083  0.093159
    H   H12  0.260052  0.370393  0.484915  0.093172
    C   C23  0.846690  0.427684  0.510931  -0.226063
    C   C24  0.153312  0.427684  0.489068  -0.226024
    H   H13  0.877112  0.371252  0.510252  0.136005
    H   H14  0.122890  0.371252  0.489746  0.135998
    C   C25  0.885465  0.499557  0.507799  0.313099
    C   C26  0.114537  0.499557  0.492201  0.313064
    C   C27  0.966135  0.499534  0.502400  -0.174239
    C   C28  0.033868  0.499534  0.497601  -0.174237
    C   C29  0.454865  0.834755  0.420387  -0.332497
    C   C30  0.545137  0.834756  0.579616  -0.332510
    H   H15  0.419102  0.866822  0.357306  0.176216
    H   H16  0.580900  0.866823  0.642697  0.176221
    C   C31  0.455506  0.751619  0.421521  0.135920
    C   C32  0.544496  0.751619  0.578483  0.135940
    H   H17  0.420078  0.718648  0.359033  0.107027
    H   H18  0.579925  0.718649  0.640972  0.107017
    N   N1   0.500001  0.711446  0.500002  -0.145012
    C   C33  0.500001  0.876669  0.500001  0.432319
    C   C34  0.500001  0.963188  0.500001  -0.145923
    C   C35  0.500001  0.035846  0.500000  -0.270115
    C   C36  0.454596  0.164315  0.420794  -0.339500
    C   C37  0.545407  0.164315  0.579204  -0.339492
    C   C38  0.455258  0.247452  0.421891  0.225576
    C   C39  0.544745  0.247452  0.578106  0.225529
    H   H19  0.419642  0.280421  0.359680  0.099733
    H   H20  0.580361  0.280421  0.640317  0.099756
    N   N2   0.500001  0.287626  0.499998  -0.265399
    C   C40  0.500001  0.122376  0.499999  0.656445
    Br  Br1  0.391099  0.107849  0.310128  0.040982
    Br  Br2  0.608903  0.107849  0.689871  0.040987
