# Generated by REPEAT Assigner based on pymatgen
data_DB0-m3_o10_o29_f0_pcu.sym.44
_audit_creation_date              2022-05-24
_audit_creation_method            REPEAT_Assigner
_cell_length_a                    7.778198
_cell_length_b                    8.872200
_cell_length_c                    27.557917
_cell_angle_alpha                 89.990132
_cell_angle_beta                  83.879965
_cell_angle_gamma                 91.455704
_cell_volume                      1890.307551
_symmetry_space_group_name_H-M    P1
_symmetry_Int_Tables_number       1
loop_
    _symmetry_equiv_pos_site_id
    _symmetry_equiv_pos_as_xyz
    1  x,y,z
loop_
    _atom_site_type_symbol
    _atom_site_label
    _atom_site_fract_x
    _atom_site_fract_y
    _atom_site_fract_z
    _atom_type_partial_charge
    O   O1   0.387693  0.737350  0.501697  -0.650748
    O   O2   0.609281  0.262979  0.496664  -0.678083
    O   O3   0.683678  0.708904  0.496529  -0.578502
    O   O4   0.313323  0.291403  0.502044  -0.494205
    C   C1   0.545885  0.792756  0.499018  0.737659
    C   C2   0.451124  0.207543  0.499452  0.705103
    O   O5   0.339114  0.514643  0.574580  -0.625442
    O   O6   0.657835  0.486069  0.423859  -0.662558
    O   O7   0.634646  0.481383  0.569040  -0.615793
    O   O8   0.362327  0.518632  0.429409  -0.632875
    C   C3   0.483444  0.496793  0.594400  0.669075
    C   C4   0.513476  0.503686  0.404036  0.705012
    Zn  Zn1  0.303369  0.519542  0.502832  0.962875
    Zn  Zn2  0.693601  0.480777  0.495607  1.030675
    C   C5   0.407638  0.607598  0.825744  0.411084
    C   C6   0.601600  0.403244  0.172025  0.429790
    O   O9   0.346634  0.725555  0.802948  -0.457698
    O   O10  0.674090  0.289939  0.194188  -0.474085
    N   N1   0.468741  0.488260  0.799708  -0.009461
    N   N2   0.528544  0.516661  0.198689  -0.050713
    C   C7   0.534462  0.371507  0.822263  0.300114
    C   C8   0.451426  0.628306  0.176687  0.305670
    C   C9   0.613121  0.439325  0.718939  -0.067875
    C   C10  0.379599  0.554241  0.279657  -0.114351
    C   C11  0.616396  0.442154  0.668884  -0.028274
    C   C12  0.376513  0.550895  0.329701  -0.032075
    C   C13  0.330966  0.537674  0.676305  -0.110526
    C   C14  0.669400  0.473112  0.322018  -0.088228
    C   C15  0.328028  0.536611  0.726496  -0.122231
    C   C16  0.672767  0.475919  0.271821  -0.139977
    C   C17  0.469401  0.487518  0.747951  0.053113
    C   C18  0.527479  0.516147  0.250479  0.120910
    C   C19  0.481647  0.494876  0.899206  0.120360
    C   C20  0.516570  0.511283  0.099122  0.138743
    C   C21  0.413374  0.612007  0.875623  -0.161453
    C   C22  0.596396  0.399519  0.122122  -0.162457
    C   C23  0.354329  0.735313  0.901643  0.023175
    C   C24  0.670417  0.283342  0.095366  0.007320
    C   C25  0.541795  0.373756  0.872059  -0.070922
    C   C26  0.444482  0.626589  0.126872  -0.076651
    C   C27  0.476225  0.492245  0.647493  -0.012517
    C   C28  0.520487  0.509048  0.350955  -0.065891
    H   H1   0.220139  0.575722  0.659593  0.085070
    H   H2   0.783213  0.441904  0.338623  0.085918
    H   H3   0.212995  0.571068  0.748759  0.119696
    H   H4   0.791044  0.449976  0.249525  0.123308
    H   H5   0.303350  0.829164  0.883209  0.097228
    H   H6   0.735769  0.196165  0.113098  0.107008
    C   C29  0.429812  0.623518  0.026563  0.046738
    C   C30  0.563260  0.380447  0.972020  0.015910
    C   C31  0.578027  0.387384  0.022035  0.094601
    C   C32  0.426171  0.621811  0.975995  0.060598
    C   C33  0.508269  0.507470  0.049060  -0.020803
    C   C34  0.490261  0.499013  0.949252  0.009218
    C   C35  0.355463  0.738478  0.055459  -0.194820
    C   C36  0.618594  0.256534  0.944078  -0.180382
    C   C37  0.363601  0.739673  0.105024  -0.029062
    C   C38  0.608201  0.254049  0.894620  -0.027269
    O   O11  0.384216  0.744033  0.203099  -0.411881
    O   O12  0.589833  0.250518  0.796408  -0.407283
    C   C39  0.360730  0.740933  0.951261  -0.209289
    C   C40  0.662361  0.277119  0.045825  -0.220122
    H   H7   0.260972  0.581812  0.352356  0.068676
    H   H8   0.728723  0.403915  0.646311  0.017498
    H   H9   0.263382  0.581886  0.263697  0.123535
    H   H10  0.726268  0.404109  0.735067  0.110538
    H   H11  0.304506  0.829742  0.126741  0.108339
    H   H12  0.652692  0.157041  0.873615  0.106575
    H   H13  0.285244  0.828388  0.041523  0.137981
    H   H14  0.667413  0.156771  0.959089  0.133639
    H   H15  0.316716  0.843141  0.968604  0.130862
    H   H16  0.727935  0.185193  0.027400  0.133610
    C   C41  0.567827  0.956898  0.498403  -0.274461
    C   C42  0.429288  0.043382  0.500083  -0.178871
    H   H17  0.696621  0.007642  0.496405  0.153796
    H   H18  0.300582  0.992523  0.502090  0.148032
    N   N3   0.949225  0.452258  0.490995  -0.077220
    N   N4   0.047742  0.548015  0.507386  -0.044148
    C   C43  0.026197  0.366376  0.451927  0.286353
    C   C44  0.066828  0.218461  0.459588  -0.103441
    Cl  Cl1  0.038974  0.142947  0.518693  -0.006650
    C   C45  0.128872  0.129913  0.420825  -0.010200
    C   C46  0.145443  0.187845  0.374104  -0.088002
    Cl  Cl2  0.220672  0.074495  0.324725  -0.063352
    C   C47  0.099177  0.334046  0.366162  0.074187
    C   C48  0.039504  0.423306  0.405064  -0.148957
    H   H19  0.162127  0.014418  0.426984  0.109091
    H   H20  0.107253  0.377546  0.329323  0.080693
    H   H21  0.999261  0.536772  0.398805  0.122619
    C   C49  0.970152  0.632989  0.546561  0.544701
    C   C50  0.951460  0.572893  0.593024  -0.328235
    Cl  Cl3  0.016279  0.388498  0.602471  0.029663
    C   C51  0.887933  0.659769  0.632104  0.309603
    C   C52  0.843230  0.806737  0.624699  -0.291574
    Cl  Cl4  0.762816  0.917030  0.674293  -0.039294
    C   C53  0.865779  0.867953  0.578409  0.322225
    C   C54  0.931646  0.781780  0.539476  -0.540820
    H   H22  0.875507  0.613783  0.668671  0.041884
    H   H23  0.834182  0.984150  0.572756  0.045191
    H   H24  0.954732  0.831412  0.503456  0.174466
