# Generated by REPEAT Assigner based on pymatgen
data_DB0-m3_o16_o105_f0_fsc.sym.43_sqe
_audit_creation_date              2022-05-24
_audit_creation_method            REPEAT_Assigner
_cell_length_a                    10.876688
_cell_length_b                    12.040243
_cell_length_c                    15.778135
_cell_angle_alpha                 84.136249
_cell_angle_beta                  90.069984
_cell_angle_gamma                 106.730710
_cell_volume                      1967.587988
_symmetry_space_group_name_H-M    P1
_symmetry_Int_Tables_number       1
loop_
    _symmetry_equiv_pos_site_id
    _symmetry_equiv_pos_as_xyz
    1  x,y,z
loop_
    _atom_site_type_symbol
    _atom_site_label
    _atom_site_fract_x
    _atom_site_fract_y
    _atom_site_fract_z
    _atom_type_partial_charge
    C   C1   0.066355  0.012450  0.928065  -0.013588
    C   C2   0.126877  0.012365  0.005893  -0.136371
    H   H1   0.217452  0.994264  0.008435  0.114376
    C   C3   0.067129  0.019584  0.082234  -0.012164
    C   C4   0.938389  0.011753  0.082207  -0.012312
    C   C5   0.877983  0.012029  0.004405  -0.147336
    H   H2   0.787620  0.030580  0.001815  0.116319
    C   C6   0.937612  0.004613  0.928132  0.009264
    C   C7   0.066072  0.004826  0.775160  0.075594
    C   C8   0.130613  0.992256  0.701677  -0.221620
    H   H3   0.082881  0.970573  0.643181  0.117536
    C   C9   0.260647  0.005747  0.701860  -0.070293
    C   C10  0.328068  0.038751  0.772688  -0.069315
    H   H4   0.431492  0.060825  0.770571  0.106138
    C   C11  0.265328  0.042408  0.846882  -0.220578
    H   H5   0.326005  0.070860  0.899116  0.123184
    C   C12  0.132172  0.017270  0.850927  0.089645
    C   C13  0.737703  0.967327  0.851703  -0.205706
    H   H6   0.677697  0.941609  0.908729  0.120189
    C   C14  0.674490  0.967833  0.776701  -0.083447
    H   H7   0.571162  0.947028  0.777913  0.105301
    C   C15  0.741773  0.998411  0.700660  -0.049509
    C   C16  0.871868  0.011687  0.698937  -0.221383
    C   C17  0.936629  0.001974  0.774858  0.072032
    C   C18  0.870981  0.993554  0.851982  0.071861
    C   C19  0.739126  0.981282  0.163042  -0.232623
    H   H8   0.678710  0.952324  0.110788  0.128812
    C   C20  0.676060  0.985079  0.237050  -0.076485
    H   H9   0.572612  0.962669  0.239032  0.104130
    C   C21  0.743254  0.018700  0.307829  -0.074676
    C   C22  0.873342  0.032469  0.308258  -0.143920
    C   C23  0.938188  0.019654  0.235006  0.001454
    C   C24  0.872328  0.006864  0.159205  0.115149
    C   C25  0.067623  0.022489  0.235559  0.091728
    C   C26  0.132058  0.012987  0.311668  -0.204646
    H   H10  0.083843  0.992437  0.373317  0.113028
    C   C27  0.262095  0.025985  0.310249  -0.066948
    C   C28  0.329614  0.055963  0.234274  -0.070180
    H   H11  0.432911  0.076419  0.233266  0.111323
    C   C29  0.266744  0.056346  0.159111  -0.231928
    H   H12  0.327026  0.081587  0.102209  0.124006
    C   C30  0.133512  0.030562  0.158536  0.106017
    H   H13  0.919836  0.032547  0.637207  0.113997
    H   H14  0.920846  0.054482  0.366773  0.094541
    O   O1   0.662756  0.109287  0.590700  -0.741505
    O   O2   0.596553  0.908956  0.599185  -0.712478
    C   C31  0.669770  0.006523  0.623151  0.864670
    O   O3   0.340116  0.902574  0.602774  -0.706993
    O   O4   0.406081  0.104571  0.589944  -0.699571
    C   C32  0.333716  0.003499  0.624953  0.843571
    O   O5   0.340293  0.914392  0.420378  -0.695620
    O   O6   0.406457  0.116179  0.412108  -0.732228
    C   C33  0.333933  0.017876  0.387877  0.828381
    O   O7   0.663173  0.121160  0.406941  -0.690726
    O   O8   0.597093  0.920755  0.419383  -0.682626
    C   C34  0.670041  0.020997  0.384615  0.814047
    Zn  Zn1  0.458990  0.881583  0.511636  1.022620
    Zn  Zn2  0.545452  0.142447  0.498653  1.063368
    C   C35  0.756395  0.471477  0.475514  0.331166
    H   H15  0.784751  0.304979  0.472448  0.178605
    H   H16  0.814836  0.695314  0.490509  0.161703
    N   N1   0.590365  0.295164  0.492196  0.132812
    C   C36  0.288202  0.676290  0.525667  -0.059104
    C   C37  0.239876  0.557379  0.528252  -0.003083
    C   C38  0.320292  0.489405  0.520258  -0.204456
    C   C39  0.452172  0.540603  0.511179  0.139098
    C   C40  0.498165  0.661777  0.512394  0.080444
    C   C41  0.539435  0.474809  0.500774  0.036945
    C   C42  0.669407  0.532145  0.489964  0.050072
    C   C43  0.713445  0.649721  0.495074  -0.216506
    C   C44  0.630034  0.712477  0.507691  -0.095287
    C   C45  0.502236  0.353290  0.500608  -0.228602
    C   C46  0.715415  0.352338  0.479310  -0.262132
    N   N2   0.415590  0.728355  0.518079  -0.009662
    H   H17  0.403708  0.301765  0.508900  0.175947
    H   H18  0.222024  0.727571  0.529171  0.146068
    H   H19  0.274884  0.397369  0.521011  0.149203
    H   H20  0.137366  0.517059  0.534928  0.073906
    H   H21  0.674538  0.802275  0.513388  0.136358
    O   O9   0.884184  0.528223  0.460437  -0.393480
    C   C47  0.899340  0.552782  0.371792  0.269437
    H   H22  0.931327  0.648654  0.355054  -0.021967
    H   H23  0.806878  0.516297  0.340939  -0.030854
    C   C48  0.999017  0.500061  0.339610  0.174795
    H   H24  0.092775  0.540039  0.367680  -0.015235
    H   H25  0.969158  0.404645  0.358439  -0.033975
    C   C49  0.012616  0.522927  0.243321  -0.272704
    H   H26  0.919724  0.481864  0.214460  0.061018
    H   H27  0.086678  0.485097  0.220628  0.066169
    H   H28  0.042220  0.618233  0.223925  0.047791
