# Generated by REPEAT Assigner based on pymatgen
data_DB0-m3_o21_o23_f0_pcu
_audit_creation_date              2022-05-24
_audit_creation_method            REPEAT_Assigner
_cell_length_a                    13.013198
_cell_length_b                    14.174740
_cell_length_c                    16.053925
_cell_angle_alpha                 90.017110
_cell_angle_beta                  93.555752
_cell_angle_gamma                 98.104838
_cell_volume                      2925.941526
_symmetry_space_group_name_H-M    P1
_symmetry_Int_Tables_number       1
loop_
    _symmetry_equiv_pos_site_id
    _symmetry_equiv_pos_as_xyz
    1  x,y,z
loop_
    _atom_site_type_symbol
    _atom_site_label
    _atom_site_fract_x
    _atom_site_fract_y
    _atom_site_fract_z
    _atom_type_partial_charge
    O   O1   0.087432  0.004695  0.879498  -0.704710
    O   O2   0.910357  0.995128  0.871410  -0.697851
    C   C1   0.998624  0.999891  0.835014  0.868162
    O   O3   0.075823  0.862759  0.003382  -0.706225
    O   O4   0.898714  0.853030  0.995429  -0.699674
    C   C2   0.983166  0.811790  0.999195  0.959125
    Zn  Zn1  0.116653  0.006297  0.005275  1.123034
    Zn  Zn2  0.883520  0.993695  0.994853  1.127317
    O   O5   0.089816  0.004864  0.128718  -0.697068
    O   O6   0.912741  0.995298  0.120630  -0.705741
    O   O7   0.101460  0.146962  0.004699  -0.696255
    O   O8   0.924350  0.137233  0.996746  -0.704438
    C   C3   0.001549  0.000101  0.165114  0.868079
    C   C4   0.017008  0.188203  0.000933  0.953117
    N   N1   0.726973  0.985500  0.988209  -0.120244
    C   C5   0.524690  0.971963  0.977278  -0.038121
    C   C6   0.475483  0.028029  0.022849  -0.043173
    C   C7   0.363206  0.020131  0.016472  0.168136
    C   C8   0.636967  0.979861  0.983656  0.166327
    N   N2   0.273200  0.014492  0.011919  -0.119682
    H   H1   0.520115  0.080161  0.065188  0.193342
    H   H2   0.480058  0.919832  0.934940  0.191335
    C   C9   0.025989  0.290428  0.001387  -0.339424
    C   C10  0.042531  0.478670  0.002224  -0.070074
    C   C11  0.957643  0.521323  0.997904  -0.070356
    C   C12  0.966768  0.623769  0.998366  0.054367
    C   C13  0.033405  0.376223  0.001762  0.052941
    C   C14  0.974184  0.709565  0.998741  -0.341576
    H   H3   0.881375  0.478856  0.994026  0.144595
    H   H4   0.118798  0.521137  0.006102  0.144448
    C   C15  0.089620  0.951341  0.458020  -0.128454
    C   C16  0.898557  0.946967  0.447219  -0.144246
    C   C17  0.900741  0.941248  0.541576  -0.122729
    H   H5   0.091976  0.884901  0.578736  0.032868
    H   H6   0.077787  0.875497  0.437986  0.023255
    H   H7   0.833825  0.985169  0.424157  0.021947
    H   H8   0.886164  0.873936  0.420196  0.035058
    H   H9   0.898763  0.865925  0.560860  0.021990
    H   H10  0.831750  0.969002  0.563989  0.027331
    C   C18  0.998230  0.999869  0.745375  -0.166002
    C   C19  0.000887  0.000047  0.421261  0.671848
    C   C20  0.092873  0.957325  0.552435  -0.136859
    C   C21  0.999286  0.999940  0.578867  0.662865
    C   C22  0.005195  0.101310  0.547446  -0.126026
    C   C23  0.013533  0.101768  0.453688  -0.139324
    C   C24  0.998482  0.999887  0.670194  -0.395335
    C   C25  0.001691  0.000102  0.329934  -0.397162
    C   C26  0.001943  0.000122  0.254753  -0.165099
    H   H11  0.090684  0.139440  0.438698  0.025739
    H   H12  0.951961  0.139430  0.423834  0.034477
    H   H13  0.074285  0.145939  0.577708  0.032267
    H   H14  0.164384  0.986774  0.435920  0.027935
    H   H15  0.165253  0.002840  0.575912  0.020762
    H   H16  0.934204  0.131071  0.562770  0.023179
