data_DB0-m3_o11_o23_f0_pcu.sym.15_repeat
_audit_creation_date              2024-02-23
_audit_creation_method            'Materials Studio'
_symmetry_space_group_name_H-M    'P1'
_symmetry_Int_Tables_number       1
_symmetry_cell_setting            triclinic
loop_
_symmetry_equiv_pos_as_xyz
  x,y,z
_cell_length_a                    15.9525
_cell_length_b                    11.1378
_cell_length_c                    9.9100
_cell_angle_alpha                 89.9974
_cell_angle_beta                  89.9750
_cell_angle_gamma                 89.9982
loop_
_atom_site_label
_atom_site_type_symbol
_atom_site_fract_x
_atom_site_fract_y
_atom_site_fract_z
_atom_site_U_iso_or_equiv
_atom_site_adp_type
_atom_site_occupancy
O1     O     0.49910   0.32191   0.61912   0.00000  Uiso   1.00
O2     O     0.50222   0.32082   0.38655   0.00000  Uiso   1.00
C1     C     0.50049   0.26532   0.50318   0.00000  Uiso   1.00
O3     O     0.37362   0.50058   0.60930   0.00000  Uiso   1.00
O4     O     0.37689   0.49924   0.37654   0.00000  Uiso   1.00
C2     C     0.33631   0.49973   0.49163   0.00000  Uiso   1.00
Zn1    Zn    0.49764   0.50123   0.65301   0.00000  Uiso   1.00
Zn2    Zn    0.50247   0.49910   0.34576   0.00000  Uiso   1.00
O5     O     0.49873   0.67940   0.61273   0.00000  Uiso   1.00
O6     O     0.50189   0.67875   0.37919   0.00000  Uiso   1.00
O7     O     0.62327   0.50125   0.62261   0.00000  Uiso   1.00
O8     O     0.62655   0.49989   0.38907   0.00000  Uiso   1.00
C3     C     0.50003   0.73493   0.49612   0.00000  Uiso   1.00
C4     C     0.66377   0.50058   0.50713   0.00000  Uiso   1.00
C5     C     0.04979   0.43884   0.62339   0.00000  Uiso   1.00
C6     C     0.04542   0.43160   0.37367   0.00000  Uiso   1.00
C7     C     0.95014   0.43786   0.37436   0.00000  Uiso   1.00
H1     H     0.93432   0.33785   0.62371   0.00000  Uiso   1.00
H2     H     0.07581   0.34664   0.62904   0.00000  Uiso   1.00
H3     H     0.07294   0.46780   0.27926   0.00000  Uiso   1.00
H4     H     0.06464   0.33619   0.38191   0.00000  Uiso   1.00
C8     C     0.75371   0.50053   0.50914   0.00000  Uiso   1.00
C9     C     0.07915   0.49959   0.49462   0.00000  Uiso   1.00
C10    C     0.95490   0.43291   0.62499   0.00000  Uiso   1.00
C11    C     0.92092   0.49995   0.50338   0.00000  Uiso   1.00
C12    C     0.95310   0.62821   0.50958   0.00000  Uiso   1.00
C13    C     0.04742   0.62795   0.49170   0.00000  Uiso   1.00
C14    C     0.82924   0.50034   0.50776   0.00000  Uiso   1.00
C15    C     0.17083   0.49962   0.49074   0.00000  Uiso   1.00
C16    C     0.24636   0.49965   0.48957   0.00000  Uiso   1.00
H5     H     0.07673   0.68008   0.57454   0.00000  Uiso   1.00
H6     H     0.06400   0.67013   0.39390   0.00000  Uiso   1.00
H7     H     0.93747   0.66755   0.60926   0.00000  Uiso   1.00
H8     H     0.07190   0.49083   0.71195   0.00000  Uiso   1.00
H9     H     0.93129   0.47510   0.71899   0.00000  Uiso   1.00
H10    H     0.92339   0.68429   0.43053   0.00000  Uiso   1.00
C17    C     0.50188   0.93480   0.39032   0.00000  Uiso   1.00
C18    C     0.49994   0.86636   0.50121   0.00000  Uiso   1.00
H11    H     0.50348   0.89199   0.29217   0.00000  Uiso   1.00
H12    H     0.49811   0.90476   0.60103   0.00000  Uiso   1.00
C19    C     0.50177   0.06791   0.39313   0.00000  Uiso   1.00
C20    C     0.50075   0.13375   0.50649   0.00000  Uiso   1.00
H13    H     0.50260   0.11314   0.29636   0.00000  Uiso   1.00
H14    H     0.50005   0.09349   0.60546   0.00000  Uiso   1.00
C21    C     0.54388   0.57215   0.92360   0.00000  Uiso   1.00
N1     N     0.49406   0.50529   0.85471   0.00000  Uiso   1.00
H15    H     0.58999   0.62654   0.87148   0.00000  Uiso   1.00
H16    H     0.44422   0.46788   0.90508   0.00000  Uiso   1.00
C22    C     0.53711   0.58210   0.07216   0.00000  Uiso   1.00
N2     N     0.50724   0.49618   0.14409   0.00000  Uiso   1.00
H17    H     0.56125   0.66183   0.12129   0.00000  Uiso   1.00
H18    H     0.49516   0.41668   0.09538   0.00000  Uiso   1.00
O9     O     0.91865   0.32109   0.37192   0.00000  Uiso   1.00
H19    H     0.89923   0.30950   0.27795   0.00000  Uiso   1.00
O10    O     0.91975   0.49889   0.26083   0.00000  Uiso   1.00
H20    H     0.95825   0.56662   0.24303   0.00000  Uiso   1.00
