# Generated by REPEAT Assigner based on pymatgen
data_DB0-m2_o7_o25_f0_nbo.sym.159_sqe
_audit_creation_date              2022-05-24
_audit_creation_method            REPEAT_Assigner
_cell_length_a                    47.333728
_cell_length_b                    35.282920
_cell_length_c                    31.678408
_cell_angle_alpha                 90.000000
_cell_angle_beta                  48.079322
_cell_angle_gamma                 90.000000
_cell_volume                      39365.216994
_symmetry_space_group_name_H-M    P1
_symmetry_Int_Tables_number       1
loop_
    _symmetry_equiv_pos_site_id
    _symmetry_equiv_pos_as_xyz
    1  x,y,z
loop_
    _atom_site_type_symbol
    _atom_site_label
    _atom_site_fract_x
    _atom_site_fract_y
    _atom_site_fract_z
    _atom_type_partial_charge
    O   O1    0.554442  0.967650  0.455536  -0.604234
    O   O2    0.445558  0.967650  0.544465  -0.604226
    O   O3    0.054442  0.467650  0.455536  -0.604194
    O   O4    0.945558  0.467650  0.544465  -0.604189
    O   O5    0.553623  0.029968  0.432400  -0.622982
    O   O6    0.446377  0.029968  0.567600  -0.622956
    O   O7    0.053623  0.529968  0.432400  -0.622948
    O   O8    0.946377  0.529968  0.567600  -0.622946
    C   C1    0.571859  0.998646  0.424902  0.809905
    C   C2    0.428141  0.998646  0.575098  0.809915
    C   C3    0.071859  0.498646  0.424902  0.809854
    C   C4    0.928141  0.498646  0.575098  0.809833
    O   O9    0.491086  0.967610  0.569413  -0.568711
    O   O10   0.508913  0.967610  0.430588  -0.568763
    O   O11   0.991086  0.467610  0.569413  -0.568701
    O   O12   0.008914  0.467610  0.430588  -0.568742
    O   O13   0.512588  0.030033  0.547139  -0.685989
    O   O14   0.487412  0.030033  0.452861  -0.686060
    O   O15   0.012588  0.530033  0.547139  -0.686003
    O   O16   0.987412  0.530033  0.452861  -0.686025
    C   C5    0.502268  0.998877  0.577487  0.791071
    C   C6    0.497731  0.998877  0.422513  0.791128
    C   C7    0.002268  0.498877  0.577487  0.791020
    C   C8    0.997731  0.498877  0.422513  0.791009
    Cu  Cu1   0.500000  0.961849  0.500000  0.960178
    Cu  Cu2   0.000000  0.461849  0.500000  0.960194
    Cu  Cu3   0.500000  0.035794  0.500000  1.046112
    Cu  Cu4   0.000000  0.535794  0.500000  1.046080
    C   C9    0.518960  0.969705  0.744571  -0.170390
    C   C10   0.481040  0.969705  0.255429  -0.169994
    C   C11   0.018960  0.469705  0.744571  -0.170361
    C   C12   0.981040  0.469705  0.255429  -0.169976
    C   C13   0.536720  0.000388  0.699524  -0.225376
    C   C14   0.463280  0.000388  0.300477  -0.225829
    C   C15   0.036720  0.500388  0.699524  -0.225407
    C   C16   0.963280  0.500388  0.300477  -0.225856
    H   H1    0.566234  0.000635  0.657883  0.102688
    H   H2    0.433766  0.000635  0.342118  0.102746
    H   H3    0.066234  0.500635  0.657883  0.102691
    H   H4    0.933766  0.500635  0.342118  0.102748
    H   H5    0.533719  0.944521  0.742840  0.066687
    H   H6    0.466281  0.944521  0.257160  0.066634
    H   H7    0.033719  0.444521  0.742840  0.066682
    H   H8    0.966281  0.444521  0.257160  0.066631
    H   H9    0.532583  0.056503  0.743444  0.086422
    H   H10   0.467416  0.056503  0.256556  0.086209
    H   H11   0.032583  0.556503  0.743444  0.086413
    H   H12   0.967416  0.556503  0.256556  0.086208
    C   C17   0.502476  0.999259  0.622472  -0.114354
    C   C18   0.497524  0.999259  0.377528  -0.114314
    C   C19   0.002476  0.499259  0.622472  -0.114283
    C   C20   0.997524  0.499259  0.377528  -0.114238
    C   C21   0.500127  0.999976  0.873691  -0.183635
    C   C22   0.499873  0.999976  0.126310  -0.183586
    C   C23   0.000127  0.499976  0.873691  -0.183629
    C   C24   0.999873  0.499976  0.126310  -0.183590
    C   C25   0.483907  0.969242  0.751540  -0.151011
    C   C26   0.516093  0.969242  0.248460  -0.151319
    C   C27   0.983907  0.469242  0.751540  -0.151042
    C   C28   0.016093  0.469242  0.248460  -0.151351
    C   C29   0.501667  0.999920  0.707322  0.763241
    C   C30   0.498333  0.999920  0.292678  0.763632
    C   C31   0.001667  0.499920  0.707322  0.763295
    C   C32   0.998333  0.499920  0.292678  0.763692
    C   C33   0.465528  0.999771  0.796928  -0.203716
    C   C34   0.534472  0.999771  0.203073  -0.203260
    C   C35   0.965528  0.499771  0.796928  -0.203700
    C   C36   0.034472  0.499771  0.203073  -0.203240
    C   C37   0.500600  0.000229  0.789116  0.740449
    C   C38   0.499400  0.000229  0.210884  0.739761
    C   C39   0.000600  0.500229  0.789116  0.740423
    C   C40   0.999400  0.500229  0.210884  0.739748
    C   C41   0.483285  0.030455  0.751850  -0.095128
    C   C42   0.516714  0.030455  0.248151  -0.095639
    C   C43   0.983285  0.530455  0.751850  -0.095168
    C   C44   0.016714  0.530455  0.248150  -0.095673
    C   C45   0.518342  0.030924  0.744905  -0.232195
    C   C46   0.481658  0.030924  0.255095  -0.231369
    C   C47   0.018342  0.530924  0.744905  -0.232158
    C   C48   0.981658  0.530924  0.255095  -0.231354
    C   C49   0.502251  0.999588  0.660671  -0.407523
    C   C50   0.497749  0.999588  0.339329  -0.407608
    C   C51   0.002251  0.499588  0.660671  -0.407579
    C   C52   0.997749  0.499588  0.339329  -0.407658
    C   C53   0.500238  0.000186  0.835583  -0.365911
    C   C54   0.499761  0.000186  0.164418  -0.365771
    C   C55   0.000238  0.500186  0.835583  -0.365903
    C   C56   0.999761  0.500186  0.164418  -0.365756
    H   H13   0.468509  0.055607  0.753538  0.049559
    H   H14   0.531490  0.055607  0.246463  0.049626
    H   H15   0.968509  0.555607  0.753538  0.049568
    H   H16   0.031491  0.555607  0.246463  0.049625
    H   H17   0.436000  0.999528  0.838540  0.096674
    H   H18   0.564000  0.999528  0.161461  0.096600
    H   H19   0.936000  0.499528  0.838540  0.096671
    H   H20   0.064000  0.499528  0.161461  0.096594
    H   H21   0.469655  0.943683  0.752977  0.062127
    H   H22   0.530345  0.943683  0.247022  0.062170
    H   H23   0.969655  0.443683  0.752977  0.062133
    H   H24   0.030345  0.443683  0.247023  0.062175
    C   C57   0.827803  0.010503  0.133418  -0.258913
    C   C58   0.172197  0.010503  0.866582  -0.258970
    C   C59   0.327803  0.510503  0.133418  -0.258918
    C   C60   0.672197  0.510503  0.866582  -0.258983
    H   H25   0.812793  0.019136  0.120236  0.167698
    H   H26   0.187206  0.019136  0.879764  0.167711
    H   H27   0.312793  0.519136  0.120236  0.167698
    H   H28   0.687206  0.519136  0.879764  0.167715
    C   C61   0.866957  0.010677  0.094931  -0.068929
    C   C62   0.133043  0.010677  0.905069  -0.068915
    C   C63   0.366957  0.510677  0.094931  -0.068921
    C   C64   0.633043  0.510677  0.905069  -0.068915
    H   H29   0.882046  0.019547  0.051868  0.123741
    H   H30   0.117954  0.019547  0.948132  0.123749
    H   H31   0.382046  0.519547  0.051868  0.123740
    H   H32   0.617954  0.519547  0.948132  0.123752
    C   C65   0.886326  0.999641  0.111565  -0.075518
    C   C66   0.113674  0.999641  0.888436  -0.075589
    C   C67   0.386326  0.499641  0.111565  -0.075528
    C   C68   0.613674  0.499641  0.888436  -0.075585
    C   C69   0.866045  0.988467  0.167095  -0.051125
    C   C70   0.133955  0.988467  0.832906  -0.051113
    C   C71   0.366045  0.488467  0.167095  -0.051114
    C   C72   0.633955  0.488467  0.832906  -0.051110
    H   H33   0.880403  0.979690  0.181268  0.116183
    H   H34   0.119597  0.979690  0.818732  0.116203
    H   H35   0.380403  0.479690  0.181268  0.116182
    H   H36   0.619597  0.479690  0.818732  0.116205
    C   C73   0.826899  0.988335  0.205410  -0.235703
    C   C74   0.173100  0.988335  0.794591  -0.235748
    C   C75   0.326899  0.488335  0.205410  -0.235716
    C   C76   0.673100  0.488335  0.794591  -0.235770
    H   H37   0.811178  0.979561  0.248730  0.155473
    H   H38   0.188822  0.979561  0.751271  0.155476
    H   H39   0.311178  0.479561  0.248730  0.155476
    H   H40   0.688822  0.479561  0.751271  0.155483
    C   C77   0.807771  0.999334  0.188621  0.348857
    C   C78   0.192229  0.999334  0.811380  0.349001
    C   C79   0.307771  0.499334  0.188621  0.348865
    C   C80   0.692229  0.499334  0.811380  0.349037
    C   C81   0.767028  0.999110  0.228612  -0.226492
    C   C82   0.232971  0.999110  0.771388  -0.226683
    C   C83   0.267028  0.499110  0.228612  -0.226495
    C   C84   0.732971  0.499110  0.771388  -0.226732
    C   C85   0.732817  0.998864  0.262324  -0.121661
    C   C86   0.267182  0.998864  0.737677  -0.121431
    C   C87   0.232817  0.498864  0.262324  -0.121657
    C   C88   0.767182  0.498864  0.737677  -0.121364
    C   C89   0.672451  0.020979  0.294194  -0.424219
    C   C90   0.327548  0.020979  0.705807  -0.424188
    C   C91   0.172451  0.520979  0.294194  -0.424145
    C   C92   0.827548  0.520979  0.705807  -0.424082
    H   H41   0.687935  0.038496  0.256661  0.182163
    H   H42   0.312065  0.038496  0.743339  0.182152
    H   H43   0.187935  0.538497  0.256661  0.182146
    H   H44   0.812065  0.538496  0.743339  0.182130
    C   C93   0.633258  0.020546  0.332620  0.426385
    C   C94   0.366742  0.020546  0.667381  0.426430
    C   C95   0.133258  0.520547  0.332620  0.426274
    C   C96   0.866742  0.520546  0.667381  0.426308
    C   C97   0.613494  0.998241  0.381145  -0.270221
    C   C98   0.386505  0.998241  0.618856  -0.270267
    C   C99   0.113494  0.498241  0.381145  -0.270154
    C   C100  0.886505  0.498241  0.618856  -0.270160
    C   C101  0.633470  0.975247  0.388688  0.020250
    C   C102  0.366530  0.975247  0.611313  0.020307
    C   C103  0.133470  0.475247  0.388688  0.020232
    C   C104  0.866530  0.475247  0.611313  0.020253
    H   H45   0.618665  0.957599  0.425968  0.102836
    H   H46   0.381336  0.957599  0.574032  0.102811
    H   H47   0.118665  0.457599  0.425968  0.102835
    H   H48   0.881336  0.457599  0.574032  0.102816
    C   C105  0.672590  0.975415  0.349615  -0.261200
    C   C106  0.327410  0.975415  0.650385  -0.261152
    C   C107  0.172590  0.475415  0.349615  -0.261176
    C   C108  0.827410  0.475415  0.650385  -0.261079
    H   H49   0.688004  0.957682  0.356145  0.151757
    H   H50   0.311996  0.957682  0.643855  0.151737
    H   H51   0.188004  0.457682  0.356145  0.151754
    H   H52   0.811996  0.457682  0.643855  0.151723
    C   C109  0.692075  0.998499  0.302653  0.331107
    C   C110  0.307924  0.998499  0.697347  0.330923
    C   C111  0.192075  0.498499  0.302653  0.331075
    C   C112  0.807924  0.498500  0.697347  0.330805
    O   O17   0.532636  0.944674  0.965584  -0.595802
    O   O18   0.467363  0.944674  0.034417  -0.595824
    O   O19   0.032636  0.444674  0.965584  -0.595823
    O   O20   0.967363  0.444674  0.034417  -0.595836
    C   C113  0.500000  0.926885  0.000000  0.597353
    C   C114  0.000000  0.426885  0.000000  0.597291
    O   O21   0.532921  0.001222  0.905712  -0.609249
    O   O22   0.467078  0.001222  0.094288  -0.609250
    O   O23   0.032921  0.501222  0.905712  -0.609248
    O   O24   0.967078  0.501222  0.094288  -0.609234
    O   O25   0.467457  0.001193  0.971186  -0.690868
    O   O26   0.532543  0.001193  0.028815  -0.690819
    O   O27   0.967457  0.501193  0.971186  -0.690864
    O   O28   0.032543  0.501193  0.028815  -0.690812
    C   C115  0.500166  0.999564  0.918883  0.870588
    C   C116  0.499834  0.999564  0.081118  0.870457
    C   C117  0.000166  0.499564  0.918883  0.870562
    C   C118  0.999834  0.499564  0.081118  0.870432
    Cu  Cu5   0.537818  0.999759  0.962201  1.024700
    Cu  Cu6   0.462182  0.999759  0.037800  1.024670
    Cu  Cu7   0.037818  0.499759  0.962201  1.024643
    Cu  Cu8   0.962181  0.499759  0.037800  1.024715
    O   O29   0.532723  0.054855  0.965602  -0.563012
    O   O30   0.467277  0.054855  0.034399  -0.563026
    O   O31   0.032723  0.554855  0.965602  -0.562991
    O   O32   0.967277  0.554855  0.034399  -0.562992
    C   C119  0.500000  0.072614  0.000000  0.643861
    C   C120  0.000000  0.572614  0.000000  0.643912
    O   O33   0.988963  0.053807  0.045594  -0.592957
    O   O34   0.011036  0.053807  0.954406  -0.592983
    O   O35   0.488963  0.553807  0.045594  -0.592955
    O   O36   0.511036  0.553807  0.954406  -0.592974
    C   C121  0.000000  0.071626  0.000000  0.705505
    C   C122  0.500000  0.571626  0.000000  0.705578
    O   O37   0.945375  0.989258  0.088402  -0.589731
    O   O38   0.054624  0.989258  0.911598  -0.589830
    O   O39   0.445375  0.489258  0.088402  -0.589732
    O   O40   0.554624  0.489258  0.911598  -0.589826
    O   O41   0.946306  0.010265  0.017946  -0.626856
    O   O42   0.053694  0.010265  0.982055  -0.626921
    O   O43   0.446306  0.510265  0.017946  -0.626841
    O   O44   0.553694  0.510265  0.982055  -0.626911
    C   C123  0.927975  0.999733  0.070702  0.710581
    C   C124  0.072024  0.999733  0.929298  0.710746
    C   C125  0.427975  0.499733  0.070702  0.710580
    C   C126  0.572024  0.499733  0.929298  0.710729
    Cu  Cu9   0.999433  0.999765  0.041760  0.950087
    Cu  Cu10  0.000567  0.999765  0.958240  0.950115
    Cu  Cu11  0.499433  0.499765  0.041760  0.950055
    Cu  Cu12  0.500567  0.499765  0.958240  0.950087
    O   O45   0.010078  0.945722  0.024880  -0.612750
    O   O46   0.989921  0.945722  0.975120  -0.612729
    O   O47   0.510078  0.445722  0.024880  -0.612772
    O   O48   0.489921  0.445722  0.975120  -0.612748
    C   C127  0.000000  0.927903  0.000000  0.766142
    C   C128  0.500000  0.427903  0.000000  0.766170
    C   C129  0.988391  0.172019  0.046943  -0.233925
    C   C130  0.011608  0.172019  0.953057  -0.233908
    C   C131  0.488391  0.672019  0.046943  -0.233936
    C   C132  0.511608  0.672019  0.953057  -0.233915
    H   H53   0.979280  0.187365  0.083776  0.148242
    H   H54   0.020720  0.187366  0.916224  0.148235
    H   H55   0.479280  0.687365  0.083776  0.148241
    H   H56   0.520720  0.687366  0.916224  0.148236
    C   C133  0.988368  0.132948  0.047048  -0.047756
    C   C134  0.011631  0.132948  0.952952  -0.047769
    C   C135  0.488368  0.632948  0.047048  -0.047730
    C   C136  0.511631  0.632948  0.952952  -0.047745
    H   H57   0.979130  0.118250  0.084369  0.111354
    H   H58   0.020870  0.118250  0.915632  0.111372
    H   H59   0.479130  0.618250  0.084369  0.111351
    H   H60   0.520870  0.618250  0.915632  0.111368
    C   C137  0.000000  0.113176  0.000000  -0.085056
    C   C138  0.500000  0.613176  0.000000  -0.085122
    C   C139  0.000000  0.191543  0.000000  0.320485
    C   C140  0.500000  0.691543  0.000000  0.320503
    C   C141  0.000000  0.232188  0.000000  -0.183174
    C   C142  0.500000  0.732188  0.000000  -0.183197
    C   C143  0.500000  0.766323  0.000000  -0.148542
    C   C144  0.000000  0.266323  0.000000  -0.148566
    C   C145  0.466196  0.826492  0.035766  -0.211466
    C   C146  0.533804  0.826492  0.964235  -0.211453
    C   C147  0.966196  0.326492  0.035766  -0.211458
    C   C148  0.033804  0.326492  0.964235  -0.211446
    H   H61   0.439674  0.811145  0.063828  0.137437
    H   H62   0.560326  0.811145  0.936172  0.137430
    H   H63   0.939674  0.311145  0.063828  0.137434
    H   H64   0.060326  0.311145  0.936172  0.137429
    C   C149  0.466119  0.865563  0.035844  -0.090878
    C   C150  0.533880  0.865563  0.964157  -0.090874
    C   C151  0.966119  0.365563  0.035844  -0.090929
    C   C152  0.033880  0.365563  0.964157  -0.090927
    H   H65   0.439254  0.880271  0.064271  0.127997
    H   H66   0.560746  0.880271  0.935730  0.127988
    H   H67   0.939254  0.380271  0.064271  0.128018
    H   H68   0.060746  0.380271  0.935730  0.128011
    C   C153  0.500000  0.885334  0.000000  0.013890
    C   C154  0.000000  0.385334  0.000000  0.013985
    C   C155  0.500000  0.806967  0.000000  0.295520
    C   C156  0.000000  0.306967  0.000000  0.295531
    C   C157  0.989918  0.827540  0.974026  0.529012
    C   C158  0.010082  0.827540  0.025974  0.529046
    C   C159  0.489918  0.327540  0.974026  0.528983
    C   C160  0.510082  0.327540  0.025974  0.529027
    C   C161  0.989220  0.866614  0.975009  -0.318393
    C   C162  0.010779  0.866614  0.024991  -0.318409
    C   C163  0.489220  0.366614  0.975009  -0.318382
    C   C164  0.510779  0.366614  0.024991  -0.318410
    H   H69   0.980737  0.881427  0.955161  0.148198
    H   H70   0.019263  0.881427  0.044839  0.148193
    H   H71   0.480737  0.381427  0.955161  0.148210
    H   H72   0.519263  0.381427  0.044839  0.148207
    C   C165  0.000000  0.886354  0.000000  -0.029404
    C   C166  0.500000  0.386354  0.000000  -0.029415
    C   C167  0.000000  0.807951  0.000000  -0.296883
    C   C168  0.500000  0.307951  0.000000  -0.296849
    C   C169  0.000000  0.767255  0.000000  0.247556
    C   C170  0.500000  0.267255  0.000000  0.247529
    C   C171  0.500000  0.233131  0.000000  -0.368088
    C   C172  0.000000  0.733131  0.000000  -0.368117
    C   C173  0.466197  0.173000  0.035799  -0.276859
    C   C174  0.533802  0.173000  0.964201  -0.276841
    C   C175  0.966197  0.673000  0.035799  -0.276866
    C   C176  0.033802  0.673000  0.964201  -0.276845
    H   H73   0.439683  0.188357  0.063884  0.165170
    H   H74   0.560317  0.188357  0.936116  0.165156
    H   H75   0.939683  0.688357  0.063884  0.165168
    H   H76   0.060317  0.688357  0.936116  0.165154
    C   C177  0.466119  0.133932  0.035874  -0.068161
    C   C178  0.533881  0.133932  0.964126  -0.068168
    C   C179  0.966119  0.633932  0.035874  -0.068136
    C   C180  0.033881  0.633932  0.964126  -0.068145
    H   H77   0.439251  0.119231  0.064332  0.121282
    H   H78   0.560749  0.119231  0.935668  0.121284
    H   H79   0.939251  0.619231  0.064332  0.121272
    H   H80   0.060749  0.619231  0.935668  0.121275
    C   C181  0.500000  0.114163  0.000000  -0.058560
    C   C182  0.000000  0.614163  0.000000  -0.058629
    C   C183  0.500000  0.192511  0.000000  0.448872
    C   C184  0.000000  0.692511  0.000000  0.448892
    N   N1    0.614078  0.042566  0.321261  -0.601871
    C   C185  0.602068  0.022711  0.299344  0.896065
    O   O49   0.599212  0.988308  0.303933  -0.577480
    C   C186  0.592568  0.042819  0.268866  -0.514563
    H   H81   0.626109  0.068252  0.301666  0.295091
    H   H82   0.617896  0.058264  0.231896  0.089977
    H   H83   0.569143  0.063157  0.298097  0.147043
    H   H84   0.583492  0.021865  0.253864  0.101820
    N   N2    0.385922  0.042566  0.678740  -0.601950
    C   C187  0.397931  0.022711  0.700657  0.896077
    O   O50   0.400788  0.988308  0.696067  -0.577481
    C   C188  0.407432  0.042819  0.731135  -0.514538
    H   H85   0.373889  0.068252  0.698334  0.295120
    H   H86   0.382104  0.058264  0.768105  0.089969
    H   H87   0.430857  0.063157  0.701905  0.147034
    H   H88   0.416508  0.021865  0.746137  0.101808
    N   N3    0.114078  0.542566  0.321261  -0.601838
    C   C189  0.102068  0.522711  0.299344  0.896031
    O   O51   0.099212  0.488308  0.303933  -0.577437
    C   C190  0.092568  0.542819  0.268866  -0.514549
    H   H89   0.126109  0.568252  0.301666  0.295083
    H   H90   0.117896  0.558264  0.231895  0.089979
    H   H91   0.069143  0.563157  0.298097  0.147032
    H   H92   0.083492  0.521865  0.253864  0.101817
    N   N4    0.885922  0.542566  0.678740  -0.601878
    C   C191  0.897931  0.522711  0.700657  0.896026
    O   O52   0.900788  0.488308  0.696067  -0.577442
    C   C192  0.907432  0.542819  0.731135  -0.514543
    H   H93   0.873889  0.568252  0.698334  0.295100
    H   H94   0.882105  0.558264  0.768105  0.089977
    H   H95   0.930857  0.563157  0.701905  0.147028
    H   H96   0.916508  0.521866  0.746137  0.101814
    N   N5    0.978912  0.807797  0.948283  -0.712157
    C   C193  0.008254  0.796287  0.894797  0.852457
    O   O53   0.040108  0.793933  0.877841  -0.634583
    C   C194  0.001831  0.786815  0.855971  -0.482059
    H   H97   0.956922  0.819370  0.953172  0.336313
    H   H98   0.991016  0.812134  0.849857  0.100205
    H   H99   0.980805  0.763515  0.874592  0.117158
    H   H100  0.029001  0.777673  0.814387  0.162662
    N   N6    0.021088  0.807797  0.051717  -0.712204
    C   C195  0.991746  0.796286  0.105204  0.852457
    O   O54   0.959892  0.793933  0.122159  -0.634565
    C   C196  0.998169  0.786815  0.144030  -0.482118
    H   H101  0.043078  0.819370  0.046828  0.336322
    H   H102  0.008984  0.812134  0.150144  0.100249
    H   H103  0.019195  0.763515  0.125408  0.117178
    H   H104  0.970998  0.777673  0.185613  0.162664
    N   N7    0.478912  0.307797  0.948283  -0.712148
    C   C197  0.508254  0.296287  0.894797  0.852450
    O   O55   0.540108  0.293933  0.877841  -0.634580
    C   C198  0.501831  0.286815  0.855971  -0.482044
    H   H105  0.456922  0.319370  0.953172  0.336310
    H   H106  0.491016  0.312134  0.849857  0.100201
    H   H107  0.480805  0.263515  0.874592  0.117153
    H   H108  0.529001  0.277673  0.814387  0.162659
    N   N8    0.521088  0.307797  0.051717  -0.712193
    C   C199  0.491746  0.296286  0.105204  0.852448
    O   O56   0.459892  0.293933  0.122159  -0.634565
    C   C200  0.498169  0.286815  0.144029  -0.482083
    H   H109  0.543078  0.319370  0.046828  0.336317
    H   H110  0.508984  0.312134  0.150144  0.100236
    H   H111  0.519195  0.263515  0.125408  0.117169
    H   H112  0.470998  0.277673  0.185613  0.162656
