data_DB0-m3_o11_o29_f0_pcu.sym.79_repeat
_audit_creation_date              2024-02-23
_audit_creation_method            'Materials Studio'
_symmetry_space_group_name_H-M    'P1'
_symmetry_Int_Tables_number       1
_symmetry_cell_setting            triclinic
loop_
_symmetry_equiv_pos_as_xyz
  x,y,z
_cell_length_a                    27.6161
_cell_length_b                    11.1384
_cell_length_c                    9.9062
_cell_angle_alpha                 89.9974
_cell_angle_beta                  89.9930
_cell_angle_gamma                 89.9936
loop_
_atom_site_label
_atom_site_type_symbol
_atom_site_fract_x
_atom_site_fract_y
_atom_site_fract_z
_atom_site_U_iso_or_equiv
_atom_site_adp_type
_atom_site_occupancy
O1     O     0.50190   0.32560   0.61456   0.00000  Uiso   1.00
O2     O     0.50023   0.32618   0.38200   0.00000  Uiso   1.00
C1     C     0.50101   0.26986   0.49848   0.00000  Uiso   1.00
O3     O     0.42948   0.50364   0.62515   0.00000  Uiso   1.00
O4     O     0.42749   0.50421   0.39265   0.00000  Uiso   1.00
C2     C     0.40580   0.50355   0.51032   0.00000  Uiso   1.00
Zn1    Zn    0.50205   0.50364   0.65536   0.00000  Uiso   1.00
Zn2    Zn    0.49908   0.50573   0.34828   0.00000  Uiso   1.00
O5     O     0.50160   0.68305   0.62191   0.00000  Uiso   1.00
O6     O     0.49949   0.68412   0.38852   0.00000  Uiso   1.00
O7     O     0.57368   0.50443   0.61137   0.00000  Uiso   1.00
O8     O     0.57168   0.50633   0.37814   0.00000  Uiso   1.00
C3     C     0.50034   0.73951   0.50557   0.00000  Uiso   1.00
C4     C     0.59531   0.50548   0.49331   0.00000  Uiso   1.00
C5     C     0.17785   0.39004   0.50350   0.00000  Uiso   1.00
O9     O     0.20513   0.29050   0.49868   0.00000  Uiso   1.00
N1     N     0.20093   0.49579   0.51558   0.00000  Uiso   1.00
C6     C     0.17643   0.59934   0.52418   0.00000  Uiso   1.00
C7     C     0.27774   0.52250   0.63212   0.00000  Uiso   1.00
C8     C     0.32772   0.52332   0.63137   0.00000  Uiso   1.00
C9     C     0.32720   0.47848   0.39549   0.00000  Uiso   1.00
C10    C     0.27733   0.47557   0.39716   0.00000  Uiso   1.00
C11    C     0.25249   0.49794   0.51517   0.00000  Uiso   1.00
C12    C     0.10139   0.49270   0.50727   0.00000  Uiso   1.00
C13    C     0.12707   0.38543   0.49915   0.00000  Uiso   1.00
C14    C     0.10100   0.27834   0.48505   0.00000  Uiso   1.00
C15    C     0.12657   0.59934   0.51919   0.00000  Uiso   1.00
C16    C     0.35271   0.50181   0.51275   0.00000  Uiso   1.00
H1     H     0.34579   0.46077   0.30160   0.00000  Uiso   1.00
H2     H     0.25768   0.45674   0.30519   0.00000  Uiso   1.00
C17    C     0.64841   0.50480   0.49072   0.00000  Uiso   1.00
C18    C     0.97479   0.38933   0.50819   0.00000  Uiso   1.00
C19    C     0.97578   0.60423   0.48732   0.00000  Uiso   1.00
C20    C     0.95029   0.49737   0.49581   0.00000  Uiso   1.00
C21    C     0.94785   0.28529   0.52983   0.00000  Uiso   1.00
C22    C     0.89814   0.28805   0.53051   0.00000  Uiso   1.00
C23    C     0.87397   0.39426   0.50939   0.00000  Uiso   1.00
C24    C     0.89996   0.49855   0.49222   0.00000  Uiso   1.00
C25    C     0.87509   0.60410   0.47185   0.00000  Uiso   1.00
C26    C     0.82498   0.60387   0.46786   0.00000  Uiso   1.00
N2     N     0.80028   0.50103   0.48659   0.00000  Uiso   1.00
C27    C     0.82389   0.39698   0.50773   0.00000  Uiso   1.00
C28    C     0.72397   0.47873   0.60552   0.00000  Uiso   1.00
C29    C     0.67409   0.48081   0.60753   0.00000  Uiso   1.00
C30    C     0.67324   0.52786   0.37224   0.00000  Uiso   1.00
C31    C     0.72322   0.52788   0.37114   0.00000  Uiso   1.00
C32    C     0.74868   0.50264   0.48761   0.00000  Uiso   1.00
O10    O     0.79846   0.29529   0.52504   0.00000  Uiso   1.00
C33    C     0.02542   0.38782   0.50046   0.00000  Uiso   1.00
C34    C     0.05094   0.49453   0.50337   0.00000  Uiso   1.00
C35    C     0.02618   0.60322   0.50226   0.00000  Uiso   1.00
C36    C     0.05105   0.28143   0.48664   0.00000  Uiso   1.00
H3     H     0.65563   0.46194   0.70133   0.00000  Uiso   1.00
H4     H     0.74370   0.45951   0.69727   0.00000  Uiso   1.00
H5     H     0.87876   0.20524   0.54802   0.00000  Uiso   1.00
H6     H     0.96395   0.19969   0.55260   0.00000  Uiso   1.00
H7     H     0.03269   0.19797   0.46894   0.00000  Uiso   1.00
O11    O     0.20096   0.70309   0.53474   0.00000  Uiso   1.00
C37    C     0.10192   0.70635   0.52664   0.00000  Uiso   1.00
H8     H     0.34685   0.54233   0.72410   0.00000  Uiso   1.00
H9     H     0.25839   0.53992   0.72496   0.00000  Uiso   1.00
H10    H     0.12078   0.79059   0.53897   0.00000  Uiso   1.00
C38    C     0.95007   0.70971   0.46311   0.00000  Uiso   1.00
C39    C     0.90041   0.70926   0.45501   0.00000  Uiso   1.00
O12    O     0.80061   0.70693   0.44890   0.00000  Uiso   1.00
C40    C     0.05245   0.70871   0.51766   0.00000  Uiso   1.00
H11    H     0.96717   0.79487   0.44455   0.00000  Uiso   1.00
H12    H     0.65401   0.54733   0.27981   0.00000  Uiso   1.00
H13    H     0.88199   0.79312   0.43586   0.00000  Uiso   1.00
H14    H     0.74238   0.54622   0.27823   0.00000  Uiso   1.00
H15    H     0.03597   0.79564   0.52866   0.00000  Uiso   1.00
C41    C     0.49979   0.93693   0.39546   0.00000  Uiso   1.00
C42    C     0.50031   0.87107   0.50885   0.00000  Uiso   1.00
H16    H     0.49924   0.89175   0.29863   0.00000  Uiso   1.00
H17    H     0.50067   0.91133   0.60786   0.00000  Uiso   1.00
C43    C     0.49975   0.07003   0.39269   0.00000  Uiso   1.00
C44    C     0.50132   0.13844   0.50359   0.00000  Uiso   1.00
H18    H     0.49839   0.11288   0.29456   0.00000  Uiso   1.00
H19    H     0.50285   0.10002   0.60341   0.00000  Uiso   1.00
C45    C     0.52112   0.58798   0.92913   0.00000  Uiso   1.00
N3     N     0.50502   0.50080   0.85709   0.00000  Uiso   1.00
H20    H     0.53411   0.66875   0.88010   0.00000  Uiso   1.00
H21    H     0.49890   0.42089   0.90590   0.00000  Uiso   1.00
C46    C     0.52501   0.57824   0.07774   0.00000  Uiso   1.00
N4     N     0.49682   0.50972   0.14652   0.00000  Uiso   1.00
H22    H     0.55108   0.63415   0.13001   0.00000  Uiso   1.00
H23    H     0.46848   0.47050   0.09595   0.00000  Uiso   1.00
C47    C     0.12383   0.15710   0.46539   0.00000  Uiso   1.00
O13    O     0.14862   0.15379   0.34271   0.00000  Uiso   1.00
H24    H     0.09604   0.08542   0.46375   0.00000  Uiso   1.00
H25    H     0.14829   0.13447   0.55037   0.00000  Uiso   1.00
H26    H     0.12542   0.11692   0.27879   0.00000  Uiso   1.00
