# Generated by REPEAT Assigner based on pymatgen
data_DB0-m3_o3_o4_f0_nbo.sym.84
_audit_creation_date              2022-05-24
_audit_creation_method            REPEAT_Assigner
_cell_length_a                    44.128669
_cell_length_b                    38.885296
_cell_length_c                    21.813624
_cell_angle_alpha                 90.000000
_cell_angle_beta                  61.498806
_cell_angle_gamma                 90.000000
_cell_volume                      32894.830713
_symmetry_space_group_name_H-M    P1
_symmetry_Int_Tables_number       1
loop_
    _symmetry_equiv_pos_site_id
    _symmetry_equiv_pos_as_xyz
    1  x,y,z
loop_
    _atom_site_type_symbol
    _atom_site_label
    _atom_site_fract_x
    _atom_site_fract_y
    _atom_site_fract_z
    _atom_type_partial_charge
    C   C1    0.066906  0.502044  0.426251  0.656634
    C   C2    0.001013  0.532224  0.279492  -0.004154
    C   C3    0.394676  0.004130  0.616955  0.171218
    C   C4    0.123456  0.530029  0.385013  -0.215264
    C   C5    0.875760  0.531964  0.615188  -0.218810
    C   C6    0.623456  0.030029  0.385013  -0.215306
    C   C7    0.375760  0.031964  0.615188  -0.218875
    C   C8    0.158934  0.529195  0.348643  -0.082725
    C   C9    0.840269  0.531032  0.651258  -0.087472
    C   C10   0.658934  0.029195  0.348643  -0.082710
    C   C11   0.340269  0.031032  0.651258  -0.087437
    C   C12   0.176032  0.500593  0.309845  -0.148347
    C   C13   0.500060  0.031184  0.720117  0.009331
    C   C14   0.823195  0.502735  0.691322  -0.134498
    C   C15   0.676032  0.000593  0.309845  -0.148365
    C   C16   0.323195  0.002735  0.691322  -0.134523
    C   C17   0.998889  0.436352  0.002079  0.565349
    C   C18   0.498889  0.936352  0.002079  0.565326
    C   C19   0.005416  0.503247  0.876069  0.863037
    C   C20   0.993579  0.504104  0.125901  0.844217
    C   C21   0.505416  0.003247  0.876069  0.862994
    C   C22   0.493579  0.004104  0.125901  0.844201
    C   C23   0.000088  0.571032  0.999919  0.564850
    C   C24   0.501013  0.032224  0.279492  -0.004174
    C   C25   0.500088  0.071032  0.999919  0.564811
    C   C26   0.499705  0.436025  0.000848  0.576644
    C   C27   0.999705  0.936025  0.000848  0.576648
    C   C28   0.432139  0.503270  0.065914  0.788080
    C   C29   0.567047  0.503344  0.933708  0.780981
    C   C30   0.932139  0.003270  0.065914  0.788075
    C   C31   0.067047  0.003344  0.933708  0.780957
    C   C32   0.499498  0.571074  0.998838  0.742952
    C   C33   0.999498  0.071074  0.998838  0.742905
    C   C34   0.500764  0.627368  0.053250  0.508113
    C   C35   0.007147  0.502222  0.679734  0.015131
    C   C36   0.498223  0.627714  0.945571  0.509793
    C   C37   0.000764  0.127368  0.053250  0.508118
    C   C38   0.998223  0.127714  0.945571  0.509789
    C   C39   0.499707  0.662938  0.054015  -0.656361
    C   C40   0.499317  0.663278  0.945481  -0.655510
    C   C41   0.999707  0.162938  0.054015  -0.656369
    C   C42   0.999317  0.163278  0.945481  -0.655499
    C   C43   0.499519  0.680903  0.999918  0.549870
    C   C44   0.999519  0.180903  0.999918  0.549866
    C   C45   0.499485  0.609283  0.999237  -0.313601
    C   C46   0.991895  0.503982  0.322175  0.027191
    C   C47   0.999485  0.109283  0.999237  -0.313583
    C   C48   0.474550  0.736375  0.992167  0.058336
    C   C49   0.524427  0.736225  0.008782  0.054332
    C   C50   0.974550  0.236375  0.992167  0.058333
    C   C51   0.024427  0.236225  0.008782  0.054343
    C   C52   0.976065  0.272029  0.987545  0.238604
    C   C53   0.022863  0.271862  0.014101  0.243805
    C   C54   0.476065  0.772029  0.987545  0.238524
    C   C55   0.522863  0.771862  0.014101  0.243775
    C   C56   0.999443  0.289687  0.001018  -0.270067
    C   C57   0.507147  0.002222  0.679734  0.015133
    C   C58   0.499443  0.789687  0.001018  -0.269975
    C   C59   0.499500  0.718593  0.000299  -0.087271
    C   C60   0.999500  0.218593  0.000299  -0.087273
    C   C61   0.029444  0.345477  0.961780  -0.316559
    C   C62   0.969169  0.345230  0.041588  -0.315669
    C   C63   0.529444  0.845477  0.961780  -0.316522
    C   C64   0.469169  0.845230  0.041588  -0.315610
    C   C65   0.029400  0.380916  0.962484  -0.120985
    C   C66   0.968951  0.380661  0.041412  -0.123721
    C   C67   0.529400  0.880916  0.962484  -0.120993
    C   C68   0.491895  0.003982  0.322175  0.027153
    C   C69   0.468951  0.880661  0.041412  -0.123755
    C   C70   0.999100  0.398694  0.002035  0.105655
    C   C71   0.499100  0.898694  0.002035  0.105685
    C   C72   0.999362  0.327421  0.001495  0.428380
    C   C73   0.499362  0.827421  0.001495  0.428276
    C   C74   0.504177  0.380545  0.941916  -0.123276
    C   C75   0.495203  0.380246  0.058777  -0.124997
    C   C76   0.004177  0.880545  0.941916  -0.123263
    C   C77   0.995203  0.880246  0.058777  -0.124975
    C   C78   0.504236  0.345099  0.941600  -0.114311
    C   C79   0.015664  0.472709  0.704167  -0.086999
    C   C80   0.494957  0.344806  0.058607  -0.114380
    C   C81   0.004236  0.845099  0.941600  -0.114312
    C   C82   0.994957  0.844806  0.058607  -0.114386
    C   C83   0.499532  0.326992  0.999995  0.061068
    C   C84   0.999532  0.826992  0.999995  0.061060
    C   C85   0.499718  0.398334  0.000485  0.113712
    C   C86   0.999718  0.898334  0.000485  0.113684
    C   C87   0.475773  0.271229  0.057425  -0.151569
    C   C88   0.523060  0.271305  0.941927  -0.149462
    C   C89   0.975773  0.771229  0.057425  -0.151572
    C   C90   0.981182  0.475057  0.300280  -0.093325
    C   C91   0.023060  0.771305  0.941927  -0.149462
    C   C92   0.975633  0.735779  0.057145  -0.136438
    C   C93   0.023197  0.735856  0.941976  -0.137575
    C   C94   0.475633  0.235779  0.057145  -0.136442
    C   C95   0.523197  0.235856  0.941976  -0.137574
    C   C96   0.999436  0.717845  0.999525  0.103852
    C   C97   0.499436  0.217845  0.999525  0.103862
    C   C98   0.499438  0.289235  0.999760  0.077175
    C   C99   0.999438  0.789235  0.999760  0.077184
    C   C100  0.030371  0.662256  0.971987  -0.097262
    C   C101  0.515664  0.972709  0.704166  -0.087028
    C   C102  0.968924  0.661976  0.027265  -0.112108
    C   C103  0.530371  0.162256  0.971987  -0.097281
    C   C104  0.468924  0.161976  0.027265  -0.112126
    C   C105  0.030544  0.626815  0.972313  -0.187972
    C   C106  0.969067  0.626526  0.027230  -0.187247
    C   C107  0.530544  0.126815  0.972313  -0.187943
    C   C108  0.469067  0.126526  0.027230  -0.187215
    C   C109  0.999886  0.608729  0.999817  0.204103
    C   C110  0.499886  0.108729  0.999817  0.204081
    C   C111  0.999571  0.680082  0.999543  0.060314
    C   C112  0.932345  0.504189  0.575443  0.668641
    C   C113  0.481182  0.975057  0.300280  -0.093335
    C   C114  0.499571  0.180082  0.999543  0.060311
    C   C115  0.161383  0.427146  0.229366  0.754468
    C   C116  0.177898  0.393647  0.198374  -0.574438
    C   C117  0.837836  0.430987  0.775949  0.746874
    C   C118  0.821396  0.397690  0.808470  -0.572719
    C   C119  0.661383  0.927146  0.229366  0.754559
    C   C120  0.677898  0.893647  0.198374  -0.574529
    C   C121  0.337836  0.930987  0.775949  0.746890
    C   C122  0.321396  0.897690  0.808470  -0.572741
    C   C123  0.519798  0.620620  0.138160  0.866648
    C   C124  0.016234  0.473106  0.767531  -0.197387
    C   C125  0.513379  0.604097  0.204826  -0.577659
    C   C126  0.479185  0.621639  0.860534  0.871642
    C   C127  0.485600  0.605503  0.793539  -0.580172
    C   C128  0.019798  0.120620  0.138160  0.866693
    C   C129  0.013379  0.104097  0.204826  -0.577710
    C   C130  0.979185  0.121639  0.860534  0.871686
    C   C131  0.985600  0.105503  0.793539  -0.580223
    C   C132  0.415408  0.725744  0.030663  0.766434
    C   C133  0.388854  0.708767  0.017472  -0.592193
    C   C134  0.583577  0.725563  0.970166  0.766303
    C   C135  0.980396  0.475308  0.237123  -0.186608
    C   C136  0.610133  0.708388  0.983074  -0.591789
    C   C137  0.915408  0.225744  0.030663  0.766444
    C   C138  0.888854  0.208767  0.017472  -0.592223
    C   C139  0.083577  0.225563  0.970166  0.766309
    C   C140  0.110133  0.208388  0.983074  -0.591798
    C   C141  0.951888  0.282621  0.912993  0.795541
    C   C142  0.924465  0.299794  0.902890  -0.575127
    C   C143  0.047022  0.281946  0.088849  0.794561
    C   C144  0.074419  0.298955  0.099285  -0.572157
    C   C145  0.451888  0.782621  0.912993  0.795500
    C   C146  0.516234  0.973106  0.767531  -0.197363
    C   C147  0.424465  0.799794  0.902890  -0.575114
    C   C148  0.547022  0.781946  0.088849  0.794573
    C   C149  0.574419  0.798955  0.099285  -0.572148
    C   C150  0.941984  0.600855  0.877183  0.813250
    C   C151  0.907098  0.602808  0.939026  -0.587869
    C   C152  0.064091  0.596992  0.116168  0.816864
    C   C153  0.098894  0.596258  0.053910  -0.596806
    C   C154  0.441984  0.100855  0.877183  0.813275
    C   C155  0.407098  0.102808  0.939026  -0.587885
    C   C156  0.564091  0.096992  0.116168  0.817020
    C   C157  0.480396  0.975308  0.237123  -0.186597
    C   C158  0.598894  0.096258  0.053910  -0.596910
    C   C159  0.945383  0.591727  0.702175  0.951292
    C   C160  0.909349  0.590796  0.713567  -0.666208
    C   C161  0.060544  0.590639  0.288687  0.929899
    C   C162  0.095954  0.586891  0.279916  -0.648795
    C   C163  0.445383  0.091727  0.702175  0.951274
    C   C164  0.409349  0.090796  0.713567  -0.666159
    C   C165  0.560544  0.090639  0.288687  0.929820
    C   C166  0.595954  0.086891  0.279916  -0.648610
    C   C167  0.388642  0.415535  0.060447  0.824425
    C   C168  0.007809  0.502802  0.807365  0.042790
    C   C169  0.409468  0.390080  0.005310  -0.550751
    C   C170  0.611246  0.416911  0.943990  0.819412
    C   C171  0.590466  0.391946  0.000274  -0.543113
    C   C172  0.888642  0.915535  0.060447  0.824442
    C   C173  0.909468  0.890080  0.005310  -0.550769
    C   C174  0.111246  0.916911  0.943990  0.819420
    C   C175  0.090466  0.891946  0.000274  -0.543136
    C   C176  0.991203  0.504100  0.194605  0.030315
    C   C177  0.507809  0.002802  0.807365  0.042779
    C   C178  0.491203  0.004100  0.194605  0.030270
    C   C179  0.000160  0.531277  0.780751  -0.145622
    C   C180  0.566906  0.002044  0.426251  0.656592
    C   C181  0.001112  0.532015  0.218681  -0.136984
    C   C182  0.500160  0.031277  0.780751  -0.145594
    C   C183  0.501112  0.032015  0.218681  -0.136884
    C   C184  0.989138  0.567581  0.797034  0.333337
    C   C185  0.014774  0.567392  0.199457  0.342628
    C   C186  0.489138  0.067581  0.797034  0.333345
    C   C187  0.514774  0.067392  0.199457  0.342535
    C   C188  0.988435  0.567410  0.726178  0.158864
    C   C189  0.015273  0.567508  0.270527  0.163097
    C   C190  0.488435  0.067410  0.726178  0.158905
    C   C191  0.432345  0.004189  0.575443  0.668563
    C   C192  0.515273  0.067508  0.270527  0.163179
    C   C193  0.377706  0.474828  0.092063  0.301220
    C   C194  0.621740  0.475850  0.909248  0.296663
    C   C195  0.877706  0.974828  0.092063  0.301268
    C   C196  0.121740  0.975850  0.909248  0.296644
    C   C197  0.341969  0.474249  0.125667  -0.282901
    C   C198  0.657479  0.475595  0.875693  -0.283123
    C   C199  0.841969  0.974249  0.125667  -0.282955
    C   C200  0.157479  0.975595  0.875693  -0.283122
    C   C201  0.323405  0.501044  0.169035  0.075387
    C   C202  0.004882  0.502220  0.615196  0.601411
    C   C203  0.675826  0.501952  0.830665  0.084844
    C   C204  0.823405  0.001044  0.169035  0.075415
    C   C205  0.175826  0.001952  0.830665  0.084847
    C   C206  0.340611  0.528207  0.179402  -0.128460
    C   C207  0.658412  0.528303  0.818467  -0.133673
    C   C208  0.840611  0.028207  0.179402  -0.128471
    C   C209  0.158412  0.028303  0.818467  -0.133684
    C   C210  0.376110  0.528683  0.146408  -0.220495
    C   C211  0.622911  0.528434  0.851334  -0.214971
    C   C212  0.876110  0.028683  0.146408  -0.220473
    C   C213  0.994305  0.504034  0.386517  0.602898
    C   C214  0.122911  0.028434  0.851334  -0.214968
    C   C215  0.394560  0.502482  0.101612  -0.009005
    C   C216  0.604649  0.502758  0.897922  -0.013287
    C   C217  0.894560  0.002482  0.101612  -0.009043
    C   C218  0.104649  0.002758  0.897922  -0.013247
    C   C219  0.267566  0.529578  0.203874  -0.170796
    C   C220  0.731361  0.531350  0.794683  -0.167920
    C   C221  0.767566  0.029578  0.203874  -0.170774
    C   C222  0.231361  0.031350  0.794683  -0.167912
    C   C223  0.232018  0.529276  0.237137  -0.169701
    C   C224  0.504882  0.002220  0.615196  0.601459
    C   C225  0.766911  0.531366  0.761795  -0.172901
    C   C226  0.732018  0.029276  0.237137  -0.169739
    C   C227  0.266911  0.031366  0.761795  -0.172911
    C   C228  0.214015  0.500221  0.272192  0.206342
    C   C229  0.785207  0.502137  0.728414  0.199351
    C   C230  0.714015  0.000221  0.272192  0.206338
    C   C231  0.285207  0.002137  0.728414  0.199369
    C   C232  0.232235  0.471507  0.273546  -0.213372
    C   C233  0.767275  0.472949  0.728248  -0.211337
    C   C234  0.732235  0.971507  0.273546  -0.213297
    C   C235  0.494305  0.004034  0.386517  0.602975
    C   C236  0.267275  0.972949  0.728248  -0.211353
    C   C237  0.267788  0.471545  0.238768  -0.149839
    C   C238  0.731725  0.472691  0.762719  -0.145635
    C   C239  0.767788  0.971545  0.238768  -0.149895
    C   C240  0.231725  0.972691  0.762719  -0.145622
    C   C241  0.285629  0.500647  0.204122  0.093250
    C   C242  0.713596  0.501941  0.795773  0.088909
    C   C243  0.785629  0.000647  0.204122  0.093254
    C   C244  0.213596  0.001941  0.795773  0.088900
    C   C245  0.157050  0.472975  0.306141  0.420084
    C   C246  0.000060  0.531184  0.720117  0.009369
    C   C247  0.842205  0.475602  0.696757  0.413426
    C   C248  0.657050  0.972975  0.306141  0.420128
    C   C249  0.342205  0.975602  0.696757  0.413436
    C   C250  0.121413  0.473273  0.345803  -0.400276
    C   C251  0.877848  0.475933  0.657399  -0.402367
    C   C252  0.621413  0.973273  0.345803  -0.400291
    C   C253  0.377848  0.975933  0.657399  -0.402369
    C   C254  0.104570  0.501839  0.384795  0.180024
    C   C255  0.894676  0.504130  0.616955  0.171141
    C   C256  0.604570  0.001839  0.384795  0.180057
    H   H1    0.021689  0.449067  0.674624  0.117655
    H   H2    0.996358  0.585333  0.195064  -0.003531
    H   H3    0.689188  0.894921  0.140826  0.189221
    H   H4    0.658274  0.872928  0.219022  0.174411
    H   H5    0.300855  0.891603  0.794631  0.141799
    H   H6    0.309982  0.899686  0.865962  0.188754
    H   H7    0.341095  0.877020  0.788982  0.173545
    H   H8    0.517390  0.575950  0.196924  0.160652
    H   H9    0.486472  0.609264  0.245333  0.149889
    H   H10   0.531479  0.614767  0.221809  0.173898
    H   H11   0.481565  0.577335  0.800883  0.161529
    H   H12   0.512513  0.610743  0.753145  0.151414
    H   H13   0.508863  0.084257  0.799736  0.001976
    H   H14   0.467513  0.616410  0.776757  0.173507
    H   H15   0.017390  0.075950  0.196924  0.160662
    H   H16   0.986472  0.109264  0.245333  0.149902
    H   H17   0.031479  0.114767  0.221809  0.173908
    H   H18   0.981565  0.077335  0.800883  0.161540
    H   H19   0.012513  0.110743  0.753145  0.151426
    H   H20   0.967513  0.116410  0.776757  0.173518
    H   H21   0.401715  0.691877  0.971088  0.159070
    H   H22   0.373617  0.728661  0.007828  0.183818
    H   H23   0.371520  0.693169  0.063551  0.184815
    H   H24   0.496358  0.085333  0.195064  -0.003527
    H   H25   0.597276  0.691278  0.029107  0.159465
    H   H26   0.625331  0.728155  0.993160  0.183029
    H   H27   0.627503  0.692990  0.936693  0.184855
    H   H28   0.901715  0.191877  0.971088  0.159078
    H   H29   0.873617  0.228661  0.007828  0.183827
    H   H30   0.871520  0.193169  0.063551  0.184824
    H   H31   0.097276  0.191278  0.029107  0.159464
    H   H32   0.125331  0.228155  0.993160  0.183033
    H   H33   0.127503  0.192990  0.936693  0.184858
    H   H34   0.909299  0.317026  0.947762  0.133609
    H   H35   0.007560  0.584629  0.685758  0.041103
    H   H36   0.907206  0.280036  0.899484  0.179057
    H   H37   0.936456  0.315073  0.854063  0.184737
    H   H38   0.089562  0.316375  0.054743  0.132835
    H   H39   0.091704  0.279110  0.102321  0.178675
    H   H40   0.062403  0.314009  0.148399  0.183977
    H   H41   0.409299  0.817026  0.947762  0.133596
    H   H42   0.407206  0.780036  0.899484  0.179058
    H   H43   0.436456  0.815073  0.854063  0.184737
    H   H44   0.589562  0.816375  0.054743  0.132830
    H   H45   0.591704  0.779110  0.102321  0.178671
    H   H46   0.997426  0.586163  0.309399  0.041668
    H   H47   0.562403  0.814009  0.148399  0.183974
    H   H48   0.897822  0.576467  0.958349  0.131749
    H   H49   0.889070  0.615425  0.924008  0.167302
    H   H50   0.908457  0.617969  0.980699  0.194690
    H   H51   0.106407  0.569222  0.037533  0.131788
    H   H52   0.117854  0.608203  0.067147  0.170312
    H   H53   0.098284  0.610775  0.010749  0.194821
    H   H54   0.397822  0.076467  0.958349  0.131749
    H   H55   0.389069  0.115425  0.924008  0.167300
    H   H56   0.408457  0.117969  0.980699  0.194694
    H   H57   0.507560  0.084629  0.685758  0.041095
    H   H58   0.606407  0.069222  0.037533  0.131806
    H   H59   0.617854  0.108203  0.067147  0.170327
    H   H60   0.598284  0.110775  0.010749  0.194840
    H   H61   0.895192  0.569387  0.749477  0.129700
    H   H62   0.909682  0.586803  0.662944  0.211388
    H   H63   0.896382  0.615505  0.736685  0.179562
    H   H64   0.107536  0.562591  0.251861  0.129033
    H   H65   0.094624  0.586349  0.331940  0.206721
    H   H66   0.112009  0.608962  0.249544  0.174881
    H   H67   0.395192  0.069387  0.749477  0.129685
    H   H68   0.497426  0.086163  0.309399  0.041650
    H   H69   0.409682  0.086803  0.662944  0.211381
    H   H70   0.396382  0.115505  0.736685  0.179553
    H   H71   0.607536  0.062591  0.251861  0.128993
    H   H72   0.594624  0.086349  0.331940  0.206680
    H   H73   0.612009  0.108962  0.249544  0.174817
    H   H74   0.429333  0.403780  0.958909  0.139634
    H   H75   0.392381  0.375349  0.990632  0.151564
    H   H76   0.422261  0.372184  0.025371  0.162497
    H   H77   0.570478  0.405996  0.045931  0.137631
    H   H78   0.607555  0.377815  0.015814  0.150588
    H   H79   0.328323  0.453673  0.116051  0.153461
    H   H80   0.577813  0.373469  0.980949  0.160668
    H   H81   0.929333  0.903780  0.958909  0.139641
    H   H82   0.892381  0.875349  0.990632  0.151565
    H   H83   0.922261  0.872184  0.025371  0.162507
    H   H84   0.070478  0.905996  0.045931  0.137635
    H   H85   0.107555  0.877815  0.015814  0.150595
    H   H86   0.077813  0.873469  0.980949  0.160674
    H   H87   0.671285  0.455654  0.886602  0.152829
    H   H88   0.828323  0.953673  0.116051  0.153481
    H   H89   0.973425  0.452052  0.331899  0.112512
    H   H90   0.171285  0.955654  0.886602  0.152830
    H   H91   0.326410  0.548999  0.214174  0.116105
    H   H92   0.672459  0.548721  0.782405  0.116609
    H   H93   0.826410  0.048999  0.214174  0.116108
    H   H94   0.172459  0.048721  0.782405  0.116614
    H   H95   0.389490  0.549981  0.154670  0.158206
    H   H96   0.609393  0.549141  0.841683  0.159405
    H   H97   0.889490  0.049981  0.154670  0.158197
    H   H98   0.109393  0.049141  0.841683  0.159402
    H   H99   0.281143  0.552452  0.176294  0.113948
    H   H100  0.521689  0.949067  0.674624  0.117668
    H   H101  0.717541  0.554364  0.820991  0.111881
    H   H102  0.781143  0.052452  0.176294  0.113942
    H   H103  0.217541  0.054364  0.820991  0.111879
    H   H104  0.218494  0.551954  0.234648  0.128014
    H   H105  0.780196  0.554429  0.763312  0.130159
    H   H106  0.718494  0.051954  0.234648  0.128026
    H   H107  0.280196  0.054429  0.763312  0.130160
    H   H108  0.218918  0.448977  0.303108  0.108923
    H   H109  0.780820  0.450231  0.699922  0.107873
    H   H110  0.718918  0.948977  0.303108  0.108875
    H   H111  0.473425  0.952052  0.331899  0.112520
    H   H112  0.280820  0.950231  0.699922  0.107877
    H   H113  0.281533  0.448977  0.240974  0.160920
    H   H114  0.718207  0.449728  0.761559  0.158657
    H   H115  0.781533  0.948977  0.240974  0.160938
    H   H116  0.218207  0.949728  0.761559  0.158653
    H   H117  0.106510  0.451105  0.346506  0.213983
    H   H118  0.892757  0.454036  0.657985  0.218359
    H   H119  0.606510  0.951105  0.346506  0.213982
    H   H120  0.392757  0.954036  0.657985  0.218352
    H   H121  0.110764  0.552470  0.415820  0.126443
    H   H122  0.022325  0.449870  0.786605  0.138777
    H   H123  0.888434  0.554130  0.583337  0.130754
    H   H124  0.610764  0.052470  0.415820  0.126461
    H   H125  0.388434  0.054130  0.583337  0.130778
    H   H126  0.173182  0.550968  0.352359  0.112575
    H   H127  0.826000  0.552442  0.646240  0.114142
    H   H128  0.673182  0.050968  0.352359  0.112577
    H   H129  0.326000  0.052442  0.646240  0.114133
    H   H130  0.498269  0.677116  0.097931  0.257088
    H   H131  0.500762  0.677719  0.901842  0.256709
    H   H132  0.998269  0.177116  0.097931  0.257090
    H   H133  0.972462  0.452522  0.220150  0.142993
    H   H134  0.000762  0.177719  0.901842  0.256710
    H   H135  0.053182  0.331954  0.929211  0.178889
    H   H136  0.945522  0.331513  0.073903  0.180097
    H   H137  0.553182  0.831954  0.929211  0.178883
    H   H138  0.445522  0.831513  0.073903  0.180083
    H   H139  0.053236  0.394437  0.930720  0.138699
    H   H140  0.944999  0.393968  0.073324  0.137831
    H   H141  0.553236  0.894437  0.930720  0.138698
    H   H142  0.444999  0.893968  0.073324  0.137836
    H   H143  0.507663  0.394021  0.895691  0.109731
    H   H144  0.522325  0.949870  0.786605  0.138769
    H   H145  0.491765  0.393479  0.105208  0.109364
    H   H146  0.007663  0.894021  0.895691  0.109725
    H   H147  0.991765  0.893479  0.105208  0.109358
    H   H148  0.507229  0.331744  0.895603  0.102720
    H   H149  0.491897  0.331214  0.104417  0.103624
    H   H150  0.007229  0.831744  0.895603  0.102720
    H   H151  0.991897  0.831214  0.104417  0.103623
    H   H152  0.456721  0.284668  0.102877  0.108197
    H   H153  0.542138  0.284800  0.896596  0.106893
    H   H154  0.956721  0.784668  0.102877  0.108199
    H   H155  0.472462  0.952522  0.220150  0.142994
    H   H156  0.042138  0.784800  0.896596  0.106893
    H   H157  0.957120  0.722287  0.103155  0.115326
    H   H158  0.041743  0.722425  0.895909  0.117628
    H   H159  0.457120  0.222287  0.103155  0.115328
    H   H160  0.541743  0.222425  0.895909  0.117630
    H   H161  0.054632  0.675833  0.951304  0.094733
    H   H162  0.944543  0.675332  0.047930  0.097665
    H   H163  0.554632  0.175833  0.951304  0.094734
    H   H164  0.444543  0.175332  0.047930  0.097669
    H   H165  0.055013  0.613594  0.950922  0.129005
    H   H166  0.008863  0.584257  0.799736  0.001983
    H   H167  0.944729  0.613054  0.048832  0.130327
    H   H168  0.555013  0.113594  0.950922  0.128998
    H   H169  0.444729  0.113054  0.048832  0.130320
    H   H170  0.198546  0.388182  0.212244  0.140619
    H   H171  0.189188  0.394921  0.140826  0.189206
    H   H172  0.158274  0.372928  0.219022  0.174391
    H   H173  0.800855  0.391603  0.794631  0.141796
    H   H174  0.809982  0.399686  0.865962  0.188748
    H   H175  0.841095  0.377020  0.788982  0.173539
    H   H176  0.698546  0.888182  0.212244  0.140642
    O   O1    0.050929  0.531796  0.443646  -0.698502
    O   O2    0.995504  0.533734  0.413702  -0.636984
    O   O3    0.633561  0.406340  0.887860  -0.569991
    O   O4    0.896748  0.949265  0.049061  -0.351581
    O   O5    0.866451  0.905432  0.117146  -0.569365
    O   O6    0.102944  0.950638  0.953700  -0.341545
    O   O7    0.133561  0.906340  0.887860  -0.569994
    O   O8    0.502672  0.031890  0.589027  -0.642504
    O   O9    0.495504  0.033734  0.413702  -0.637007
    O   O10   0.004652  0.472555  0.586901  -0.632566
    O   O11   0.995659  0.474351  0.413621  -0.639072
    O   O12   0.504652  0.972555  0.586901  -0.632578
    O   O13   0.495659  0.974351  0.413621  -0.639108
    O   O14   0.969060  0.452211  0.028219  -0.661279
    O   O15   0.028529  0.452627  0.975891  -0.681006
    O   O16   0.469060  0.952211  0.028219  -0.661284
    O   O17   0.948388  0.533809  0.555478  -0.695505
    O   O18   0.528529  0.952627  0.975891  -0.681000
    O   O19   0.974609  0.502698  0.930514  -0.744828
    O   O20   0.024367  0.505203  0.071462  -0.735945
    O   O21   0.474609  0.002698  0.930514  -0.744796
    O   O22   0.524367  0.005203  0.071462  -0.735908
    O   O23   0.034051  0.504175  0.880194  -0.756222
    O   O24   0.964961  0.502821  0.121756  -0.749961
    O   O25   0.534051  0.004175  0.880194  -0.756201
    O   O26   0.464961  0.002821  0.121756  -0.749954
    O   O27   0.970438  0.554736  0.026811  -0.695550
    O   O28   0.550929  0.031796  0.443646  -0.698474
    O   O29   0.029925  0.555148  0.973038  -0.670959
    O   O30   0.470438  0.054736  0.026811  -0.695525
    O   O31   0.529925  0.055148  0.973038  -0.670949
    O   O32   0.498232  0.451944  0.055265  -0.655501
    O   O33   0.501071  0.452284  0.946811  -0.675255
    O   O34   0.998232  0.951944  0.055265  -0.655503
    O   O35   0.001071  0.952284  0.946811  -0.675251
    O   O36   0.447892  0.502879  0.103831  -0.735027
    O   O37   0.551286  0.504770  0.895862  -0.734455
    O   O38   0.947892  0.002879  0.103831  -0.735016
    O   O39   0.448388  0.033809  0.555478  -0.695501
    O   O40   0.051286  0.004770  0.895862  -0.734480
    O   O41   0.448433  0.503895  0.997513  -0.784602
    O   O42   0.550737  0.502215  0.002083  -0.783287
    O   O43   0.948433  0.003895  0.997513  -0.784592
    O   O44   0.050737  0.002215  0.002083  -0.783310
    O   O45   0.498906  0.554460  0.051804  -0.688965
    O   O46   0.500153  0.554806  0.945506  -0.666093
    O   O47   0.998906  0.054460  0.051804  -0.688938
    O   O48   0.000153  0.054806  0.945506  -0.666063
    O   O49   0.173591  0.445885  0.265000  -0.350842
    O   O50   0.050744  0.472441  0.444566  -0.725280
    O   O51   0.138830  0.438473  0.217806  -0.530932
    O   O52   0.825687  0.448899  0.739206  -0.345923
    O   O53   0.860266  0.442931  0.787202  -0.526685
    O   O54   0.673591  0.945885  0.265000  -0.350875
    O   O55   0.638830  0.938473  0.217806  -0.530965
    O   O56   0.325687  0.948899  0.739206  -0.345931
    O   O57   0.360266  0.942931  0.787202  -0.526690
    O   O58   0.501482  0.610335  0.106441  -0.396990
    O   O59   0.543187  0.641384  0.110348  -0.566084
    O   O60   0.497487  0.611022  0.892060  -0.404700
    O   O61   0.948439  0.474500  0.559556  -0.737985
    O   O62   0.455813  0.642387  0.888746  -0.566981
    O   O63   0.001482  0.110335  0.106441  -0.397012
    O   O64   0.043187  0.141384  0.110348  -0.566094
    O   O65   0.997487  0.111022  0.892060  -0.404719
    O   O66   0.955813  0.142387  0.888746  -0.566998
    O   O67   0.449077  0.718559  0.989133  -0.231636
    O   O68   0.406551  0.745169  0.080182  -0.558625
    O   O69   0.549913  0.718281  0.011501  -0.231831
    O   O70   0.592430  0.745241  0.921035  -0.558069
    O   O71   0.949077  0.218559  0.989133  -0.231653
    O   O72   0.550744  0.972441  0.444566  -0.725263
    O   O73   0.906551  0.245169  0.080182  -0.558625
    O   O74   0.049913  0.218281  0.011501  -0.231834
    O   O75   0.092430  0.245241  0.921035  -0.558074
    O   O76   0.955160  0.289961  0.970034  -0.324683
    O   O77   0.971919  0.262935  0.868639  -0.559608
    O   O78   0.043743  0.289614  0.031946  -0.326180
    O   O79   0.027018  0.262093  0.132824  -0.559792
    O   O80   0.455160  0.789961  0.970034  -0.324612
    O   O81   0.471919  0.762935  0.868639  -0.559596
    O   O82   0.543743  0.789614  0.031946  -0.326170
    O   O83   0.448439  0.974500  0.559556  -0.737976
    O   O84   0.527018  0.762093  0.132824  -0.559796
    O   O85   0.956819  0.569971  0.853355  -0.383828
    O   O86   0.956988  0.627177  0.848181  -0.599954
    O   O87   0.047234  0.567298  0.143228  -0.383644
    O   O88   0.050933  0.624434  0.142431  -0.595446
    O   O89   0.456819  0.069971  0.853355  -0.383839
    O   O90   0.456988  0.127177  0.848181  -0.599960
    O   O91   0.547234  0.067298  0.143228  -0.383696
    O   O92   0.550933  0.124434  0.142431  -0.595471
    O   O93   0.955341  0.568964  0.735782  -0.370607
    O   O94   0.002672  0.531890  0.589027  -0.642504
    O   O95   0.965474  0.613125  0.662956  -0.612308
    O   O96   0.048303  0.566704  0.261359  -0.369663
    O   O97   0.043089  0.615469  0.319741  -0.603081
    O   O98   0.455341  0.068964  0.735782  -0.370615
    O   O99   0.465474  0.113125  0.662956  -0.612318
    O   O100  0.548303  0.066704  0.261359  -0.369681
    O   O101  0.543089  0.115469  0.319741  -0.603062
    O   O102  0.396748  0.449265  0.049061  -0.351563
    O   O103  0.366451  0.405432  0.117146  -0.569358
    O   O104  0.602944  0.450638  0.953700  -0.341555
    Zn  Zn1   0.999895  0.542091  0.500772  1.316826
    Zn  Zn2   0.499781  0.503422  0.930356  1.351176
    Zn  Zn3   0.999411  0.003320  0.069327  1.350554
    Zn  Zn4   0.999781  0.003422  0.930356  1.351203
    Zn  Zn5   0.499895  0.042091  0.500772  1.316821
    Zn  Zn6   0.999337  0.464175  0.500899  1.318578
    Zn  Zn7   0.499337  0.964175  0.500899  1.318571
    Zn  Zn8   0.960521  0.503571  0.033514  1.341362
    Zn  Zn9   0.038451  0.503773  0.968486  1.337428
    Zn  Zn10  0.460521  0.003571  0.033514  1.341353
    Zn  Zn11  0.538451  0.003773  0.968486  1.337413
    Zn  Zn12  0.499411  0.503320  0.069327  1.350554
