# Generated by REPEAT Assigner based on pymatgen
data_DB0-m3_o12_o21_f0_pcu.sym.34_sqe
_audit_creation_date              2022-05-24
_audit_creation_method            REPEAT_Assigner
_cell_length_a                    10.170475
_cell_length_b                    11.290425
_cell_length_c                    14.046047
_cell_angle_alpha                 90.966074
_cell_angle_beta                  75.935915
_cell_angle_gamma                 92.477700
_cell_volume                      1563.049876
_symmetry_space_group_name_H-M    P1
_symmetry_Int_Tables_number       1
loop_
    _symmetry_equiv_pos_site_id
    _symmetry_equiv_pos_as_xyz
    1  x,y,z
loop_
    _atom_site_type_symbol
    _atom_site_label
    _atom_site_fract_x
    _atom_site_fract_y
    _atom_site_fract_z
    _atom_type_partial_charge
    O   O1   0.409509  0.689922  0.512024  -0.713825
    O   O2   0.589970  0.317345  0.491925  -0.741697
    O   O3   0.640022  0.669361  0.489396  -0.685730
    O   O4   0.359321  0.337928  0.517327  -0.651129
    C   C1   0.534039  0.734777  0.499194  0.787196
    C   C2   0.465586  0.272409  0.504644  0.793811
    O   O5   0.360218  0.516557  0.659282  -0.725553
    O   O6   0.639202  0.491910  0.345447  -0.686565
    O   O7   0.590287  0.493808  0.635603  -0.624761
    O   O8   0.408283  0.511818  0.369114  -0.672115
    C   C3   0.468884  0.505594  0.692598  0.914665
    C   C4   0.530150  0.501534  0.312170  0.900443
    Zn  Zn1  0.347547  0.516557  0.517496  1.051862
    Zn  Zn2  0.651811  0.490695  0.487239  1.048909
    N   N1   0.851978  0.475970  0.468845  0.096323
    N   N2   0.147506  0.531142  0.535816  0.102835
    C   C5   0.543550  0.501027  0.208057  -0.363921
    C   C6   0.455509  0.505922  0.796708  -0.305102
    C   C7   0.556486  0.501795  0.017753  0.140671
    C   C8   0.442503  0.504942  0.987022  0.256895
    C   C9   0.919748  0.467798  0.534739  0.342244
    C   C10  0.067787  0.455469  0.505993  0.241425
    C   C11  0.448304  0.505654  0.883630  -0.030416
    C   C12  0.550720  0.501167  0.121138  0.055152
    C   C13  0.558539  0.863864  0.501452  0.067875
    C   C14  0.439669  0.143353  0.510936  0.062619
    C   C15  0.490475  0.938644  0.459571  0.157566
    C   C16  0.525269  0.067034  0.456463  0.168273
    N   N3   0.084221  0.627962  0.585919  -0.851913
    H   H1   0.106121  0.630817  0.654800  0.353928
    H   H2   0.128218  0.703841  0.547610  0.393269
    N   N4   0.932511  0.489352  0.374455  -0.809779
    H   H3   0.911166  0.570690  0.348519  0.360544
    H   H4   0.902772  0.422154  0.331211  0.350499
    N   N5   0.314216  0.507134  0.056381  -0.716671
    H   H5   0.240189  0.513491  0.016829  0.313657
    H   H6   0.297481  0.425685  0.092415  0.300763
    N   N6   0.684757  0.499465  0.948389  -0.654290
    H   H7   0.758770  0.493037  0.987944  0.291121
    H   H8   0.701603  0.580882  0.912318  0.293788
    N   N7   0.643296  0.109719  0.385942  -0.684365
    H   H9   0.680564  0.038615  0.340300  0.305107
    H   H10  0.717004  0.135647  0.423288  0.266472
    N   N8   0.395231  0.893771  0.406656  -0.683170
    H   H11  0.305516  0.868881  0.457469  0.252740
    H   H12  0.373489  0.963490  0.365777  0.313723
    N   N9   0.314956  0.100826  0.574246  -0.782774
    H   H13  0.336064  0.040003  0.623184  0.305453
    H   H14  0.254124  0.060168  0.532120  0.288230
    N   N10  0.664106  0.907861  0.545290  -0.799531
    H   H15  0.624728  0.970447  0.599102  0.313277
    H   H16  0.742301  0.946782  0.491343  0.301154
    N   N11  0.121779  0.352897  0.452021  -0.556179
    H   H17  0.040787  0.297158  0.443436  0.299103
    H   H18  0.176509  0.380407  0.382576  0.286169
    N   N12  0.851352  0.460538  0.636151  -0.710708
    H   H19  0.920315  0.432503  0.674457  0.330904
    H   H20  0.824606  0.546089  0.660517  0.341532
