# Generated by REPEAT Assigner based on pymatgen
data_DB0-m3_o24_o45_f0_fsc.sym.52_sqe
_audit_creation_date              2022-05-24
_audit_creation_method            REPEAT_Assigner
_cell_length_a                    8.558259
_cell_length_b                    9.148868
_cell_length_c                    12.822367
_cell_angle_alpha                 90.612822
_cell_angle_beta                  93.591697
_cell_angle_gamma                 90.540471
_cell_volume                      1001.889921
_symmetry_space_group_name_H-M    P1
_symmetry_Int_Tables_number       1
loop_
    _symmetry_equiv_pos_site_id
    _symmetry_equiv_pos_as_xyz
    1  x,y,z
loop_
    _atom_site_type_symbol
    _atom_site_label
    _atom_site_fract_x
    _atom_site_fract_y
    _atom_site_fract_z
    _atom_type_partial_charge
    C   C1   0.845414  0.996579  0.296879  -0.079443
    C   C2   0.157421  0.027379  0.704839  -0.096949
    C   C3   0.829686  0.007036  0.189818  0.158749
    C   C4   0.171065  0.004394  0.811099  0.165979
    C   C5   0.960672  0.024579  0.133645  0.294339
    C   C6   0.040760  0.015425  0.869011  0.238505
    C   C7   0.108618  0.030336  0.185938  -0.304562
    C   C8   0.892385  0.024246  0.817559  -0.176606
    H   H1   0.211823  0.055854  0.145482  0.130477
    H   H2   0.786726  0.023255  0.859073  0.040645
    C   C9   0.123949  0.001077  0.291978  0.006678
    C   C10  0.879037  0.033040  0.709658  -0.031184
    C   C11  0.991641  0.981519  0.345487  -0.195274
    C   C12  0.012070  0.047960  0.656217  -0.218706
    N   N1   0.939409  0.030704  0.023472  -0.174985
    N   N2   0.062622  0.010065  0.979290  -0.086205
    H   H3   0.003259  0.959740  0.427550  0.125966
    H   H4   0.001412  0.068439  0.573961  0.169539
    O   O1   0.664894  0.133364  0.393013  -0.757173
    O   O2   0.338435  0.895615  0.608452  -0.607404
    O   O3   0.657322  0.881470  0.396852  -0.598459
    O   O4   0.345334  0.147414  0.604803  -0.697226
    C   C13  0.711009  0.004173  0.361438  0.848123
    C   C14  0.292030  0.023590  0.640253  0.810881
    O   O5   0.676144  0.896681  0.613775  -0.733864
    O   O6   0.327226  0.133159  0.387824  -0.742937
    O   O7   0.672454  0.148369  0.609942  -0.731197
    O   O8   0.330202  0.881441  0.391776  -0.729627
    C   C15  0.728851  0.025689  0.647464  0.874826
    C   C16  0.274206  0.005028  0.354152  0.867816
    Zn  Zn1  0.500448  0.851933  0.505465  0.892933
    Zn  Zn2  0.502648  0.177427  0.496155  1.029594
    C   C17  0.487525  0.574140  0.412648  -0.039204
    C   C18  0.515492  0.455186  0.589011  0.010872
    C   C19  0.376874  0.464615  0.454871  -0.118364
    C   C20  0.626181  0.564719  0.546785  -0.131073
    H   H5   0.268695  0.419536  0.413972  0.106691
    H   H6   0.734353  0.609807  0.587685  0.101053
    H   H7   0.474481  0.628058  0.335621  0.098607
    H   H8   0.527884  0.401163  0.666058  0.072462
    N   N3   0.503807  0.369237  0.492059  0.295944
    N   N4   0.499245  0.660114  0.509589  0.366584
    C   C21  0.614570  0.471419  0.449543  -0.075351
    C   C22  0.388471  0.557913  0.552087  -0.167030
    H   H9   0.712390  0.432121  0.404232  0.101950
    H   H10  0.290359  0.597110  0.597134  0.144675
    O   O9   0.688554  0.989010  0.139219  -0.435278
    C   C23  0.602550  0.869602  0.159329  0.880766
    O   O10  0.662131  0.769917  0.209445  -0.566049
    C   C24  0.438957  0.853421  0.114379  -0.567570
    H   H11  0.409347  0.948471  0.064417  0.108407
    H   H12  0.359080  0.845770  0.178901  0.160084
    H   H13  0.427445  0.751590  0.066939  0.162351
    O   O11  0.310006  0.969639  0.858545  -0.406705
    C   C25  0.379439  0.844286  0.831653  0.763170
    O   O12  0.305618  0.752685  0.778775  -0.546910
    C   C26  0.542485  0.812577  0.871601  -0.425457
    H   H14  0.583684  0.898512  0.928538  0.146550
    H   H15  0.619598  0.809296  0.805348  0.142629
    H   H16  0.545562  0.704637  0.910075  0.122947
