data_DB0-m3_o11_o28_f0_pcu.sym.32_repeat
_audit_creation_date              2024-02-20
_audit_creation_method            'Materials Studio'
_symmetry_space_group_name_H-M    'P1'
_symmetry_Int_Tables_number       1
_symmetry_cell_setting            triclinic
loop_
_symmetry_equiv_pos_as_xyz
  x,y,z
_cell_length_a                    23.4340
_cell_length_b                    11.1810
_cell_length_c                    9.9561
_cell_angle_alpha                 89.9974
_cell_angle_beta                  89.9815
_cell_angle_gamma                 90.0113
loop_
_atom_site_label
_atom_site_type_symbol
_atom_site_fract_x
_atom_site_fract_y
_atom_site_fract_z
_atom_site_U_iso_or_equiv
_atom_site_adp_type
_atom_site_occupancy
O1     O     0.49580   0.32373   0.61356   0.00000  Uiso   1.00
O2     O     0.49735   0.32221   0.38184   0.00000  Uiso   1.00
C1     C     0.49484   0.26700   0.49826   0.00000  Uiso   1.00
O3     O     0.41688   0.51419   0.60822   0.00000  Uiso   1.00
O4     O     0.41809   0.51141   0.37651   0.00000  Uiso   1.00
C2     C     0.39074   0.51581   0.49163   0.00000  Uiso   1.00
Zn1    Zn    0.50121   0.50151   0.65056   0.00000  Uiso   1.00
Zn2    Zn    0.50335   0.50000   0.34484   0.00000  Uiso   1.00
O5     O     0.50808   0.67920   0.61380   0.00000  Uiso   1.00
O6     O     0.50822   0.67781   0.38225   0.00000  Uiso   1.00
O7     O     0.58643   0.48886   0.61872   0.00000  Uiso   1.00
O8     O     0.58770   0.48837   0.38720   0.00000  Uiso   1.00
C3     C     0.50950   0.73443   0.49757   0.00000  Uiso   1.00
C4     C     0.61376   0.48484   0.50365   0.00000  Uiso   1.00
C5     C     0.88121   0.59400   0.53258   0.00000  Uiso   1.00
N1     N     0.85536   0.49039   0.50112   0.00000  Uiso   1.00
C6     C     0.88545   0.39307   0.46589   0.00000  Uiso   1.00
C7     C     0.94480   0.39729   0.46206   0.00000  Uiso   1.00
C8     C     0.97240   0.50359   0.49406   0.00000  Uiso   1.00
C9     C     0.94055   0.60296   0.52932   0.00000  Uiso   1.00
C10    C     0.97712   0.29754   0.42714   0.00000  Uiso   1.00
C11    C     0.03558   0.30472   0.42532   0.00000  Uiso   1.00
C12    C     0.06290   0.41006   0.45709   0.00000  Uiso   1.00
C13    C     0.03160   0.51020   0.49087   0.00000  Uiso   1.00
C14    C     0.05990   0.61589   0.52152   0.00000  Uiso   1.00
C15    C     0.02741   0.71637   0.55592   0.00000  Uiso   1.00
C16    C     0.96857   0.70930   0.55996   0.00000  Uiso   1.00
C17    C     0.12166   0.41480   0.45532   0.00000  Uiso   1.00
N2     N     0.14885   0.51701   0.48532   0.00000  Uiso   1.00
C18    C     0.11975   0.61677   0.51748   0.00000  Uiso   1.00
O9     O     0.84832   0.68830   0.56416   0.00000  Uiso   1.00
O10    O     0.85689   0.29212   0.43700   0.00000  Uiso   1.00
H1     H     0.05953   0.22572   0.39836   0.00000  Uiso   1.00
O11    O     0.15221   0.31749   0.42207   0.00000  Uiso   1.00
O12    O     0.14992   0.71498   0.54854   0.00000  Uiso   1.00
C19    C     0.23979   0.58442   0.39437   0.00000  Uiso   1.00
H2     H     0.21716   0.63624   0.31976   0.00000  Uiso   1.00
C20    C     0.29870   0.58355   0.39510   0.00000  Uiso   1.00
C21    C     0.32800   0.51733   0.49052   0.00000  Uiso   1.00
C22    C     0.29753   0.45134   0.58455   0.00000  Uiso   1.00
C23    C     0.23857   0.45220   0.58229   0.00000  Uiso   1.00
H3     H     0.21436   0.40066   0.65441   0.00000  Uiso   1.00
C24    C     0.20968   0.51843   0.48749   0.00000  Uiso   1.00
C25    C     0.76519   0.49411   0.62238   0.00000  Uiso   1.00
H4     H     0.78825   0.50395   0.71577   0.00000  Uiso   1.00
C26    C     0.70633   0.49146   0.62341   0.00000  Uiso   1.00
H5     H     0.68431   0.49993   0.71818   0.00000  Uiso   1.00
C27    C     0.67637   0.48066   0.50434   0.00000  Uiso   1.00
C28    C     0.70603   0.46979   0.38475   0.00000  Uiso   1.00
H6     H     0.68382   0.46101   0.29018   0.00000  Uiso   1.00
C29    C     0.76485   0.47103   0.38423   0.00000  Uiso   1.00
H7     H     0.78758   0.46401   0.29006   0.00000  Uiso   1.00
C30    C     0.79460   0.48442   0.50276   0.00000  Uiso   1.00
C31    C     0.49311   0.93491   0.40366   0.00000  Uiso   1.00
C32    C     0.51658   0.86494   0.49762   0.00000  Uiso   1.00
H8     H     0.54241   0.90458   0.57606   0.00000  Uiso   1.00
C33    C     0.50404   0.06494   0.40257   0.00000  Uiso   1.00
C34    C     0.48638   0.13671   0.50285   0.00000  Uiso   1.00
C35    C     0.53716   0.56054   0.91972   0.00000  Uiso   1.00
N3     N     0.49944   0.50295   0.85157   0.00000  Uiso   1.00
H9     H     0.46367   0.47442   0.90176   0.00000  Uiso   1.00
C36    C     0.53386   0.57460   0.06777   0.00000  Uiso   1.00
N4     N     0.50629   0.50059   0.14371   0.00000  Uiso   1.00
H10    H     0.49015   0.42590   0.09742   0.00000  Uiso   1.00
N5     N     0.95148   0.18611   0.39288   0.00000  Uiso   1.00
H11    H     0.96490   0.16364   0.29610   0.00000  Uiso   1.00
H12    H     0.96706   0.12167   0.45932   0.00000  Uiso   1.00
N6     N     0.45707   0.88443   0.30287   0.00000  Uiso   1.00
H13    H     0.47478   0.90327   0.20909   0.00000  Uiso   1.00
H14    H     0.41763   0.92751   0.30887   0.00000  Uiso   1.00
N7     N     0.53433   0.11424   0.29105   0.00000  Uiso   1.00
H15    H     0.57248   0.06683   0.28113   0.00000  Uiso   1.00
H16    H     0.51003   0.10080   0.20455   0.00000  Uiso   1.00
N8     N     0.45582   0.08971   0.61555   0.00000  Uiso   1.00
H17    H     0.48303   0.03819   0.67477   0.00000  Uiso   1.00
H18    H     0.42154   0.03840   0.58139   0.00000  Uiso   1.00
N9     N     0.58194   0.62111   0.85041   0.00000  Uiso   1.00
H19    H     0.62059   0.59422   0.89286   0.00000  Uiso   1.00
H20    H     0.57705   0.71291   0.86581   0.00000  Uiso   1.00
N10    N     0.56546   0.67093   0.12520   0.00000  Uiso   1.00
H21    H     0.53692   0.73568   0.15879   0.00000  Uiso   1.00
H22    H     0.59041   0.63875   0.20378   0.00000  Uiso   1.00
N11    N     0.05249   0.82926   0.58809   0.00000  Uiso   1.00
H23    H     0.07554   0.86132   0.50585   0.00000  Uiso   1.00
H24    H     0.07764   0.82128   0.67417   0.00000  Uiso   1.00
N12    N     0.93743   0.81403   0.59647   0.00000  Uiso   1.00
H25    H     0.94687   0.88174   0.52772   0.00000  Uiso   1.00
H26    H     0.95017   0.84056   0.69246   0.00000  Uiso   1.00
N13    N     0.32888   0.65423   0.29961   0.00000  Uiso   1.00
H27    H     0.31658   0.62586   0.20399   0.00000  Uiso   1.00
H28    H     0.31575   0.74281   0.31171   0.00000  Uiso   1.00
N14    N     0.32665   0.37833   0.68009   0.00000  Uiso   1.00
H29    H     0.34665   0.30924   0.62748   0.00000  Uiso   1.00
H30    H     0.29675   0.33956   0.74441   0.00000  Uiso   1.00
