data_DB0-m3_o11_o29_f0_pcu.sym.49_repeat
_audit_creation_date              2024-02-20
_audit_creation_method            'Materials Studio'
_symmetry_space_group_name_H-M    'P1'
_symmetry_Int_Tables_number       1
_symmetry_cell_setting            triclinic
loop_
_symmetry_equiv_pos_as_xyz
  x,y,z
_cell_length_a                    27.5983
_cell_length_b                    11.0987
_cell_length_c                    9.9062
_cell_angle_alpha                 89.9974
_cell_angle_beta                  89.9930
_cell_angle_gamma                 89.9936
loop_
_atom_site_label
_atom_site_type_symbol
_atom_site_fract_x
_atom_site_fract_y
_atom_site_fract_z
_atom_site_U_iso_or_equiv
_atom_site_adp_type
_atom_site_occupancy
O1     O     0.49969   0.33367   0.61968   0.00000  Uiso   1.00
O2     O     0.49820   0.33429   0.38719   0.00000  Uiso   1.00
C1     C     0.49765   0.27783   0.50360   0.00000  Uiso   1.00
O3     O     0.43208   0.52347   0.63018   0.00000  Uiso   1.00
O4     O     0.42995   0.52404   0.39760   0.00000  Uiso   1.00
C2     C     0.40840   0.52949   0.51555   0.00000  Uiso   1.00
Zn1    Zn    0.50455   0.51199   0.66039   0.00000  Uiso   1.00
Zn2    Zn    0.50156   0.51424   0.35334   0.00000  Uiso   1.00
O5     O     0.50879   0.69177   0.62688   0.00000  Uiso   1.00
O6     O     0.50686   0.69278   0.39342   0.00000  Uiso   1.00
O7     O     0.57608   0.50095   0.61636   0.00000  Uiso   1.00
O8     O     0.57407   0.50250   0.38319   0.00000  Uiso   1.00
C3     C     0.50907   0.74832   0.51037   0.00000  Uiso   1.00
C4     C     0.59770   0.49824   0.49835   0.00000  Uiso   1.00
C5     C     0.18111   0.40010   0.46299   0.00000  Uiso   1.00
O9     O     0.20717   0.32156   0.38958   0.00000  Uiso   1.00
N1     N     0.20403   0.48636   0.53421   0.00000  Uiso   1.00
C6     C     0.17848   0.56659   0.60726   0.00000  Uiso   1.00
C7     C     0.27514   0.60250   0.47506   0.00000  Uiso   1.00
C8     C     0.32478   0.62462   0.47509   0.00000  Uiso   1.00
C9     C     0.33469   0.42600   0.57116   0.00000  Uiso   1.00
C10    C     0.28534   0.40984   0.57561   0.00000  Uiso   1.00
C11    C     0.25544   0.49836   0.52679   0.00000  Uiso   1.00
C12    C     0.10416   0.47850   0.53223   0.00000  Uiso   1.00
C13    C     0.13092   0.39499   0.46149   0.00000  Uiso   1.00
C14    C     0.10738   0.30893   0.38643   0.00000  Uiso   1.00
C15    C     0.12842   0.56396   0.60668   0.00000  Uiso   1.00
C16    C     0.35522   0.53045   0.52050   0.00000  Uiso   1.00
H1     H     0.35802   0.35454   0.60688   0.00000  Uiso   1.00
H2     H     0.27035   0.32798   0.61752   0.00000  Uiso   1.00
H3     H     0.12731   0.24327   0.32812   0.00000  Uiso   1.00
C17    C     0.65079   0.49054   0.49627   0.00000  Uiso   1.00
C18    C     0.97899   0.38559   0.45434   0.00000  Uiso   1.00
C19    C     0.97728   0.57059   0.58191   0.00000  Uiso   1.00
C20    C     0.95318   0.47865   0.51463   0.00000  Uiso   1.00
C21    C     0.95302   0.29167   0.39513   0.00000  Uiso   1.00
C22    C     0.90327   0.29308   0.39099   0.00000  Uiso   1.00
C23    C     0.87791   0.38780   0.44568   0.00000  Uiso   1.00
C24    C     0.90280   0.47993   0.50764   0.00000  Uiso   1.00
C25    C     0.87668   0.57345   0.56266   0.00000  Uiso   1.00
C26    C     0.82665   0.57355   0.55577   0.00000  Uiso   1.00
N2     N     0.80292   0.48179   0.49627   0.00000  Uiso   1.00
C27    C     0.82773   0.38958   0.44099   0.00000  Uiso   1.00
C28    C     0.72610   0.48330   0.61590   0.00000  Uiso   1.00
C29    C     0.67625   0.48764   0.61649   0.00000  Uiso   1.00
C30    C     0.67590   0.48724   0.37540   0.00000  Uiso   1.00
C31    C     0.72592   0.48252   0.37514   0.00000  Uiso   1.00
C32    C     0.75120   0.48152   0.49549   0.00000  Uiso   1.00
O10    O     0.80348   0.29763   0.38423   0.00000  Uiso   1.00
C33    C     0.02982   0.38849   0.45486   0.00000  Uiso   1.00
C34    C     0.05374   0.47741   0.52764   0.00000  Uiso   1.00
C35    C     0.02772   0.56597   0.59515   0.00000  Uiso   1.00
C36    C     0.05763   0.30543   0.38298   0.00000  Uiso   1.00
H4     H     0.65772   0.48960   0.71255   0.00000  Uiso   1.00
H5     H     0.74548   0.48129   0.71073   0.00000  Uiso   1.00
H6     H     0.88479   0.21820   0.34404   0.00000  Uiso   1.00
H7     H     0.96966   0.21256   0.35329   0.00000  Uiso   1.00
H8     H     0.04246   0.23760   0.31823   0.00000  Uiso   1.00
O11    O     0.20199   0.64963   0.68115   0.00000  Uiso   1.00
C37    C     0.10263   0.64667   0.68055   0.00000  Uiso   1.00
H9     H     0.25003   0.66783   0.43535   0.00000  Uiso   1.00
H10    H     0.12062   0.71269   0.74306   0.00000  Uiso   1.00
C38    C     0.95020   0.66648   0.63247   0.00000  Uiso   1.00
C39    C     0.90064   0.66744   0.62313   0.00000  Uiso   1.00
O12    O     0.80143   0.66654   0.60694   0.00000  Uiso   1.00
C40    C     0.05299   0.64763   0.67548   0.00000  Uiso   1.00
H11    H     0.96592   0.74562   0.67694   0.00000  Uiso   1.00
H12    H     0.65691   0.48941   0.28004   0.00000  Uiso   1.00
H13    H     0.88123   0.74359   0.66430   0.00000  Uiso   1.00
H14    H     0.74521   0.48225   0.28015   0.00000  Uiso   1.00
H15    H     0.03577   0.71287   0.73966   0.00000  Uiso   1.00
C41    C     0.50486   0.94546   0.39982   0.00000  Uiso   1.00
C42    C     0.51044   0.88037   0.51278   0.00000  Uiso   1.00
H16    H     0.50155   0.89980   0.30361   0.00000  Uiso   1.00
H17    H     0.51550   0.92233   0.61015   0.00000  Uiso   1.00
C43    C     0.50365   0.07872   0.39740   0.00000  Uiso   1.00
C44    C     0.49669   0.14592   0.50774   0.00000  Uiso   1.00
H18    H     0.50784   0.12247   0.30032   0.00000  Uiso   1.00
H19    H     0.49107   0.10551   0.60568   0.00000  Uiso   1.00
C45    C     0.52494   0.59452   0.93420   0.00000  Uiso   1.00
N3     N     0.50745   0.50868   0.86212   0.00000  Uiso   1.00
H20    H     0.53921   0.67428   0.88523   0.00000  Uiso   1.00
H21    H     0.50009   0.42912   0.91090   0.00000  Uiso   1.00
C46    C     0.52868   0.58435   0.08280   0.00000  Uiso   1.00
N4     N     0.49943   0.51836   0.15157   0.00000  Uiso   1.00
H22    H     0.55565   0.63783   0.13507   0.00000  Uiso   1.00
H23    H     0.47044   0.48192   0.10100   0.00000  Uiso   1.00
C47    C     0.33995   0.75165   0.43144   0.00000  Uiso   1.00
C48    C     0.32945   0.76783   0.28158   0.00000  Uiso   1.00
C49    C     0.31084   0.84458   0.51200   0.00000  Uiso   1.00
C50    C     0.39297   0.78296   0.45363   0.00000  Uiso   1.00
H24    H     0.29007   0.76397   0.26041   0.00000  Uiso   1.00
H25    H     0.34780   0.69560   0.22348   0.00000  Uiso   1.00
H26    H     0.34326   0.85657   0.24743   0.00000  Uiso   1.00
H27    H     0.27305   0.85251   0.47565   0.00000  Uiso   1.00
H28    H     0.32689   0.93564   0.50197   0.00000  Uiso   1.00
H29    H     0.31088   0.81928   0.62033   0.00000  Uiso   1.00
H30    H     0.41551   0.73709   0.37753   0.00000  Uiso   1.00
H31    H     0.40392   0.76335   0.55900   0.00000  Uiso   1.00
H32    H     0.39903   0.88041   0.43611   0.00000  Uiso   1.00
