# Generated by REPEAT Assigner based on pymatgen
data_DB0-m3_o18_o150_f0_fsc.sym.61
_audit_creation_date              2022-05-24
_audit_creation_method            REPEAT_Assigner
_cell_length_a                    14.389421
_cell_length_b                    8.549404
_cell_length_c                    15.099740
_cell_angle_alpha                 90.000000
_cell_angle_beta                  111.391391
_cell_angle_gamma                 90.000000
_cell_volume                      1729.616880
_symmetry_space_group_name_H-M    P1
_symmetry_Int_Tables_number       1
loop_
    _symmetry_equiv_pos_site_id
    _symmetry_equiv_pos_as_xyz
    1  x,y,z
loop_
    _atom_site_type_symbol
    _atom_site_label
    _atom_site_fract_x
    _atom_site_fract_y
    _atom_site_fract_z
    _atom_type_partial_charge
    H   H1   0.043111  0.025307  0.578435  0.115172
    H   H2   0.966307  0.026244  0.428966  0.113067
    C   C1   0.015406  0.165138  0.681700  0.036339
    C   C2   0.994063  0.886352  0.325750  -0.044124
    C   C3   0.995002  0.165265  0.325907  0.030082
    C   C4   0.014459  0.886226  0.681492  -0.045013
    C   C5   0.002510  0.166248  0.767738  -0.213108
    C   C6   0.006998  0.885197  0.239730  -0.253125
    C   C7   0.008171  0.166015  0.239935  -0.204318
    C   C8   0.001326  0.885430  0.767482  -0.241225
    H   H3   0.994401  0.276639  0.798990  0.089334
    H   H4   0.015125  0.774788  0.208506  0.103873
    H   H5   0.012319  0.276758  0.207214  0.118024
    H   H6   0.997190  0.774671  0.800193  0.116521
    C   C9   0.000595  0.026019  0.813336  0.119013
    C   C10  0.008926  0.025402  0.194113  0.117919
    C   C11  0.027899  0.025535  0.642857  -0.144173
    C   C12  0.981544  0.025977  0.364557  -0.135872
    C   C13  0.952196  0.911565  0.940908  -0.206921
    C   C14  0.057364  0.139805  0.066554  -0.208442
    H   H7   0.908379  0.823606  0.892178  0.121208
    H   H8   0.101178  0.227766  0.115285  0.108556
    C   C15  0.956150  0.910408  0.033505  -0.123520
    C   C16  0.053411  0.140961  0.973959  -0.137515
    H   H9   0.914618  0.822189  0.054618  0.107651
    H   H10  0.094942  0.229182  0.952847  0.138763
    C   C17  0.008831  0.024335  0.096941  0.117828
    C   C18  0.000721  0.027044  0.910520  0.101885
    O   O1   0.094420  0.695242  0.619848  -0.719480
    O   O2   0.915038  0.356322  0.387496  -0.607838
    O   O3   0.914644  0.694926  0.387610  -0.721122
    O   O4   0.094823  0.356639  0.619901  -0.624642
    O   O5   0.922876  0.688609  0.574119  -0.715283
    O   O6   0.086584  0.362843  0.433306  -0.713602
    O   O7   0.086211  0.689453  0.433351  -0.723794
    O   O8   0.923255  0.362000  0.574078  -0.716061
    C   C19  0.010932  0.743930  0.626833  0.851038
    C   C20  0.998530  0.307581  0.380548  0.713523
    C   C21  0.998008  0.744276  0.380672  0.873342
    C   C22  0.011455  0.307238  0.626801  0.750587
    Zn  Zn1  0.893589  0.525368  0.471085  1.026985
    Zn  Zn2  0.115874  0.526079  0.536341  1.059353
    N   N1   0.762772  0.524956  0.430338  0.018207
    N   N2   0.246691  0.526406  0.577088  0.003040
    C   C23  0.608674  0.519610  0.301819  -0.310783
    C   C24  0.400784  0.521307  0.705618  -0.314584
    C   C25  0.711010  0.521397  0.335915  0.318789
    C   C26  0.298448  0.523070  0.671515  0.322504
    C   C27  0.715289  0.525396  0.492647  -0.192998
    C   C28  0.294177  0.526527  0.514781  -0.186439
    C   C29  0.610842  0.522857  0.460908  -0.003418
    C   C30  0.398621  0.523731  0.546526  -0.001812
    C   C31  0.558767  0.520747  0.363947  0.254583
    C   C32  0.450694  0.521982  0.643490  0.258513
    C   C33  0.557106  0.522589  0.522416  0.092881
    C   C34  0.452357  0.522740  0.485020  0.089006
    C   C35  0.403658  0.520975  0.386823  -0.167353
    C   C36  0.605803  0.521311  0.620616  -0.166247
    C   C37  0.456551  0.519662  0.327684  -0.256604
    C   C38  0.552909  0.520679  0.679756  -0.261028
    H   H11  0.416598  0.517801  0.251611  0.172626
    H   H12  0.592860  0.519122  0.755832  0.174848
    H   H13  0.247551  0.529175  0.440923  0.192347
    H   H14  0.761916  0.528273  0.566501  0.196379
    H   H15  0.567336  0.518796  0.225971  0.111698
    H   H16  0.442119  0.520668  0.781467  0.113776
    H   H17  0.324097  0.519220  0.351828  0.143387
    H   H18  0.685363  0.519409  0.655616  0.142202
    N   N3   0.248096  0.522636  0.735990  -0.520312
    C   C39  0.282675  0.404856  0.806049  0.452560
    C   C40  0.288436  0.434201  0.897920  -0.333126
    C   C41  0.321779  0.319632  0.966565  -0.053521
    C   C42  0.348970  0.175091  0.943665  -0.182402
    C   C43  0.342390  0.144786  0.851938  -0.037938
    C   C44  0.309161  0.259096  0.783082  -0.239021
    H   H19  0.248931  0.630991  0.765919  0.297895
    H   H20  0.267028  0.546909  0.916810  0.131214
    H   H21  0.326468  0.343179  0.038410  0.100175
    H   H22  0.374970  0.085280  0.997504  0.093417
    H   H23  0.362983  0.030967  0.833830  0.089350
    H   H24  0.303113  0.231939  0.711270  0.112789
    N   N4   0.761354  0.520989  0.271433  -0.513822
    C   C45  0.726818  0.403156  0.201403  0.456360
    C   C46  0.721047  0.432460  0.109525  -0.356179
    C   C47  0.687743  0.317839  0.040908  -0.050008
    C   C48  0.660600  0.173289  0.063844  -0.154811
    C   C49  0.667190  0.143026  0.155578  -0.061780
    C   C50  0.700381  0.257387  0.224406  -0.222952
    H   H25  0.760483  0.629334  0.241480  0.291062
    H   H26  0.742416  0.545176  0.090607  0.145435
    H   H27  0.683047  0.341354  0.969057  0.096468
    H   H28  0.634631  0.083438  0.010027  0.084558
    H   H29  0.646635  0.029200  0.173714  0.092721
    H   H30  0.706438  0.230260  0.296224  0.107461
