# Generated by REPEAT Assigner based on pymatgen
data_DB0-m2_o7_o11_f0_nbo.sym.63_sqe
_audit_creation_date              2022-05-24
_audit_creation_method            REPEAT_Assigner
_cell_length_a                    40.995724
_cell_length_b                    35.301895
_cell_length_c                    21.754551
_cell_angle_alpha                 90.000000
_cell_angle_beta                  120.789090
_cell_angle_gamma                 90.000000
_cell_volume                      27046.363053
_symmetry_space_group_name_H-M    P1
_symmetry_Int_Tables_number       1
loop_
    _symmetry_equiv_pos_site_id
    _symmetry_equiv_pos_as_xyz
    1  x,y,z
loop_
    _atom_site_type_symbol
    _atom_site_label
    _atom_site_fract_x
    _atom_site_fract_y
    _atom_site_fract_z
    _atom_type_partial_charge
    O   O1    0.446490  0.516966  0.926749  -0.594461
    O   O2    0.553508  0.516966  0.073246  -0.594498
    O   O3    0.946490  0.016966  0.926749  -0.594455
    O   O4    0.053508  0.016966  0.073246  -0.594407
    O   O5    0.445413  0.454713  0.960738  -0.620995
    O   O6    0.554586  0.454713  0.039258  -0.620972
    O   O7    0.945413  0.954713  0.960738  -0.621002
    O   O8    0.054586  0.954713  0.039258  -0.620953
    C   C1    0.428085  0.485917  0.925266  0.709358
    C   C2    0.571914  0.485917  0.074730  0.709372
    C   C3    0.928085  0.985917  0.925266  0.709379
    C   C4    0.071914  0.985917  0.074730  0.709269
    O   O9    0.513394  0.516968  0.926293  -0.635804
    O   O10   0.486604  0.516968  0.073702  -0.635819
    O   O11   0.013394  0.016968  0.926293  -0.635734
    O   O12   0.986604  0.016968  0.073702  -0.635749
    O   O13   0.491667  0.454677  0.903712  -0.625388
    O   O14   0.508332  0.454677  0.096283  -0.625409
    O   O15   0.991667  0.954677  0.903712  -0.625380
    O   O16   0.008332  0.954677  0.096283  -0.625391
    C   C5    0.503476  0.485749  0.887293  0.797082
    C   C6    0.496523  0.485749  0.112703  0.797130
    C   C7    0.003476  0.985749  0.887293  0.797014
    C   C8    0.996523  0.985749  0.112703  0.797027
    Cu  Cu1   0.499999  0.522757  0.999998  0.964700
    Cu  Cu2   0.999999  0.022757  0.999998  0.964651
    Cu  Cu3   0.499999  0.448892  0.999998  0.996533
    Cu  Cu4   0.999999  0.948892  0.999998  0.996491
    C   C9    0.473899  0.673742  0.509506  -0.296228
    C   C10   0.526100  0.673742  0.490489  -0.296248
    C   C11   0.973899  0.173742  0.509506  -0.296231
    C   C12   0.026100  0.173742  0.490489  -0.296244
    H   H1    0.453945  0.689268  0.518378  0.145731
    H   H2    0.546053  0.689268  0.481618  0.145747
    H   H3    0.953945  0.189268  0.518378  0.145730
    H   H4    0.046053  0.189268  0.481618  0.145746
    C   C13   0.999999  0.386804  0.499998  -0.044540
    C   C14   0.499999  0.886804  0.499998  -0.044547
    C   C15   0.500000  0.733801  0.499998  -0.118010
    C   C16   0.000000  0.233801  0.499998  -0.118026
    C   C17   0.500000  0.614690  0.499998  -0.191234
    C   C18   0.000000  0.114690  0.499998  -0.191225
    C   C19   0.525862  0.511134  0.743402  0.022167
    C   C20   0.474137  0.511135  0.256594  0.022090
    C   C21   0.025862  0.011134  0.743402  0.022158
    C   C22   0.974137  0.011135  0.256594  0.022100
    C   C23   0.496234  0.499953  0.681204  -0.270969
    C   C24   0.503765  0.499953  0.318791  -0.270884
    C   C25   0.996234  0.999953  0.681204  -0.270969
    C   C26   0.003765  0.999953  0.318791  -0.270894
    H   H5    0.551024  0.522319  0.745496  0.108384
    H   H6    0.448974  0.522319  0.254500  0.108395
    H   H7    0.051024  0.022319  0.745496  0.108389
    H   H8    0.948974  0.022319  0.254500  0.108392
    H   H9    0.469548  0.492563  0.677139  0.165175
    H   H10   0.530451  0.492563  0.322857  0.165164
    H   H11   0.969548  0.992563  0.677139  0.165179
    H   H12   0.030451  0.992563  0.322857  0.165163
    C   C27   0.523989  0.511839  0.808985  -0.053229
    C   C28   0.476010  0.511839  0.191010  -0.053171
    C   C29   0.023989  0.011839  0.808985  -0.053245
    C   C30   0.976010  0.011839  0.191010  -0.053187
    C   C31   0.504975  0.485353  0.821681  -0.302476
    C   C32   0.495024  0.485353  0.178315  -0.302568
    C   C33   0.004975  0.985353  0.821681  -0.302428
    C   C34   0.995024  0.985353  0.178315  -0.302507
    H   H13   0.540437  0.532988  0.849219  0.132765
    H   H14   0.459562  0.532988  0.150776  0.132762
    H   H15   0.040437  0.032988  0.849219  0.132765
    H   H16   0.959562  0.032988  0.150776  0.132764
    H   H17   0.491607  0.461947  0.784942  0.156070
    H   H18   0.508392  0.461947  0.215054  0.156115
    H   H19   0.991607  0.961947  0.784942  0.156055
    H   H20   0.008392  0.961947  0.215054  0.156099
    C   C35   0.171646  0.484292  0.722680  -0.217778
    C   C36   0.828353  0.484291  0.277315  -0.217698
    C   C37   0.671646  0.984292  0.722680  -0.217763
    C   C38   0.328353  0.984291  0.277315  -0.217689
    H   H21   0.186219  0.474874  0.777705  0.142008
    H   H22   0.813780  0.474874  0.222291  0.141976
    H   H23   0.686219  0.974874  0.777705  0.142007
    H   H24   0.313780  0.974874  0.222291  0.141975
    C   C39   0.132538  0.486402  0.684333  -0.058381
    C   C40   0.867461  0.486402  0.315663  -0.058462
    C   C41   0.632538  0.986402  0.684333  -0.058413
    C   C42   0.367461  0.986402  0.315663  -0.058477
    H   H25   0.117070  0.478423  0.710297  0.110412
    H   H26   0.882929  0.478423  0.289699  0.110444
    H   H27   0.617070  0.978423  0.710297  0.110418
    H   H28   0.382929  0.978423  0.289699  0.110445
    C   C43   0.113678  0.498342  0.613785  -0.056559
    C   C44   0.886321  0.498342  0.386210  -0.056587
    C   C45   0.613678  0.998342  0.613785  -0.056487
    C   C46   0.386321  0.998342  0.386210  -0.056557
    C   C47   0.134466  0.508254  0.582298  -0.077736
    C   C48   0.865533  0.508254  0.417697  -0.077759
    C   C49   0.634466  0.008254  0.582298  -0.077765
    C   C50   0.365533  0.008254  0.417697  -0.077769
    H   H29   0.120521  0.517628  0.527313  0.127709
    H   H30   0.879478  0.517628  0.472682  0.127724
    H   H31   0.620521  0.017628  0.527313  0.127722
    H   H32   0.379478  0.017628  0.472682  0.127727
    C   C51   0.173576  0.506100  0.620881  -0.232377
    C   C52   0.826423  0.506100  0.379114  -0.232388
    C   C53   0.673576  0.006100  0.620881  -0.232374
    C   C54   0.326423  0.006100  0.379114  -0.232385
    H   H33   0.189672  0.513809  0.595995  0.149823
    H   H34   0.810326  0.513809  0.404000  0.149825
    H   H35   0.689672  0.013809  0.595995  0.149823
    H   H36   0.310326  0.013809  0.404000  0.149825
    C   C55   0.192182  0.494036  0.690981  0.313555
    C   C56   0.807817  0.494036  0.309015  0.313643
    C   C57   0.692182  0.994036  0.690981  0.313546
    C   C58   0.307817  0.994036  0.309015  0.313633
    C   C59   0.232896  0.491764  0.730986  -0.173631
    C   C60   0.767103  0.491764  0.269009  -0.173807
    C   C61   0.732896  0.991764  0.730986  -0.173631
    C   C62   0.267103  0.991764  0.269009  -0.173801
    C   C63   0.267087  0.490088  0.764566  -0.164972
    C   C64   0.732912  0.490088  0.235430  -0.164816
    C   C65   0.767087  0.990088  0.764566  -0.164967
    C   C66   0.232912  0.990088  0.235430  -0.164826
    C   C67   0.326361  0.456372  0.841921  -0.211739
    C   C68   0.673638  0.456372  0.158074  -0.211736
    C   C69   0.826361  0.956372  0.841921  -0.211733
    C   C70   0.173638  0.956372  0.158074  -0.211733
    H   H37   0.310162  0.431971  0.840890  0.138091
    H   H38   0.689837  0.431971  0.159105  0.138090
    H   H39   0.810162  0.931971  0.840890  0.138086
    H   H40   0.189837  0.931971  0.159105  0.138090
    C   C71   0.365541  0.455259  0.880978  -0.068213
    C   C72   0.634458  0.455258  0.119017  -0.068163
    C   C73   0.865541  0.955259  0.880978  -0.068227
    C   C74   0.134458  0.955258  0.119017  -0.068224
    H   H41   0.379472  0.429777  0.910165  0.124301
    H   H42   0.620526  0.429777  0.089830  0.124290
    H   H43   0.879472  0.929777  0.910165  0.124305
    H   H44   0.120526  0.929777  0.089830  0.124306
    C   C75   0.386422  0.486506  0.882848  -0.077567
    C   C76   0.613577  0.486506  0.117148  -0.077628
    C   C77   0.886422  0.986506  0.882848  -0.077580
    C   C78   0.113577  0.986506  0.117148  -0.077533
    C   C79   0.367622  0.518703  0.844896  -0.060989
    C   C80   0.632377  0.518703  0.155100  -0.060987
    C   C81   0.867622  0.018703  0.844896  -0.060966
    C   C82   0.132377  0.018703  0.155100  -0.060985
    H   H45   0.383115  0.543540  0.845267  0.114667
    H   H46   0.616884  0.543540  0.154729  0.114696
    H   H47   0.883115  0.043540  0.845267  0.114668
    H   H48   0.116884  0.043540  0.154729  0.114664
    C   C83   0.328505  0.519666  0.805953  -0.219338
    C   C84   0.671494  0.519666  0.194042  -0.219292
    C   C85   0.828505  0.019666  0.805953  -0.219343
    C   C86   0.171494  0.019666  0.194042  -0.219311
    H   H49   0.314000  0.544950  0.776669  0.143794
    H   H50   0.685998  0.544949  0.223327  0.143776
    H   H51   0.814000  0.044950  0.776669  0.143793
    H   H52   0.185998  0.044949  0.223327  0.143788
    C   C87   0.307837  0.488597  0.804541  0.307173
    C   C88   0.692162  0.488597  0.195455  0.307079
    C   C89   0.807837  0.988597  0.804541  0.307165
    C   C90   0.192162  0.988597  0.195455  0.307093
    C   C91   0.499999  0.693202  0.499998  0.303456
    C   C92   0.999999  0.193202  0.499998  0.303465
    C   C93   0.474047  0.634689  0.510683  0.114396
    C   C94   0.525952  0.634689  0.489313  0.114408
    C   C95   0.974047  0.134689  0.510683  0.114370
    C   C96   0.025952  0.134689  0.489313  0.114399
    C   C97   0.000000  0.267907  0.499998  -0.201452
    C   C98   0.500000  0.767907  0.499998  -0.201472
    C   C99   0.000000  0.308511  0.499998  0.323322
    C   C100  0.500000  0.808511  0.499998  0.323329
    O   O17   0.532508  0.445101  0.536827  -0.606655
    O   O18   0.467491  0.445101  0.463168  -0.606627
    O   O19   0.032508  0.945101  0.536827  -0.606627
    O   O20   0.967491  0.945101  0.463168  -0.606617
    C   C101  0.499999  0.427306  0.499998  0.597816
    C   C102  0.999999  0.927306  0.499998  0.597788
    O   O21   0.531182  0.502363  0.621087  -0.625709
    O   O22   0.468817  0.502363  0.378908  -0.625667
    O   O23   0.031182  0.002363  0.621087  -0.625696
    O   O24   0.968817  0.002363  0.378908  -0.625670
    O   O25   0.465780  0.500729  0.554563  -0.615579
    O   O26   0.534219  0.500729  0.445433  -0.615582
    O   O27   0.965780  0.000729  0.554563  -0.615583
    O   O28   0.034219  0.000729  0.445433  -0.615579
    C   C103  0.497950  0.500038  0.615834  0.756480
    C   C104  0.502049  0.500038  0.384161  0.756415
    C   C105  0.997950  0.000038  0.615834  0.756477
    C   C106  0.002049  0.000038  0.384161  0.756427
    Cu  Cu5   0.537804  0.500130  0.538450  0.987293
    Cu  Cu6   0.462195  0.500130  0.461546  0.987295
    Cu  Cu7   0.037804  0.000130  0.538450  0.987300
    Cu  Cu8   0.962195  0.000130  0.461546  0.987233
    O   O29   0.532716  0.555219  0.534551  -0.576266
    O   O30   0.467283  0.555219  0.465445  -0.576266
    O   O31   0.032716  0.055219  0.534551  -0.576260
    O   O32   0.967283  0.055219  0.465445  -0.576274
    C   C107  0.500000  0.573013  0.499998  0.780406
    C   C108  0.000000  0.073013  0.499998  0.780406
    O   O33   0.011346  0.446123  0.460783  -0.598854
    O   O34   0.988653  0.446123  0.539212  -0.598882
    O   O35   0.511346  0.946123  0.460783  -0.598845
    O   O36   0.488653  0.946123  0.539212  -0.598874
    C   C109  0.999999  0.428319  0.499998  0.682600
    C   C110  0.499999  0.928319  0.499998  0.682620
    O   O37   0.055011  0.510576  0.504764  -0.606604
    O   O38   0.944988  0.510576  0.495231  -0.606697
    O   O39   0.555011  0.010576  0.504764  -0.606605
    O   O40   0.444988  0.010576  0.495231  -0.606689
    O   O41   0.053274  0.489631  0.604333  -0.592919
    O   O42   0.946725  0.489631  0.395662  -0.592955
    O   O43   0.553274  0.989631  0.604333  -0.592885
    O   O44   0.446725  0.989631  0.395662  -0.592952
    C   C111  0.072020  0.499762  0.572420  0.692020
    C   C112  0.927979  0.499762  0.427575  0.692164
    C   C113  0.572020  0.999762  0.572420  0.691934
    C   C114  0.427979  0.999762  0.427575  0.692136
    Cu  Cu9   0.001010  0.500148  0.440978  0.959339
    Cu  Cu10  0.998989  0.500148  0.559018  0.959349
    Cu  Cu11  0.501010  0.000148  0.440978  0.959317
    Cu  Cu12  0.498989  0.000148  0.559018  0.959351
    O   O45   0.990364  0.554179  0.439602  -0.597221
    O   O46   0.009635  0.554179  0.560393  -0.597147
    O   O47   0.490364  0.054179  0.439602  -0.597270
    O   O48   0.509635  0.054179  0.560393  -0.597177
    C   C115  0.999999  0.572002  0.499998  0.691397
    C   C116  0.499999  0.072002  0.499998  0.691471
    C   C117  0.989915  0.672406  0.437960  -0.230210
    C   C118  0.010084  0.672406  0.562035  -0.230099
    C   C119  0.489915  0.172406  0.437960  -0.230139
    C   C120  0.510084  0.172406  0.562035  -0.230207
    H   H53   0.981998  0.687737  0.389271  0.141869
    H   H54   0.018000  0.687737  0.610724  0.141828
    H   H55   0.481998  0.187737  0.389271  0.141854
    H   H56   0.518000  0.187737  0.610724  0.141861
    C   C121  0.989895  0.633344  0.437821  -0.054845
    C   C122  0.010104  0.633344  0.562174  -0.054878
    C   C123  0.489895  0.133344  0.437821  -0.055023
    C   C124  0.510104  0.133344  0.562174  -0.054814
    H   H57   0.981871  0.618655  0.388498  0.114696
    H   H58   0.018128  0.618655  0.611497  0.114667
    H   H59   0.481871  0.118655  0.388498  0.114754
    H   H60   0.518128  0.118655  0.611497  0.114643
    C   C125  0.999999  0.613562  0.499997  -0.069648
    C   C126  0.499999  0.113562  0.499997  -0.069550
    C   C127  0.999999  0.691941  0.499998  0.316146
    C   C128  0.499999  0.191941  0.499998  0.316165
    C   C129  0.999999  0.732591  0.499998  -0.165539
    C   C130  0.499999  0.232591  0.499998  -0.165539
    C   C131  0.499999  0.266724  0.499998  -0.160424
    C   C132  0.999999  0.766724  0.499998  -0.160420
    C   C133  0.466339  0.326909  0.461723  -0.208114
    C   C134  0.533660  0.326909  0.538272  -0.208133
    C   C135  0.966339  0.826909  0.461723  -0.208095
    C   C136  0.033660  0.826909  0.538272  -0.208112
    H   H61   0.439922  0.311578  0.431683  0.137357
    H   H62   0.560077  0.311578  0.568313  0.137370
    H   H63   0.939922  0.811578  0.431683  0.137352
    H   H64   0.060077  0.811578  0.568313  0.137362
    C   C137  0.466263  0.365971  0.461640  -0.111378
    C   C138  0.533735  0.365971  0.538355  -0.111371
    C   C139  0.966263  0.865971  0.461640  -0.111405
    C   C140  0.033735  0.865971  0.538355  -0.111394
    H   H65   0.439508  0.380669  0.431214  0.135383
    H   H66   0.560491  0.380669  0.568782  0.135380
    H   H67   0.939508  0.880669  0.431214  0.135392
    H   H68   0.060491  0.880669  0.568782  0.135387
    C   C141  0.499999  0.385749  0.499998  0.034580
    C   C142  0.999999  0.885749  0.499998  0.034606
    C   C143  0.499999  0.307374  0.499998  0.296922
    C   C144  0.999999  0.807374  0.499998  0.296910
    C   C145  0.988166  0.328010  0.539938  -0.223782
    C   C146  0.011833  0.328010  0.460058  -0.223784
    C   C147  0.488166  0.828010  0.539938  -0.223778
    C   C148  0.511833  0.828010  0.460058  -0.223776
    H   H69   0.978881  0.312667  0.571264  0.143717
    H   H70   0.021118  0.312667  0.428732  0.143719
    H   H71   0.478881  0.812667  0.571264  0.143715
    H   H72   0.521118  0.812667  0.428732  0.143717
    C   C149  0.988141  0.367052  0.540033  -0.081192
    C   C150  0.011858  0.367052  0.459963  -0.081188
    C   C151  0.488141  0.867052  0.540033  -0.081199
    C   C152  0.511858  0.867052  0.459963  -0.081197
    H   H73   0.978728  0.381742  0.571766  0.123931
    H   H74   0.021271  0.381742  0.428230  0.123922
    H   H75   0.478728  0.881742  0.571766  0.123935
    H   H76   0.521271  0.881742  0.428230  0.123924
    C   C153  0.447891  0.615745  0.527656  0.061968
    C   C154  0.461677  0.595635  0.590594  -0.071941
    C   C155  0.436892  0.579719  0.608378  -0.318591
    C   C156  0.398220  0.583568  0.562986  0.389897
    C   C157  0.371183  0.566234  0.581318  -0.403208
    C   C158  0.384462  0.603921  0.500431  -0.299337
    C   C159  0.409248  0.620334  0.483189  -0.130671
    H   H77   0.491947  0.592854  0.626685  0.073999
    H   H78   0.447994  0.564483  0.658206  0.155163
    H   H79   0.386829  0.551003  0.633075  0.093424
    H   H80   0.352540  0.545960  0.538737  0.107757
    H   H81   0.353546  0.588788  0.585368  0.091024
    H   H82   0.354193  0.607268  0.465068  0.148880
    H   H83   0.398313  0.636554  0.434399  0.116505
    C   C160  0.552108  0.615745  0.472340  0.062015
    C   C161  0.538323  0.595635  0.409402  -0.071972
    C   C162  0.563107  0.579720  0.391617  -0.318539
    C   C163  0.601780  0.583568  0.437010  0.389820
    C   C164  0.628816  0.566234  0.418678  -0.403155
    C   C165  0.615537  0.603920  0.499566  -0.299291
    C   C166  0.590751  0.620333  0.516808  -0.130720
    H   H84   0.508052  0.592855  0.373310  0.073989
    H   H85   0.552006  0.564484  0.341789  0.155167
    H   H86   0.613170  0.551004  0.366921  0.093406
    H   H87   0.647459  0.545960  0.461258  0.107752
    H   H88   0.646454  0.588788  0.414629  0.091010
    H   H89   0.645806  0.607268  0.534929  0.148870
    H   H90   0.601686  0.636554  0.565598  0.116506
    C   C167  0.947891  0.115745  0.527656  0.062094
    C   C168  0.961677  0.095635  0.590594  -0.072081
    C   C169  0.936892  0.079719  0.608378  -0.318470
    C   C170  0.898220  0.083568  0.562986  0.389798
    C   C171  0.871183  0.066234  0.581318  -0.403178
    C   C172  0.884462  0.103921  0.500431  -0.299262
    C   C173  0.909248  0.120334  0.483189  -0.130753
    H   H91   0.991947  0.092854  0.626685  0.074020
    H   H92   0.947994  0.064483  0.658206  0.155160
    H   H93   0.886829  0.051003  0.633075  0.093410
    H   H94   0.852540  0.045960  0.538737  0.107754
    H   H95   0.853546  0.088788  0.585368  0.091022
    H   H96   0.854193  0.107268  0.465068  0.148868
    H   H97   0.898313  0.136554  0.434399  0.116516
    C   C174  0.052108  0.115745  0.472340  0.062032
    C   C175  0.038323  0.095635  0.409402  -0.071987
    C   C176  0.063107  0.079720  0.391617  -0.318534
    C   C177  0.101780  0.083568  0.437010  0.389821
    C   C178  0.128816  0.066234  0.418678  -0.403167
    C   C179  0.115537  0.103920  0.499566  -0.299292
    C   C180  0.090751  0.120333  0.516808  -0.130721
    H   H98   0.008052  0.092855  0.373310  0.073987
    H   H99   0.052006  0.064484  0.341789  0.155168
    H   H100  0.113170  0.051004  0.366921  0.093414
    H   H101  0.147459  0.045960  0.461258  0.107752
    H   H102  0.146454  0.088788  0.414629  0.091016
    H   H103  0.145806  0.107268  0.534929  0.148871
    H   H104  0.101686  0.136554  0.565598  0.116505
