data_DB0-m29_o96_o54_f0_pts.sym.68_repeat
_audit_creation_date              2024-02-20
_audit_creation_method            'Materials Studio'
_symmetry_space_group_name_H-M    'P1'
_symmetry_Int_Tables_number       1
_symmetry_cell_setting            triclinic
loop_
_symmetry_equiv_pos_as_xyz
  x,y,z
_cell_length_a                    17.0632
_cell_length_b                    9.2613
_cell_length_c                    34.6968
_cell_angle_alpha                 95.3255
_cell_angle_beta                  89.0678
_cell_angle_gamma                 69.5090
loop_
_atom_site_label
_atom_site_type_symbol
_atom_site_fract_x
_atom_site_fract_y
_atom_site_fract_z
_atom_site_U_iso_or_equiv
_atom_site_adp_type
_atom_site_occupancy
C1     C     0.79835   0.95037   0.93652   0.00000  Uiso   1.00
C2     C     0.86299   0.88007   0.90963   0.00000  Uiso   1.00
C3     C     0.93470   0.89015   0.92640   0.00000  Uiso   1.00
N1     N     0.91509   0.96468   0.96253   0.00000  Uiso   1.00
C4     C     0.83179   0.00049   0.96892   0.00000  Uiso   1.00
C5     C     0.01234   0.83562   0.91013   0.00000  Uiso   1.00
C6     C     0.08216   0.87802   0.92529   0.00000  Uiso   1.00
C7     C     0.14334   0.89492   0.90184   0.00000  Uiso   1.00
C8     C     0.19863   0.93082   0.92493   0.00000  Uiso   1.00
C9     C     0.16989   0.93622   0.96273   0.00000  Uiso   1.00
N2     N     0.09832   0.90335   0.96278   0.00000  Uiso   1.00
C10    C     0.21092   0.97362   0.99719   0.00000  Uiso   1.00
C11    C     0.16805   0.04283   0.03029   0.00000  Uiso   1.00
C12    C     0.20055   0.09606   0.06253   0.00000  Uiso   1.00
C13    C     0.13487   0.17144   0.08818   0.00000  Uiso   1.00
C14    C     0.06424   0.15754   0.07185   0.00000  Uiso   1.00
N3     N     0.08448   0.07953   0.03617   0.00000  Uiso   1.00
C15    C     0.98867   0.20294   0.08990   0.00000  Uiso   1.00
C16    C     0.91819   0.16134   0.07496   0.00000  Uiso   1.00
C17    C     0.85630   0.14618   0.09835   0.00000  Uiso   1.00
C18    C     0.80091   0.11062   0.07515   0.00000  Uiso   1.00
C19    C     0.83059   0.10288   0.03731   0.00000  Uiso   1.00
N4     N     0.90237   0.13500   0.03743   0.00000  Uiso   1.00
C20    C     0.78977   0.06586   0.00260   0.00000  Uiso   1.00
H1     H     0.02536   0.76673   0.88257   0.00000  Uiso   1.00
H2     H     0.27664   0.95839   0.99416   0.00000  Uiso   1.00
H3     H     0.98097   0.25844   0.11921   0.00000  Uiso   1.00
H4     H     0.72419   0.08039   0.00581   0.00000  Uiso   1.00
H5     H     0.06479   0.88969   0.98665   0.00000  Uiso   1.00
H6     H     0.93617   0.14759   0.01353   0.00000  Uiso   1.00
C21    C     0.84779   0.15719   0.13789   0.00000  Uiso   1.00
C22    C     0.77975   0.13262   0.15398   0.00000  Uiso   1.00
C23    C     0.72090   0.09912   0.13080   0.00000  Uiso   1.00
C24    C     0.73133   0.08742   0.09054   0.00000  Uiso   1.00
C25    C     0.71641   0.96763   0.92891   0.00000  Uiso   1.00
C26    C     0.70124   0.90603   0.89301   0.00000  Uiso   1.00
C27    C     0.76746   0.83001   0.86617   0.00000  Uiso   1.00
C28    C     0.84819   0.82133   0.87334   0.00000  Uiso   1.00
C29    C     0.15083   0.88622   0.86234   0.00000  Uiso   1.00
C30    C     0.21758   0.91449   0.84617   0.00000  Uiso   1.00
C31    C     0.27608   0.94919   0.86930   0.00000  Uiso   1.00
C32    C     0.26691   0.95778   0.90952   0.00000  Uiso   1.00
C33    C     0.28183   0.07790   0.07149   0.00000  Uiso   1.00
C34    C     0.29443   0.14325   0.10752   0.00000  Uiso   1.00
C35    C     0.22600   0.22710   0.13284   0.00000  Uiso   1.00
C36    C     0.14549   0.23995   0.12357   0.00000  Uiso   1.00
H7     H     0.89276   0.18274   0.15625   0.00000  Uiso   1.00
H8     H     0.68690   0.06029   0.07207   0.00000  Uiso   1.00
H9     H     0.66523   0.02975   0.94973   0.00000  Uiso   1.00
H10    H     0.75555   0.78915   0.83747   0.00000  Uiso   1.00
H11    H     0.10595   0.85986   0.84414   0.00000  Uiso   1.00
H12    H     0.31116   0.98569   0.92795   0.00000  Uiso   1.00
H13    H     0.33430   0.01153   0.05172   0.00000  Uiso   1.00
H14    H     0.23532   0.27678   0.16104   0.00000  Uiso   1.00
H15    H     0.09348   0.30068   0.14407   0.00000  Uiso   1.00
H16    H     0.77282   0.14231   0.18521   0.00000  Uiso   1.00
H17    H     0.22380   0.90685   0.81495   0.00000  Uiso   1.00
O1     O     0.50364   0.79656   0.77653   0.00000  Uiso   1.00
O2     O     0.48726   0.66629   0.82627   0.00000  Uiso   1.00
C37    C     0.49461   0.67307   0.78883   0.00000  Uiso   1.00
O3     O     0.41492   0.97022   0.86740   0.00000  Uiso   1.00
O4     O     0.34932   0.96745   0.81173   0.00000  Uiso   1.00
C38    C     0.34768   0.96954   0.84959   0.00000  Uiso   1.00
O5     O     0.54928   0.00319   0.74769   0.00000  Uiso   1.00
O6     O     0.60597   0.84956   0.84968   0.00000  Uiso   1.00
C39    C     0.61594   0.93466   0.88038   0.00000  Uiso   1.00
O7     O     0.47077   0.14200   0.80176   0.00000  Uiso   1.00
C40    C     0.50398   0.13618   0.76676   0.00000  Uiso   1.00
O8     O     0.55393   0.05937   0.89472   0.00000  Uiso   1.00
Fe1    Fe    0.49983   0.94126   0.82391   0.00000  Uiso   1.00
O9     O     0.52496   0.91136   0.19879   0.00000  Uiso   1.00
C41    C     0.48956   0.91797   0.23335   0.00000  Uiso   1.00
O10    O     0.44101   0.98719   0.10773   0.00000  Uiso   1.00
O11    O     0.44262   0.05126   0.25176   0.00000  Uiso   1.00
O12    O     0.38944   0.20295   0.15086   0.00000  Uiso   1.00
C42    C     0.37918   0.11395   0.12107   0.00000  Uiso   1.00
Fe2    Fe    0.49578   0.11177   0.17655   0.00000  Uiso   1.00
O13    O     0.58050   0.08268   0.13298   0.00000  Uiso   1.00
O14    O     0.64656   0.08496   0.18851   0.00000  Uiso   1.00
C43    C     0.64816   0.08233   0.15064   0.00000  Uiso   1.00
O15    O     0.49201   0.25674   0.22383   0.00000  Uiso   1.00
O16    O     0.51081   0.38506   0.17413   0.00000  Uiso   1.00
C44    C     0.50240   0.37912   0.21154   0.00000  Uiso   1.00
C45    C     0.43570   0.71334   0.36857   0.00000  Uiso   1.00
O17    O     0.37312   0.82673   0.35457   0.00000  Uiso   1.00
N5     N     0.49768   0.61574   0.34413   0.00000  Uiso   1.00
C46    C     0.56005   0.49971   0.35763   0.00000  Uiso   1.00
C47    C     0.49994   0.50228   0.27806   0.00000  Uiso   1.00
C48    C     0.50189   0.51051   0.23860   0.00000  Uiso   1.00
C49    C     0.49550   0.77375   0.24946   0.00000  Uiso   1.00
C50    C     0.49076   0.76689   0.28911   0.00000  Uiso   1.00
C51    C     0.49584   0.62918   0.30343   0.00000  Uiso   1.00
C52    C     0.49724   0.57436   0.42196   0.00000  Uiso   1.00
C53    C     0.43469   0.69352   0.40769   0.00000  Uiso   1.00
C54    C     0.37024   0.79022   0.43242   0.00000  Uiso   1.00
C55    C     0.56062   0.47787   0.39656   0.00000  Uiso   1.00
C56    C     0.50226   0.64479   0.22444   0.00000  Uiso   1.00
H18    H     0.48691   0.86689   0.30883   0.00000  Uiso   1.00
H19    H     0.31952   0.88318   0.42199   0.00000  Uiso   1.00
C57    C     0.49306   0.40852   0.77589   0.00000  Uiso   1.00
C58    C     0.43279   0.63110   0.52591   0.00000  Uiso   1.00
C59    C     0.55647   0.40132   0.51361   0.00000  Uiso   1.00
C60    C     0.49420   0.50473   0.53913   0.00000  Uiso   1.00
C61    C     0.37359   0.73481   0.55293   0.00000  Uiso   1.00
C62    C     0.37412   0.71127   0.59141   0.00000  Uiso   1.00
C63    C     0.43385   0.58477   0.60426   0.00000  Uiso   1.00
C64    C     0.49355   0.48186   0.57827   0.00000  Uiso   1.00
C65    C     0.55280   0.35629   0.59198   0.00000  Uiso   1.00
C66    C     0.55265   0.33695   0.63113   0.00000  Uiso   1.00
N6     N     0.49420   0.44046   0.65617   0.00000  Uiso   1.00
C67    C     0.43459   0.56237   0.64316   0.00000  Uiso   1.00
C68    C     0.49543   0.55129   0.72232   0.00000  Uiso   1.00
C69    C     0.49410   0.54244   0.76176   0.00000  Uiso   1.00
C70    C     0.49786   0.28082   0.75081   0.00000  Uiso   1.00
C71    C     0.50070   0.28897   0.71117   0.00000  Uiso   1.00
C72    C     0.49693   0.42612   0.69688   0.00000  Uiso   1.00
O18    O     0.37467   0.66157   0.66814   0.00000  Uiso   1.00
C73    C     0.43219   0.65154   0.48633   0.00000  Uiso   1.00
C74    C     0.49629   0.55142   0.46110   0.00000  Uiso   1.00
C75    C     0.55933   0.42825   0.47459   0.00000  Uiso   1.00
C76    C     0.36863   0.76961   0.47109   0.00000  Uiso   1.00
H20    H     0.49619   0.65597   0.71117   0.00000  Uiso   1.00
H21    H     0.32711   0.79527   0.61123   0.00000  Uiso   1.00
H22    H     0.32613   0.83917   0.54594   0.00000  Uiso   1.00
H23    H     0.31459   0.84814   0.48782   0.00000  Uiso   1.00
O19    O     0.62265   0.40584   0.33306   0.00000  Uiso   1.00
C77    C     0.62467   0.35996   0.41013   0.00000  Uiso   1.00
H24    H     0.50059   0.39693   0.28932   0.00000  Uiso   1.00
H25    H     0.67623   0.28438   0.39101   0.00000  Uiso   1.00
C78    C     0.61414   0.27217   0.52789   0.00000  Uiso   1.00
C79    C     0.61243   0.25086   0.56650   0.00000  Uiso   1.00
O20    O     0.61290   0.21782   0.64449   0.00000  Uiso   1.00
C80    C     0.62448   0.33568   0.44854   0.00000  Uiso   1.00
H26    H     0.66137   0.18138   0.51008   0.00000  Uiso   1.00
H27    H     0.65877   0.14955   0.57621   0.00000  Uiso   1.00
H28    H     0.50228   0.19022   0.69153   0.00000  Uiso   1.00
H29    H     0.67831   0.24387   0.45663   0.00000  Uiso   1.00
H30    H     0.50367   0.65220   0.19356   0.00000  Uiso   1.00
H31    H     0.49254   0.40035   0.80674   0.00000  Uiso   1.00
C81    C     0.90920   0.76944   0.84038   0.00000  Uiso   1.00
C82    C     0.92925   0.62176   0.82184   0.00000  Uiso   1.00
C83    C     0.98176   0.57617   0.78887   0.00000  Uiso   1.00
C84    C     0.01266   0.67940   0.77383   0.00000  Uiso   1.00
Br1    Br    0.08444   0.61699   0.72801   0.00000  Uiso   1.00
C85    C     0.99071   0.82845   0.79166   0.00000  Uiso   1.00
C86    C     0.93881   0.87368   0.82483   0.00000  Uiso   1.00
H32    H     0.90388   0.54156   0.83321   0.00000  Uiso   1.00
H33    H     0.99802   0.45995   0.77458   0.00000  Uiso   1.00
H34    H     0.01398   0.91006   0.77956   0.00000  Uiso   1.00
H35    H     0.92077   0.99118   0.83849   0.00000  Uiso   1.00
