data_DB0-m3_o12_o23_f0_pcu.sym.11_repeat
_audit_creation_date              2024-02-23
_audit_creation_method            'Materials Studio'
_symmetry_space_group_name_H-M    'P1'
_symmetry_Int_Tables_number       1
_symmetry_cell_setting            triclinic
loop_
_symmetry_equiv_pos_as_xyz
  x,y,z
_cell_length_a                    10.0058
_cell_length_b                    11.2482
_cell_length_c                    15.9603
_cell_angle_alpha                 89.9882
_cell_angle_beta                  80.7197
_cell_angle_gamma                 92.4467
loop_
_atom_site_label
_atom_site_type_symbol
_atom_site_fract_x
_atom_site_fract_y
_atom_site_fract_z
_atom_site_U_iso_or_equiv
_atom_site_adp_type
_atom_site_occupancy
O1     O     0.42491   0.69155   0.50835   0.00000  Uiso   1.00
O2     O     0.65460   0.66037   0.48396   0.00000  Uiso   1.00
C1     C     0.55200   0.73079   0.49491   0.00000  Uiso   1.00
O3     O     0.38687   0.51601   0.63692   0.00000  Uiso   1.00
O4     O     0.61666   0.48481   0.61262   0.00000  Uiso   1.00
C2     C     0.50217   0.50031   0.66362   0.00000  Uiso   1.00
Zn1    Zn    0.34828   0.52155   0.51625   0.00000  Uiso   1.00
Zn2    Zn    0.65106   0.48012   0.48406   0.00000  Uiso   1.00
O5     O     0.34475   0.34130   0.51635   0.00000  Uiso   1.00
O6     O     0.57443   0.31012   0.49196   0.00000  Uiso   1.00
O7     O     0.38269   0.51685   0.38769   0.00000  Uiso   1.00
O8     O     0.61248   0.48565   0.36339   0.00000  Uiso   1.00
C3     C     0.44734   0.27088   0.50539   0.00000  Uiso   1.00
C4     C     0.49716   0.50136   0.33669   0.00000  Uiso   1.00
C5     C     0.39372   0.58455   0.96361   0.00000  Uiso   1.00
C6     C     0.64127   0.53409   0.94079   0.00000  Uiso   1.00
C7     C     0.63001   0.55835   0.03478   0.00000  Uiso   1.00
H1     H     0.38549   0.66219   0.08764   0.00000  Uiso   1.00
H2     H     0.70995   0.45987   0.92590   0.00000  Uiso   1.00
H3     H     0.63240   0.65560   0.04625   0.00000  Uiso   1.00
H4     H     0.71640   0.51934   0.05906   0.00000  Uiso   1.00
C8     C     0.49644   0.50149   0.24686   0.00000  Uiso   1.00
C9     C     0.49993   0.49952   0.92090   0.00000  Uiso   1.00
C10    C     0.38147   0.57247   0.05910   0.00000  Uiso   1.00
C11    C     0.49742   0.50131   0.07960   0.00000  Uiso   1.00
C12    C     0.48139   0.37384   0.04934   0.00000  Uiso   1.00
C13    C     0.46199   0.37422   0.95690   0.00000  Uiso   1.00
C14    C     0.49662   0.50147   0.17134   0.00000  Uiso   1.00
C15    C     0.50197   0.49974   0.82904   0.00000  Uiso   1.00
C16    C     0.50272   0.49996   0.75347   0.00000  Uiso   1.00
H5     H     0.39197   0.32836   0.08830   0.00000  Uiso   1.00
H6     H     0.29356   0.56340   0.94500   0.00000  Uiso   1.00
H7     H     0.28346   0.52637   0.08533   0.00000  Uiso   1.00
H8     H     0.57315   0.32510   0.05615   0.00000  Uiso   1.00
H9     H     0.62185   0.09589   0.48736   0.00000  Uiso   1.00
H10    H     0.37750   0.90578   0.51294   0.00000  Uiso   1.00
C17    C     0.58187   0.85958   0.49177   0.00000  Uiso   1.00
C18    C     0.48296   0.93666   0.50197   0.00000  Uiso   1.00
H11    H     0.31257   0.10947   0.51950   0.00000  Uiso   1.00
C19    C     0.41748   0.14209   0.50853   0.00000  Uiso   1.00
C20    C     0.51639   0.06501   0.49833   0.00000  Uiso   1.00
H12    H     0.68678   0.89220   0.48080   0.00000  Uiso   1.00
H13    H     0.11668   0.42911   0.44634   0.00000  Uiso   1.00
H14    H     0.88266   0.57251   0.55400   0.00000  Uiso   1.00
N1     N     0.84975   0.45227   0.46254   0.00000  Uiso   1.00
C21    C     0.92647   0.51000   0.50676   0.00000  Uiso   1.00
H15    H     0.10208   0.60747   0.58143   0.00000  Uiso   1.00
N2     N     0.14958   0.54933   0.53781   0.00000  Uiso   1.00
C22    C     0.07287   0.49161   0.49358   0.00000  Uiso   1.00
H16    H     0.89725   0.39415   0.41891   0.00000  Uiso   1.00
Cl1    Cl    0.43129   0.73618   0.93335   0.00000  Uiso   1.00
Cl2    Cl    0.72228   0.65670   0.87902   0.00000  Uiso   1.00
Cl3    Cl    0.29062   0.33043   0.95047   0.00000  Uiso   1.00
Cl4    Cl    0.56533   0.26623   0.89972   0.00000  Uiso   1.00
