# Generated by REPEAT Assigner based on pymatgen
data_DB0-m3_o22_o151_f0_fsc.sym.17_sqe
_audit_creation_date              2022-05-24
_audit_creation_method            REPEAT_Assigner
_cell_length_a                    9.110677
_cell_length_b                    8.540398
_cell_length_c                    19.370502
_cell_angle_alpha                 90.000000
_cell_angle_beta                  91.053611
_cell_angle_gamma                 90.000000
_cell_volume                      1506.940836
_symmetry_space_group_name_H-M    P1
_symmetry_Int_Tables_number       1
loop_
    _symmetry_equiv_pos_site_id
    _symmetry_equiv_pos_as_xyz
    1  x,y,z
loop_
    _atom_site_type_symbol
    _atom_site_label
    _atom_site_fract_x
    _atom_site_fract_y
    _atom_site_fract_z
    _atom_type_partial_charge
    H   H1   0.054084  0.999912  0.549190  0.131202
    H   H2   0.945917  0.999913  0.450808  0.131182
    C   C1   0.005804  0.139075  0.636154  0.177569
    C   C2   0.994198  0.139075  0.363845  0.177501
    C   C3   0.978510  0.139806  0.705896  -0.349182
    C   C4   0.021491  0.139806  0.294102  -0.349092
    H   H3   0.959156  0.250680  0.730836  0.133144
    H   H4   0.040846  0.250679  0.269162  0.133147
    C   C5   0.978542  0.999805  0.742681  0.225486
    C   C6   0.021458  0.999805  0.257318  0.225389
    C   C7   0.986075  0.859035  0.706590  -0.298672
    C   C8   0.013925  0.859036  0.293409  -0.298602
    H   H5   0.982757  0.747247  0.732333  0.132229
    H   H6   0.017243  0.747248  0.267666  0.132213
    C   C9   0.007281  0.860403  0.636267  0.034451
    C   C10  0.992719  0.860404  0.363732  0.034363
    C   C11  0.028173  0.999838  0.602986  -0.232080
    C   C12  0.971828  0.999838  0.397012  -0.231980
    C   C13  0.059667  0.872278  0.072659  -0.127592
    C   C14  0.940332  0.872278  0.927340  -0.127028
    H   H7   0.097217  0.771312  0.044347  0.101977
    H   H8   0.902781  0.771313  0.955652  0.101819
    C   C15  0.071245  0.873647  0.143824  -0.173333
    C   C16  0.928754  0.873648  0.856175  -0.173293
    H   H9   0.119957  0.773420  0.169151  0.120849
    H   H10  0.880042  0.773421  0.830847  0.120811
    C   C17  0.023038  0.001858  0.181055  0.049035
    C   C18  0.976962  0.001858  0.818944  0.048945
    C   C19  0.967269  0.129964  0.145251  -0.113875
    C   C20  0.032731  0.129964  0.854747  -0.113666
    H   H11  0.921845  0.229341  0.171748  0.114393
    H   H12  0.078156  0.229341  0.828250  0.114328
    C   C21  0.961644  0.130580  0.074141  -0.176108
    C   C22  0.038357  0.130580  0.925857  -0.175751
    H   H13  0.916105  0.230788  0.047241  0.113579
    H   H14  0.083896  0.230787  0.952758  0.113489
    C   C23  0.005435  0.000964  0.037671  0.087711
    C   C24  0.994565  0.000964  0.962327  0.086086
    O   O1   0.129208  0.668941  0.569490  -0.692271
    O   O2   0.870792  0.668942  0.430509  -0.692273
    O   O3   0.876432  0.663244  0.573771  -0.653868
    O   O4   0.123569  0.663245  0.426228  -0.653932
    C   C25  0.004682  0.718127  0.594387  0.765945
    C   C26  0.995317  0.718128  0.405612  0.766006
    O   O5   0.871461  0.330507  0.430521  -0.560836
    O   O6   0.128541  0.330506  0.569477  -0.560863
    O   O7   0.124487  0.336269  0.426079  -0.643318
    O   O8   0.875514  0.336268  0.573919  -0.643334
    C   C27  0.996286  0.281432  0.405586  0.611179
    C   C28  0.003716  0.281431  0.594412  0.611209
    Zn  Zn1  0.835758  0.499625  0.500761  0.948048
    Zn  Zn2  0.164242  0.499626  0.499238  0.948104
    C   C29  0.581220  0.591380  0.443554  0.037539
    C   C30  0.418781  0.591392  0.556441  0.037575
    H   H15  0.633583  0.563682  0.393879  0.006647
    H   H16  0.366420  0.563703  0.606117  0.006599
    H   H17  0.600174  0.717168  0.454752  -0.003727
    H   H18  0.399826  0.717178  0.545238  -0.003732
    C   C31  0.416674  0.564483  0.436896  0.138835
    C   C32  0.583327  0.564497  0.563099  0.139233
    H   H19  0.371570  0.682450  0.427099  -0.001773
    H   H20  0.628432  0.682466  0.572891  -0.001939
    H   H21  0.389359  0.488000  0.392296  -0.045906
    H   H22  0.610642  0.488024  0.607703  -0.046031
    H   H23  0.362260  0.256365  0.474149  0.034962
    H   H24  0.637738  0.256369  0.525859  0.035051
    C   C33  0.580268  0.339888  0.491073  -0.022833
    C   C34  0.419731  0.339890  0.508932  -0.022403
    N   N1   0.641947  0.497531  0.499660  0.188869
    N   N2   0.358053  0.497532  0.500339  0.188735
    Br  Br1  0.591647  0.260337  0.397241  -0.058059
    Br  Br2  0.408354  0.260359  0.602767  -0.058081
