# Generated by REPEAT Assigner based on pymatgen
data_DB0-m2_o6_o16_f0_pcu.sym.136
_audit_creation_date              2022-05-24
_audit_creation_method            REPEAT_Assigner
_cell_length_a                    13.594054
_cell_length_b                    14.614475
_cell_length_c                    16.034808
_cell_angle_alpha                 90.008689
_cell_angle_beta                  89.983319
_cell_angle_gamma                 73.624354
_cell_volume                      3056.405700
_symmetry_space_group_name_H-M    P1
_symmetry_Int_Tables_number       1
loop_
    _symmetry_equiv_pos_site_id
    _symmetry_equiv_pos_as_xyz
    1  x,y,z
loop_
    _atom_site_type_symbol
    _atom_site_label
    _atom_site_fract_x
    _atom_site_fract_y
    _atom_site_fract_z
    _atom_type_partial_charge
    O   O1   0.498141  0.422822  0.624816  -0.621502
    O   O2   0.488920  0.582250  0.625724  -0.604247
    C   C1   0.489279  0.503216  0.664080  0.836919
    O   O3   0.647747  0.388699  0.503652  -0.564083
    O   O4   0.640863  0.547217  0.512846  -0.474134
    C   C2   0.692924  0.457079  0.507583  0.590028
    Cu  Cu1  0.499248  0.410071  0.503548  0.951487
    Cu  Cu2  0.491840  0.594907  0.504585  0.926668
    O   O5   0.505825  0.421788  0.382502  -0.627322
    O   O6   0.502252  0.580159  0.383565  -0.643316
    O   O7   0.350025  0.457511  0.497473  -0.578646
    O   O8   0.343404  0.616387  0.501722  -0.583882
    C   C3   0.502554  0.501618  0.344149  0.885265
    C   C4   0.298678  0.547942  0.497632  0.605226
    C   C5   0.033177  0.681342  0.437900  -0.215655
    H   H1   0.175693  0.713657  0.441382  0.122138
    H   H2   0.844010  0.701763  0.397473  0.118696
    H   H3   0.994196  0.749309  0.410191  0.126046
    C   C6   0.187076  0.573369  0.487392  0.014988
    C   C7   0.852883  0.342479  0.548611  -0.067507
    C   C8   0.956023  0.315808  0.564180  -0.135809
    C   C9   0.014286  0.376155  0.546134  -0.160989
    C   C10  0.970835  0.464316  0.508528  0.055338
    C   C11  0.866080  0.489779  0.489763  0.152512
    C   C12  0.029010  0.527794  0.489496  0.023355
    C   C13  0.980686  0.614953  0.453399  0.192467
    C   C14  0.879897  0.635927  0.429816  -0.197716
    C   C15  0.824082  0.573125  0.445301  -0.201929
    C   C16  0.134257  0.507266  0.504653  -0.183967
    C   C17  0.135656  0.661424  0.455945  -0.110490
    C   C18  0.806000  0.429979  0.513381  -0.127189
    H   H4   0.178652  0.440327  0.529675  0.123057
    H   H5   0.808769  0.294963  0.567371  0.120922
    H   H6   0.093711  0.350217  0.562974  0.127527
    H   H7   0.991396  0.247700  0.593169  0.111915
    H   H8   0.747934  0.591272  0.419658  0.140903
    H   H9   0.496820  0.355963  0.928283  0.142050
    C   C19  0.500908  0.419861  0.047546  -0.172619
    H   H10  0.502449  0.355662  0.081627  0.141109
    C   C20  0.501909  0.501632  0.090047  0.245055
    C   C21  0.499604  0.583620  0.046596  -0.176228
    H   H11  0.500121  0.647787  0.079913  0.139759
    C   C22  0.496296  0.583822  0.960642  -0.189222
    H   H12  0.494494  0.648088  0.926566  0.147899
    C   C23  0.495157  0.502085  0.918146  0.262366
    C   C24  0.497600  0.420064  0.961594  -0.183277
    C   C25  0.503722  0.501739  0.179522  -0.071349
    C   C26  0.492082  0.502282  0.828695  -0.090968
    C   C27  0.490200  0.502600  0.753565  -0.252521
    C   C28  0.504053  0.501753  0.254669  -0.281641
    H   H13  0.361452  0.955607  0.433987  0.162313
    C   C29  0.424489  0.069357  0.464283  -0.150637
    H   H14  0.366472  0.122083  0.430414  0.155369
    C   C30  0.501580  0.095339  0.504898  0.257006
    C   C31  0.575400  0.028213  0.548188  -0.215468
    H   H15  0.634349  0.050957  0.580267  0.190557
    C   C32  0.572830  0.934190  0.551978  -0.136196
    C   C33  0.494805  0.908210  0.510137  0.204965
    C   C34  0.421498  0.976041  0.466710  -0.166343
    C   C35  0.503841  0.192927  0.503668  0.063979
    C   C36  0.489730  0.811362  0.507333  0.077571
    N   N1   0.486908  0.732980  0.505338  -0.175192
    N   N2   0.504620  0.271892  0.503064  -0.163271
    C   C37  0.653968  0.865878  0.600075  0.821664
    O   O9   0.731679  0.887166  0.618595  -0.551070
    N   N3   0.641759  0.777506  0.629290  -0.784679
    H   H16  0.647867  0.777289  0.694193  0.313799
    H   H17  0.702913  0.723110  0.605945  0.308146
