# Generated by REPEAT Assigner based on pymatgen
data_DB0-m3_o13_o22_f0_pcu.sym.72
_audit_creation_date              2022-05-24
_audit_creation_method            REPEAT_Assigner
_cell_length_a                    10.798034
_cell_length_b                    11.868807
_cell_length_c                    13.100561
_cell_angle_alpha                 91.188196
_cell_angle_beta                  89.999517
_cell_angle_gamma                 85.828283
_cell_volume                      1674.154635
_symmetry_space_group_name_H-M    P1
_symmetry_Int_Tables_number       1
loop_
    _symmetry_equiv_pos_site_id
    _symmetry_equiv_pos_as_xyz
    1  x,y,z
loop_
    _atom_site_type_symbol
    _atom_site_label
    _atom_site_fract_x
    _atom_site_fract_y
    _atom_site_fract_z
    _atom_type_partial_charge
    O   O1   0.484177  0.431477  0.671522  -0.699766
    O   O2   0.470768  0.625000  0.655232  -0.698365
    C   C1   0.476813  0.534132  0.711111  0.810580
    O   O3   0.670670  0.413023  0.520637  -0.674618
    O   O4   0.656971  0.606245  0.503756  -0.753709
    C   C2   0.722247  0.508993  0.511508  0.743215
    Zn  Zn1  0.488356  0.383330  0.522332  1.046922
    Zn  Zn2  0.469998  0.638200  0.501162  1.096437
    O   O5   0.487446  0.397210  0.368617  -0.658102
    O   O6   0.474295  0.589563  0.351715  -0.691954
    O   O7   0.301627  0.415368  0.520058  -0.666178
    O   O8   0.287488  0.608592  0.503172  -0.700958
    C   C3   0.482004  0.486534  0.311481  0.772244
    C   C4   0.236412  0.512155  0.511216  0.665389
    C   C5   0.922349  0.386249  0.502627  0.467812
    H   H1   0.887855  0.334812  0.564783  -0.132387
    C   C6   0.061753  0.390378  0.515990  -0.253524
    H   H2   0.088662  0.355015  0.591185  0.014913
    H   H3   0.111293  0.337908  0.455748  0.049172
    H   H4   0.863421  0.545792  0.348652  -0.023136
    H   H5   0.075344  0.513752  0.346941  -0.004206
    C   C7   0.903642  0.575259  0.421442  0.047501
    C   C8   0.905275  0.566578  0.609246  0.295008
    C   C9   0.861736  0.507630  0.511297  -0.066175
    H   H6   0.859012  0.653071  0.613043  -0.061896
    C   C10  0.097824  0.511693  0.510964  0.185872
    C   C11  0.044478  0.565637  0.414830  -0.124790
    C   C12  0.044790  0.577658  0.603105  -0.151690
    H   H7   0.092556  0.545570  0.672691  0.039138
    H   H8   0.061868  0.668181  0.595875  0.002264
    H   H9   0.871966  0.665637  0.432892  -0.011159
    H   H10  0.077024  0.651500  0.406812  0.039467
    C   C13  0.485105  0.471566  0.198249  -0.150558
    C   C14  0.475431  0.546209  0.822929  -0.130915
    C   C15  0.459337  0.658688  0.977147  -0.296142
    C   C16  0.460891  0.650938  0.871575  -0.007645
    C   C17  0.488783  0.450475  0.881011  -0.118255
    C   C18  0.487927  0.458711  0.986040  0.181688
    C   C19  0.472890  0.562072  0.034560  0.195817
    C   C20  0.471372  0.568464  0.139972  -0.193878
    C   C21  0.501956  0.365249  0.147626  0.079955
    C   C22  0.502643  0.361901  0.041456  -0.309347
    H   H11  0.458734  0.650930  0.176454  0.119870
    H   H12  0.447505  0.740896  0.014398  0.144526
    H   H13  0.514580  0.284172  0.997780  0.112456
    H   H14  0.450079  0.727367  0.828038  0.070848
    H   H15  0.500792  0.367863  0.844734  0.089337
    N   N1   0.500438  0.215174  0.534630  -0.076053
    N   N2   0.457773  0.806318  0.488656  -0.010624
    C   C23  0.352944  0.973926  0.428695  -0.224808
    C   C24  0.367172  0.857615  0.431816  -0.038594
    C   C25  0.535466  0.867490  0.543610  -0.164786
    C   C26  0.523897  0.983965  0.541602  0.224687
    C   C27  0.432412  0.037563  0.483746  0.204007
    C   C28  0.421593  0.154015  0.480906  -0.165421
    C   C29  0.589754  0.163910  0.592805  0.092299
    C   C30  0.602757  0.047614  0.597267  -0.271611
    H   H16  0.350681  0.196432  0.434391  0.184080
    H   H17  0.652587  0.213917  0.635350  0.116349
    H   H18  0.279868  0.014438  0.383018  0.162608
    H   H19  0.675221  0.007132  0.643577  0.139369
    H   H20  0.304321  0.807609  0.389291  0.147043
    H   H21  0.606237  0.825019  0.590244  0.195346
    C   C31  0.896125  0.325766  0.400703  -0.317622
    C   C32  0.908747  0.198357  0.413736  0.297401
    C   C33  0.911757  0.139192  0.310028  -0.273400
    H   H22  0.829265  0.169037  0.265115  0.073065
    H   H23  0.997301  0.157424  0.268493  0.044314
    H   H24  0.911327  0.046707  0.320349  0.043793
    H   H25  0.995416  0.172434  0.455053  -0.079470
    H   H26  0.828256  0.172311  0.457720  -0.063008
    H   H27  0.801129  0.348731  0.372791  0.049400
    H   H28  0.961005  0.348691  0.340326  0.071759
    C   C34  0.519543  0.255832  0.205439  -0.080737
    C   C35  0.543219  0.148925  0.139610  0.223384
    C   C36  0.558942  0.046573  0.206845  -0.334782
    H   H29  0.633317  0.057443  0.263741  0.074724
    H   H30  0.470261  0.035314  0.246401  0.065500
    H   H31  0.584075  0.970437  0.158618  0.068627
    H   H32  0.462752  0.137044  0.088846  -0.024784
    H   H33  0.629691  0.153400  0.094573  -0.034425
    H   H34  0.601052  0.260439  0.256384  0.075699
    H   H35  0.434666  0.245276  0.250829  0.042721
    C   C37  0.872336  0.507130  0.707426  -0.306235
    C   C38  0.871659  0.589498  0.798078  0.339329
    C   C39  0.856236  0.526828  0.896389  -0.247803
    H   H36  0.769965  0.481696  0.893166  0.052153
    H   H37  0.937076  0.465183  0.907500  0.034120
    H   H38  0.850502  0.588224  0.961498  0.041859
    H   H39  0.959695  0.631896  0.801920  -0.084655
    H   H40  0.793119  0.654370  0.790436  -0.075777
    H   H41  0.778690  0.475272  0.702329  0.051383
    H   H42  0.939834  0.434333  0.721762  0.068501
