# Generated by REPEAT Assigner based on pymatgen
data_DB0-m3_o20_o29_f0_nbo.sym.19
_audit_creation_date              2022-05-24
_audit_creation_method            REPEAT_Assigner
_cell_length_a                    29.084208
_cell_length_b                    29.084201
_cell_length_c                    55.255405
_cell_angle_alpha                 90.000000
_cell_angle_beta                  90.000000
_cell_angle_gamma                 90.000000
_cell_volume                      46740.048399
_symmetry_space_group_name_H-M    P1
_symmetry_Int_Tables_number       1
loop_
    _symmetry_equiv_pos_site_id
    _symmetry_equiv_pos_as_xyz
    1  x,y,z
loop_
    _atom_site_type_symbol
    _atom_site_label
    _atom_site_fract_x
    _atom_site_fract_y
    _atom_site_fract_z
    _atom_type_partial_charge
    O   O1    0.068321  0.461301  0.500601  -0.700915
    O   O2    0.540692  0.068525  0.500614  -0.688084
    O   O3    0.931515  0.538617  0.499566  -0.702342
    O   O4    0.459206  0.931326  0.499528  -0.687969
    O   O5    0.068515  0.540695  0.499333  -0.688015
    O   O6    0.538612  0.931525  0.500487  -0.702399
    O   O7    0.931321  0.459211  0.500525  -0.688066
    O   O8    0.461298  0.068326  0.499346  -0.701114
    O   O9    0.568321  0.961302  0.000601  -0.700897
    O   O10   0.040693  0.568526  0.000614  -0.688073
    O   O11   0.431516  0.038618  0.999566  -0.702303
    O   O12   0.959209  0.431325  0.999528  -0.687987
    O   O13   0.568516  0.040696  0.999333  -0.688003
    O   O14   0.038614  0.431525  0.000487  -0.702394
    O   O15   0.431321  0.959212  0.000525  -0.688060
    O   O16   0.961299  0.568325  0.999346  -0.701062
    C   C1    0.089785  0.500958  0.499972  0.857969
    C   C2    0.500954  0.089793  0.499958  0.857639
    C   C3    0.910049  0.498954  0.500044  0.861160
    C   C4    0.498950  0.910057  0.500026  0.860929
    C   C5    0.589786  0.000958  0.999972  0.857949
    C   C6    0.000955  0.589793  0.999957  0.857534
    C   C7    0.410050  0.998956  0.000044  0.861110
    C   C8    0.998953  0.410057  0.000026  0.860972
    O   O17   0.998957  0.461385  0.464020  -0.678395
    O   O18   0.538507  0.001030  0.464007  -0.682004
    O   O19   0.000698  0.540695  0.463895  -0.661170
    O   O20   0.459216  0.998808  0.463884  -0.663268
    O   O21   0.001120  0.538517  0.535991  -0.681877
    O   O22   0.540696  0.000808  0.536104  -0.661609
    O   O23   0.998902  0.459226  0.536118  -0.663185
    O   O24   0.461387  0.999063  0.535981  -0.678607
    O   O25   0.498957  0.961386  0.964020  -0.678380
    O   O26   0.038509  0.501030  0.964007  -0.682026
    O   O27   0.500700  0.040696  0.963895  -0.661184
    O   O28   0.959219  0.498807  0.963884  -0.663296
    O   O29   0.501121  0.038517  0.035992  -0.681858
    O   O30   0.040698  0.500808  0.036104  -0.661572
    O   O31   0.498901  0.959227  0.036118  -0.663245
    O   O32   0.961388  0.499062  0.035981  -0.678559
    C   C9    0.999774  0.500991  0.452636  0.527172
    C   C10   0.498911  0.999952  0.452621  0.534566
    C   C11   0.000071  0.498922  0.547379  0.534785
    C   C12   0.500993  0.999908  0.547364  0.528262
    C   C13   0.499774  0.000991  0.952636  0.527175
    C   C14   0.998914  0.499952  0.952621  0.534724
    C   C15   0.500072  0.998922  0.047379  0.534871
    C   C16   0.000994  0.499908  0.047364  0.528161
    Zn  Zn1   0.000002  0.447884  0.499971  1.346707
    Zn  Zn2   0.552023  0.999848  0.499956  1.348991
    Zn  Zn3   0.999840  0.552028  0.500043  1.348803
    Zn  Zn4   0.447880  0.000009  0.500030  1.346818
    Zn  Zn5   0.500002  0.947885  0.999971  1.346692
    Zn  Zn6   0.052025  0.499849  0.999956  1.349002
    Zn  Zn7   0.499841  0.052028  0.000043  1.348786
    Zn  Zn8   0.947882  0.500008  0.000030  1.346772
    C   C17   0.027838  0.530558  0.262605  0.061783
    C   C18   0.469590  0.027623  0.262549  0.066335
    C   C19   0.972451  0.469938  0.262602  0.065048
    C   C20   0.530233  0.972280  0.262654  0.062513
    C   C21   0.027676  0.469555  0.737451  0.066342
    C   C22   0.469924  0.972479  0.737389  0.062552
    C   C23   0.972331  0.530196  0.737347  0.061644
    C   C24   0.530543  0.027867  0.737404  0.063847
    C   C25   0.527845  0.030553  0.762605  0.062628
    C   C26   0.969585  0.527616  0.762549  0.065565
    C   C27   0.472445  0.969945  0.762602  0.066119
    C   C28   0.030243  0.472287  0.762653  0.060872
    C   C29   0.527666  0.969548  0.237451  0.066114
    C   C30   0.969930  0.472472  0.237389  0.063385
    C   C31   0.472336  0.030204  0.237347  0.061406
    C   C32   0.030538  0.527873  0.237404  0.064482
    C   C33   0.000101  0.500287  0.275176  0.005091
    C   C34   0.499859  0.999980  0.275175  0.003218
    C   C35   0.000040  0.499830  0.724825  0.003429
    C   C36   0.500276  0.000138  0.724824  0.005563
    C   C37   0.500100  0.000287  0.775176  0.004190
    C   C38   0.999861  0.499980  0.775175  0.004897
    C   C39   0.500038  0.999831  0.224825  0.003257
    C   C40   0.000277  0.500138  0.224824  0.004984
    C   C41   0.051012  0.564294  0.275436  -0.193368
    C   C42   0.435798  0.050820  0.275324  -0.195655
    C   C43   0.949183  0.436285  0.275447  -0.196574
    C   C44   0.563937  0.949165  0.275533  -0.193993
    C   C45   0.050878  0.435768  0.724675  -0.196248
    C   C46   0.436279  0.949216  0.724537  -0.195742
    C   C47   0.949220  0.563904  0.724468  -0.193327
    C   C48   0.564286  0.051047  0.724581  -0.194358
    C   C49   0.551025  0.064284  0.775436  -0.193873
    C   C50   0.935787  0.550803  0.775324  -0.195773
    C   C51   0.449170  0.936297  0.775447  -0.197143
    C   C52   0.063952  0.449181  0.775533  -0.193316
    C   C53   0.550860  0.935755  0.224676  -0.196823
    C   C54   0.936290  0.449202  0.224536  -0.195812
    C   C55   0.449234  0.063917  0.224468  -0.193552
    C   C56   0.064276  0.551060  0.224581  -0.194535
    C   C57   0.049470  0.566103  0.300267  0.044240
    C   C58   0.433885  0.049330  0.300155  0.046075
    C   C59   0.950554  0.434629  0.300285  0.045616
    C   C60   0.565632  0.950752  0.300366  0.045461
    C   C61   0.049406  0.433870  0.699844  0.048354
    C   C62   0.434630  0.950606  0.699699  0.046539
    C   C63   0.950824  0.565613  0.699635  0.044381
    C   C64   0.566103  0.049525  0.699750  0.043674
    C   C65   0.549484  0.066094  0.800267  0.044728
    C   C66   0.933875  0.549313  0.800155  0.046081
    C   C67   0.450540  0.934640  0.800285  0.045668
    C   C68   0.065647  0.450769  0.800366  0.045549
    C   C69   0.549387  0.933857  0.199844  0.048492
    C   C70   0.934641  0.450592  0.199698  0.046322
    C   C71   0.450839  0.065626  0.199635  0.044960
    C   C72   0.066093  0.549538  0.199750  0.043985
    C   C73   0.025916  0.532258  0.313030  -0.075962
    C   C74   0.467734  0.025886  0.312976  -0.079834
    C   C75   0.974023  0.468549  0.313036  -0.075787
    C   C76   0.531648  0.974213  0.313079  -0.076675
    C   C77   0.025973  0.467728  0.687024  -0.081393
    C   C78   0.468550  0.974092  0.686955  -0.076193
    C   C79   0.974298  0.531640  0.686920  -0.075815
    C   C80   0.532258  0.025986  0.686979  -0.075147
    C   C81   0.525923  0.032254  0.813030  -0.076584
    C   C82   0.967731  0.525878  0.812976  -0.079421
    C   C83   0.474017  0.968556  0.813036  -0.075866
    C   C84   0.031657  0.474221  0.813079  -0.076591
    C   C85   0.525963  0.967722  0.187024  -0.080909
    C   C86   0.968556  0.474086  0.186955  -0.076365
    C   C87   0.474305  0.031647  0.186920  -0.076577
    C   C88   0.032253  0.525993  0.186979  -0.075652
    C   C89   0.000013  0.500365  0.300351  0.054338
    C   C90   0.499749  0.000029  0.300349  0.056300
    C   C91   0.000106  0.499735  0.699651  0.056703
    C   C92   0.500361  0.000071  0.699649  0.053654
    C   C93   0.500013  0.000365  0.800351  0.054877
    C   C94   0.999751  0.500029  0.800349  0.055443
    C   C95   0.500104  0.999735  0.199651  0.057073
    C   C96   0.000362  0.500071  0.199649  0.053964
    C   C97   0.028530  0.528671  0.338102  0.397342
    C   C98   0.471203  0.028550  0.338054  0.400756
    C   C99   0.971242  0.472293  0.338099  0.396061
    C   C100  0.527926  0.971591  0.338147  0.396113
    C   C101  0.028657  0.471212  0.661947  0.400473
    C   C102  0.472297  0.971338  0.661892  0.397606
    C   C103  0.971697  0.527933  0.661851  0.396719
    C   C104  0.528674  0.028627  0.661908  0.397894
    C   C105  0.528536  0.028666  0.838102  0.397537
    C   C106  0.971199  0.528542  0.838054  0.400573
    C   C107  0.471236  0.972300  0.838099  0.395990
    C   C108  0.027936  0.471598  0.838147  0.396222
    C   C109  0.528649  0.971206  0.161948  0.399866
    C   C110  0.972304  0.471332  0.161892  0.397895
    C   C111  0.471702  0.027941  0.161851  0.397657
    C   C112  0.028669  0.528632  0.161908  0.398162
    N   N1    0.999841  0.500525  0.350120  -0.103394
    N   N2    0.499498  0.000075  0.350110  -0.103507
    N   N3    0.000191  0.499513  0.649890  -0.103737
    N   N4    0.500528  0.999953  0.649880  -0.106170
    N   N5    0.499842  0.000526  0.850120  -0.103281
    N   N6    0.999501  0.500075  0.850110  -0.103487
    N   N7    0.500190  0.999513  0.149890  -0.104342
    N   N8    0.000529  0.499953  0.149880  -0.106391
    H   H1    0.067498  0.592703  0.266472  0.174863
    H   H2    0.407412  0.067252  0.266311  0.175191
    H   H3    0.932751  0.407826  0.266500  0.175114
    H   H4    0.592409  0.932716  0.266604  0.174072
    H   H5    0.067302  0.407375  0.733687  0.175300
    H   H6    0.407819  0.932774  0.733476  0.174886
    H   H7    0.932760  0.592369  0.733398  0.174135
    H   H8    0.592693  0.067523  0.733551  0.175243
    H   H9    0.567517  0.092689  0.766472  0.174916
    H   H10   0.907397  0.567228  0.766312  0.175362
    H   H11   0.432732  0.907841  0.766501  0.175233
    H   H12   0.092429  0.432740  0.766604  0.173919
    H   H13   0.567276  0.907358  0.233687  0.175460
    H   H14   0.907833  0.432754  0.233476  0.174805
    H   H15   0.432782  0.092386  0.233398  0.174159
    H   H16   0.092680  0.567542  0.233551  0.175200
    O   O33   0.061139  0.551112  0.350640  -0.430191
    O   O34   0.448478  0.060989  0.350572  -0.431507
    O   O35   0.938559  0.449919  0.350617  -0.430534
    O   O36   0.550521  0.939167  0.350741  -0.430095
    O   O37   0.061107  0.448495  0.649434  -0.431395
    O   O38   0.449927  0.938667  0.649363  -0.430908
    O   O39   0.939282  0.550534  0.649254  -0.430412
    O   O40   0.551117  0.061249  0.649380  -0.430432
    O   O41   0.561149  0.051101  0.850640  -0.430262
    O   O42   0.948467  0.560976  0.850572  -0.431444
    O   O43   0.438550  0.949932  0.850617  -0.430520
    O   O44   0.050539  0.439179  0.850740  -0.430140
    O   O45   0.561094  0.948481  0.149434  -0.431210
    O   O46   0.949940  0.438658  0.149363  -0.431007
    O   O47   0.439293  0.050550  0.149254  -0.430651
    O   O48   0.051106  0.561259  0.149380  -0.430486
    C   C113  0.499871  0.589854  0.500485  0.766482
    C   C114  0.409989  0.499973  0.499525  0.766387
    C   C115  0.499965  0.409997  0.499515  0.765868
    C   C116  0.589846  0.499879  0.500475  0.765857
    C   C117  0.999872  0.089853  0.000485  0.766480
    C   C118  0.909990  0.999972  0.999525  0.766373
    C   C119  0.999966  0.909996  0.999515  0.765928
    C   C120  0.089847  0.999878  0.000475  0.765870
    Zn  Zn9   0.499922  0.499940  0.472562  1.308122
    Zn  Zn10  0.499914  0.499910  0.527439  1.308058
    Zn  Zn11  0.999922  0.999940  0.972562  1.308113
    Zn  Zn12  0.999915  0.999910  0.027439  1.308068
    O   O49   0.498823  0.568336  0.479616  -0.679551
    O   O50   0.431189  0.498856  0.478582  -0.664864
    O   O51   0.498841  0.431205  0.478574  -0.664780
    O   O52   0.568321  0.498839  0.479608  -0.679109
    O   O53   0.501013  0.431514  0.520384  -0.679093
    O   O54   0.431514  0.501012  0.520392  -0.679264
    O   O55   0.500995  0.568646  0.521426  -0.664933
    O   O56   0.568646  0.500995  0.521419  -0.664914
    O   O57   0.998824  0.068336  0.979616  -0.679527
    O   O58   0.931190  0.998856  0.978582  -0.664862
    O   O59   0.998841  0.931205  0.978574  -0.664806
    O   O60   0.068322  0.998839  0.979608  -0.679107
    O   O61   0.001014  0.931514  0.020384  -0.679155
    O   O62   0.931515  0.001012  0.020392  -0.679250
    O   O63   0.000996  0.068645  0.021426  -0.664936
    O   O64   0.068647  0.000995  0.021419  -0.664901
    C   C121  0.006387  0.460213  0.388620  -0.130929
    C   C122  0.539614  0.007422  0.388612  -0.124550
    C   C123  0.993070  0.541144  0.388516  -0.123499
    C   C124  0.458929  0.992698  0.388479  -0.119146
    C   C125  0.007554  0.539628  0.611388  -0.122673
    C   C126  0.541151  0.993221  0.611483  -0.124799
    C   C127  0.992832  0.458943  0.611522  -0.121131
    C   C128  0.460220  0.006536  0.611381  -0.133192
    C   C129  0.506382  0.960213  0.888620  -0.131001
    C   C130  0.039616  0.507428  0.888612  -0.124667
    C   C131  0.493077  0.041147  0.888517  -0.123453
    C   C132  0.958933  0.492689  0.888478  -0.119673
    C   C133  0.507560  0.039628  0.111388  -0.122488
    C   C134  0.041153  0.493227  0.111483  -0.124341
    C   C135  0.492824  0.958945  0.111521  -0.121678
    C   C136  0.960220  0.506530  0.111380  -0.133059
    H   H17   0.012263  0.428332  0.379047  0.166231
    H   H18   0.571399  0.013806  0.379041  0.163478
    H   H19   0.987228  0.572942  0.378861  0.163513
    H   H20   0.427257  0.986331  0.378801  0.162242
    H   H21   0.013932  0.571414  0.620959  0.162863
    H   H22   0.572948  0.987372  0.621138  0.163823
    H   H23   0.986462  0.427271  0.621199  0.162898
    H   H24   0.428338  0.012403  0.620954  0.166692
    H   H25   0.512252  0.928332  0.879047  0.166245
    H   H26   0.071399  0.513818  0.879041  0.163473
    H   H27   0.487240  0.072945  0.878861  0.163517
    H   H28   0.927262  0.486316  0.878801  0.162379
    H   H29   0.513945  0.071412  0.120959  0.162824
    H   H30   0.072951  0.487383  0.121138  0.163711
    H   H31   0.486448  0.927274  0.121199  0.162994
    H   H32   0.928337  0.512392  0.120954  0.166678
    C   C137  0.006080  0.460244  0.413561  -0.123564
    C   C138  0.539552  0.007157  0.413553  -0.128366
    C   C139  0.993345  0.541341  0.413456  -0.125656
    C   C140  0.458704  0.992894  0.413419  -0.130802
    C   C141  0.007297  0.539564  0.586447  -0.129021
    C   C142  0.541348  0.993506  0.586543  -0.124830
    C   C143  0.993036  0.458716  0.586581  -0.129162
    C   C144  0.460250  0.006238  0.586439  -0.121925
    C   C145  0.506075  0.960244  0.913561  -0.123449
    C   C146  0.039554  0.507163  0.913553  -0.128015
    C   C147  0.493352  0.041343  0.913456  -0.125635
    C   C148  0.958708  0.492886  0.913419  -0.130308
    C   C149  0.507303  0.039564  0.086447  -0.129091
    C   C150  0.041351  0.493512  0.086543  -0.125149
    C   C151  0.493029  0.958718  0.086581  -0.128659
    C   C152  0.960251  0.506233  0.086439  -0.122077
    H   H33   0.011492  0.428191  0.423024  0.119230
    H   H34   0.571506  0.013116  0.423017  0.121502
    H   H35   0.987938  0.573484  0.422836  0.118736
    H   H36   0.426643  0.986906  0.422778  0.121164
    H   H37   0.013252  0.571518  0.576981  0.121477
    H   H38   0.573491  0.988099  0.577164  0.118651
    H   H39   0.987048  0.426654  0.577223  0.120670
    H   H40   0.428197  0.011649  0.576976  0.118917
    H   H41   0.511482  0.928190  0.923024  0.119214
    H   H42   0.071506  0.513128  0.923018  0.121422
    H   H43   0.487950  0.073487  0.922836  0.118721
    H   H44   0.926648  0.486892  0.922778  0.121091
    H   H45   0.513265  0.071517  0.076981  0.121474
    H   H46   0.073494  0.488110  0.077164  0.118682
    H   H47   0.487034  0.926658  0.077223  0.120606
    H   H48   0.928196  0.511638  0.076976  0.118941
    C   C153  0.999718  0.500853  0.426119  0.161849
    C   C154  0.499057  0.000003  0.426100  0.160818
    C   C155  0.000146  0.499068  0.573900  0.160084
    C   C156  0.500859  0.999879  0.573881  0.160302
    C   C157  0.499719  0.000854  0.926119  0.161798
    C   C158  0.999059  0.500002  0.926100  0.160346
    C   C159  0.500146  0.999068  0.073900  0.159822
    C   C160  0.000860  0.499879  0.073881  0.160516
    C   C161  0.999752  0.500625  0.375966  0.074599
    C   C162  0.499345  0.000072  0.375950  0.070990
    C   C163  0.000200  0.499360  0.624050  0.071188
    C   C164  0.500630  0.999892  0.624034  0.077804
    C   C165  0.499753  0.000626  0.875966  0.074498
    C   C166  0.999348  0.500071  0.875950  0.071182
    C   C167  0.500199  0.999361  0.124050  0.071593
    C   C168  0.000632  0.499892  0.124034  0.077648
    C   C169  0.139139  0.500832  0.499940  -0.184014
    C   C170  0.500829  0.139147  0.499914  -0.182798
    C   C171  0.860695  0.499078  0.500076  -0.186287
    C   C172  0.499073  0.860703  0.500071  -0.186052
    C   C173  0.639140  0.000832  0.999940  -0.184022
    C   C174  0.000829  0.639147  0.999913  -0.182715
    C   C175  0.360696  0.999080  0.000076  -0.186245
    C   C176  0.999077  0.360703  0.000071  -0.186083
    C   C177  0.180586  0.500702  0.499900  0.053380
    C   C178  0.500698  0.180593  0.499870  0.051901
    C   C179  0.819249  0.499202  0.500113  0.054643
    C   C180  0.499197  0.819257  0.500116  0.054480
    C   C181  0.680586  0.000701  0.999901  0.053397
    C   C182  0.000699  0.680593  0.999870  0.051826
    C   C183  0.319250  0.999203  0.000113  0.054603
    C   C184  0.999200  0.319257  0.000116  0.054489
    C   C185  0.229161  0.500532  0.499842  -0.020049
    C   C186  0.500528  0.229169  0.499811  -0.018777
    C   C187  0.770673  0.499360  0.500168  -0.020965
    C   C188  0.499355  0.770681  0.500178  -0.020793
    C   C189  0.729162  0.000531  0.999842  -0.020059
    C   C190  0.000528  0.729169  0.999811  -0.018700
    C   C191  0.270674  0.999362  0.000168  -0.020932
    C   C192  0.999358  0.270681  0.000179  -0.020801
    C   C193  0.270611  0.500384  0.499782  0.044488
    C   C194  0.500379  0.270618  0.499755  0.043870
    C   C195  0.729224  0.499498  0.500225  0.045651
    C   C196  0.499492  0.729232  0.500239  0.045503
    C   C197  0.770611  0.000383  0.999782  0.044508
    C   C198  0.000379  0.770618  0.999755  0.043794
    C   C199  0.229225  0.999498  0.000225  0.045624
    C   C200  0.999494  0.229232  0.000239  0.045505
    C   C201  0.319187  0.500218  0.499702  -0.029879
    C   C202  0.500212  0.319194  0.499680  -0.030160
    C   C203  0.680648  0.499651  0.500302  -0.031159
    C   C204  0.499645  0.680656  0.500317  -0.031060
    C   C205  0.819187  0.000217  0.999702  -0.029897
    C   C206  0.000212  0.819194  0.999680  -0.030080
    C   C207  0.180649  0.999652  0.000301  -0.031134
    C   C208  0.999646  0.180656  0.000317  -0.031067
    C   C209  0.360633  0.500092  0.499625  -0.083741
    C   C210  0.500086  0.360641  0.499609  -0.083148
    C   C211  0.639202  0.499767  0.500376  -0.082679
    C   C212  0.499760  0.639209  0.500391  -0.082943
    C   C213  0.860634  0.000091  0.999625  -0.083734
    C   C214  0.000086  0.860641  0.999609  -0.083204
    C   C215  0.139202  0.999767  0.000376  -0.082711
    C   C216  0.999761  0.139209  0.000391  -0.082944
    C   C217  0.069131  0.607355  0.311688  0.617499
    O   O65   0.105098  0.623402  0.304123  -0.509269
    O   O66   0.044586  0.631026  0.329381  -0.592168
    H   H49   0.062212  0.659349  0.334574  0.445964
    C   C218  0.392554  0.068965  0.311507  0.619008
    O   O67   0.376544  0.104933  0.303923  -0.509550
    O   O68   0.368768  0.044384  0.329143  -0.592323
    H   H50   0.340402  0.061992  0.334289  0.445582
    C   C219  0.930806  0.393451  0.311738  0.619162
    O   O69   0.894886  0.377367  0.304133  -0.509714
    O   O70   0.955226  0.369880  0.329516  -0.592856
    H   H51   0.937557  0.341593  0.334724  0.446156
    C   C220  0.606877  0.931198  0.311844  0.617187
    O   O71   0.623019  0.895242  0.304321  -0.509333
    O   O72   0.630443  0.955841  0.329538  -0.590842
    H   H52   0.658783  0.938284  0.334771  0.445491
    C   C221  0.069041  0.392542  0.688489  0.617043
    O   O73   0.104999  0.376519  0.696078  -0.509089
    O   O74   0.044469  0.368772  0.670843  -0.591737
    H   H53   0.062076  0.340406  0.665696  0.445576
    C   C222  0.393458  0.930860  0.688238  0.618271
    O   O75   0.377383  0.894928  0.695832  -0.509548
    O   O76   0.369884  0.955293  0.670467  -0.592961
    H   H54   0.341601  0.937623  0.665253  0.446403
    C   C223  0.931268  0.606861  0.688161  0.617783
    O   O77   0.895302  0.622989  0.695678  -0.509448
    O   O78   0.955918  0.630445  0.670476  -0.591218
    H   H55   0.938358  0.658783  0.665244  0.445612
    C   C224  0.607361  0.069188  0.688336  0.617955
    O   O79   0.623416  0.105143  0.695912  -0.509369
    O   O80   0.631027  0.044657  0.670636  -0.592209
    H   H56   0.659355  0.062283  0.665449  0.445899
    C   C225  0.569154  0.107342  0.811688  0.617593
    O   O81   0.605124  0.123381  0.804123  -0.509344
    O   O82   0.544614  0.131018  0.829381  -0.592280
    H   H57   0.562246  0.159337  0.834574  0.446013
    C   C226  0.892539  0.568937  0.811507  0.618765
    O   O83   0.876519  0.604900  0.803923  -0.509477
    O   O84   0.868760  0.544350  0.829144  -0.592266
    H   H58   0.840390  0.561951  0.834289  0.445592
    C   C227  0.430784  0.893466  0.811738  0.619336
    O   O85   0.394860  0.877391  0.804134  -0.509748
    O   O86   0.455199  0.869890  0.829516  -0.592932
    H   H59   0.437524  0.841606  0.834724  0.446164
    C   C228  0.106898  0.431226  0.811843  0.617072
    O   O87   0.123049  0.395275  0.804320  -0.509270
    O   O88   0.130457  0.455874  0.829538  -0.590904
    H   H60   0.158801  0.438325  0.834771  0.445525
    C   C229  0.569011  0.892525  0.188489  0.617064
    O   O89   0.604965  0.876492  0.196079  -0.509093
    O   O90   0.544433  0.868762  0.170843  -0.591636
    H   H61   0.562033  0.840391  0.165696  0.445493
    C   C230  0.893474  0.430837  0.188238  0.618635
    O   O91   0.877407  0.394901  0.195831  -0.509586
    O   O92   0.869893  0.455266  0.170467  -0.593073
    H   H62   0.841615  0.437590  0.165253  0.446379
    C   C231  0.431294  0.106879  0.188161  0.617452
    O   O93   0.395333  0.123017  0.195678  -0.509292
    O   O94   0.455951  0.130456  0.170476  -0.591213
    H   H63   0.438398  0.158799  0.165244  0.445621
    C   C232  0.107348  0.569210  0.188336  0.618070
    O   O95   0.123394  0.605169  0.195912  -0.509467
    O   O96   0.131019  0.544685  0.170636  -0.592335
    H   H64   0.159343  0.562316  0.165449  0.445968
