# Generated by REPEAT Assigner based on pymatgen
data_DB0-m2_o6_o14_f0_nbo.sym.60
_audit_creation_date              2022-05-24
_audit_creation_method            REPEAT_Assigner
_cell_length_a                    37.922132
_cell_length_b                    32.006214
_cell_length_c                    21.356564
_cell_angle_alpha                 90.000000
_cell_angle_beta                  122.877809
_cell_angle_gamma                 90.000000
_cell_volume                      21769.572247
_symmetry_space_group_name_H-M    P1
_symmetry_Int_Tables_number       1
loop_
    _symmetry_equiv_pos_site_id
    _symmetry_equiv_pos_as_xyz
    1  x,y,z
loop_
    _atom_site_type_symbol
    _atom_site_label
    _atom_site_fract_x
    _atom_site_fract_y
    _atom_site_fract_z
    _atom_type_partial_charge
    O   O1    0.939024  0.047772  0.440521  -0.613636
    O   O2    0.061007  0.047768  0.559482  -0.613471
    O   O3    0.439024  0.547772  0.440521  -0.613612
    O   O4    0.561007  0.547768  0.559482  -0.613463
    O   O5    0.943386  0.978714  0.411513  -0.614268
    O   O6    0.056640  0.978710  0.588486  -0.614416
    O   O7    0.443386  0.478714  0.411513  -0.614256
    O   O8    0.556640  0.478710  0.588486  -0.614428
    C   C1    0.922041  0.013407  0.401321  0.863925
    C   C2    0.077987  0.013401  0.598679  0.864047
    C   C3    0.422041  0.513407  0.401321  0.863899
    C   C4    0.577987  0.513401  0.598679  0.864050
    O   O9    0.999569  0.047657  0.590505  -0.610167
    O   O10   0.000463  0.047657  0.409498  -0.610140
    O   O11   0.499569  0.547657  0.590505  -0.610193
    O   O12   0.500463  0.547657  0.409498  -0.610147
    O   O13   0.977386  0.978681  0.562709  -0.624770
    O   O14   0.022641  0.978679  0.437289  -0.624831
    O   O15   0.477386  0.478681  0.562709  -0.624823
    O   O16   0.522641  0.478679  0.437289  -0.624860
    C   C5    0.984239  0.013336  0.601453  0.779276
    C   C6    0.015790  0.013335  0.398548  0.779200
    C   C7    0.484239  0.513336  0.601453  0.779446
    C   C8    0.515790  0.513335  0.398548  0.779215
    Cu  Cu1   0.000016  0.054058  0.500001  0.987407
    Cu  Cu2   0.500016  0.554058  0.500001  0.987405
    Cu  Cu3   0.000013  0.972377  0.499999  1.019429
    Cu  Cu4   0.500013  0.472377  0.499999  1.019456
    C   C9    0.000016  0.126990  0.000004  -0.250353
    C   C10   0.500016  0.626990  0.000004  -0.250342
    H   H1    0.034091  0.051462  0.726250  0.120706
    H   H2    0.965950  0.051477  0.273759  0.120628
    H   H3    0.534091  0.551462  0.726250  0.120686
    H   H4    0.465950  0.551477  0.273759  0.120627
    C   C11   0.912282  0.972662  0.607484  -0.332852
    C   C12   0.087736  0.972642  0.392511  -0.333615
    C   C13   0.412282  0.472662  0.607484  -0.332726
    C   C14   0.587736  0.472642  0.392511  -0.333597
    C   C15   0.890424  0.942166  0.618530  -0.012137
    C   C16   0.109586  0.942138  0.381459  -0.011488
    C   C17   0.390424  0.442166  0.618530  -0.012222
    C   C18   0.609586  0.442138  0.381459  -0.011489
    H   H5    0.863373  0.927303  0.571525  0.107560
    H   H6    0.136632  0.927269  0.428462  0.107497
    H   H7    0.363373  0.427303  0.571525  0.107573
    H   H8    0.636632  0.427269  0.428462  0.107494
    C   C19   0.901140  0.931549  0.688789  -0.101490
    C   C20   0.098868  0.931524  0.311198  -0.102449
    C   C21   0.401140  0.431549  0.688789  -0.101531
    C   C22   0.598868  0.431524  0.311198  -0.102452
    H   H9    0.883348  0.908035  0.696448  0.118562
    H   H10   0.116654  0.908006  0.303535  0.118747
    H   H11   0.383348  0.408035  0.696448  0.118580
    H   H12   0.616654  0.408006  0.303535  0.118746
    C   C23   0.932391  0.952965  0.748925  -0.225915
    C   C24   0.067625  0.952949  0.251067  -0.224681
    C   C25   0.432391  0.452965  0.748925  -0.225814
    C   C26   0.567625  0.452949  0.251067  -0.224666
    H   H13   0.938685  0.944648  0.803019  0.161743
    H   H14   0.061330  0.944635  0.196971  0.161578
    H   H15   0.438685  0.444648  0.803019  0.161706
    H   H16   0.561330  0.444635  0.196971  0.161574
    C   C27   0.956058  0.982478  0.739908  0.154287
    C   C28   0.043966  0.982469  0.260090  0.152723
    C   C29   0.456058  0.482478  0.739908  0.154231
    C   C30   0.543966  0.482469  0.260090  0.152716
    C   C31   0.949138  0.989466  0.669460  0.271836
    C   C32   0.050885  0.989456  0.330538  0.272819
    C   C33   0.449138  0.489466  0.669460  0.271821
    C   C34   0.550885  0.489456  0.330538  0.272802
    C   C35   0.979260  0.012963  0.665259  -0.250160
    C   C36   0.020770  0.012962  0.334743  -0.250696
    C   C37   0.479260  0.512963  0.665259  -0.250254
    C   C38   0.520770  0.512962  0.334743  -0.250676
    C   C39   0.010633  0.033367  0.728122  -0.047533
    C   C40   0.989404  0.033375  0.271885  -0.047024
    C   C41   0.510633  0.533367  0.728122  -0.047504
    C   C42   0.489404  0.533375  0.271885  -0.047036
    H   H17   0.038645  0.046379  0.843221  0.136917
    H   H18   0.961397  0.046394  0.156790  0.137209
    H   H19   0.538645  0.546379  0.843221  0.136917
    H   H20   0.461397  0.546394  0.156790  0.137209
    C   C43   0.014156  0.029657  0.795124  -0.114279
    C   C44   0.985881  0.029666  0.204884  -0.115285
    C   C45   0.514156  0.529657  0.795124  -0.114272
    C   C46   0.485881  0.529666  0.204884  -0.115271
    C   C47   0.987393  0.004085  0.801684  -0.156170
    C   C48   0.012637  0.004085  0.198319  -0.154493
    C   C49   0.487393  0.504085  0.801684  -0.156131
    C   C50   0.512637  0.504085  0.198319  -0.154493
    H   H21   0.791040  0.967090  0.186386  0.140500
    H   H22   0.208935  0.965960  0.812156  0.140462
    H   H23   0.291040  0.467090  0.186386  0.140506
    H   H24   0.708935  0.465960  0.812156  0.140482
    C   C51   0.730279  0.984127  0.161776  -0.197568
    C   C52   0.269718  0.983504  0.837464  -0.198452
    C   C53   0.230279  0.484127  0.161776  -0.197551
    C   C54   0.769718  0.483504  0.837464  -0.198501
    H   H25   0.713780  0.964161  0.113303  0.151318
    H   H26   0.286194  0.963035  0.885231  0.151483
    H   H27   0.213780  0.464161  0.113303  0.151316
    H   H28   0.786194  0.463035  0.885231  0.151492
    C   C55   0.708076  0.007612  0.183246  0.286445
    C   C56   0.291949  0.007629  0.816861  0.287642
    C   C57   0.208076  0.507612  0.183246  0.286419
    C   C58   0.791949  0.507629  0.816861  0.287706
    C   C59   0.729119  0.032973  0.245173  -0.219051
    C   C60   0.270935  0.033630  0.755824  -0.218921
    C   C61   0.229119  0.532973  0.245173  -0.219032
    C   C62   0.770935  0.533630  0.755824  -0.218933
    H   H29   0.711714  0.051287  0.262078  0.154527
    H   H30   0.288363  0.052444  0.739591  0.154421
    H   H31   0.211714  0.551287  0.262078  0.154519
    H   H32   0.788363  0.552444  0.739591  0.154419
    C   C63   0.772333  0.034655  0.285983  -0.130378
    C   C64   0.227720  0.035310  0.715019  -0.131784
    C   C65   0.272333  0.534655  0.285983  -0.130394
    C   C66   0.727720  0.535310  0.715019  -0.131791
    H   H33   0.788837  0.054173  0.335064  0.141573
    H   H34   0.211239  0.055328  0.666611  0.141814
    H   H35   0.288837  0.554173  0.335064  0.141581
    H   H36   0.711239  0.555328  0.666611  0.141821
    C   C67   0.794585  0.011059  0.264860  0.212820
    C   C68   0.205440  0.011071  0.735262  0.213134
    C   C69   0.294585  0.511059  0.264860  0.212844
    C   C70   0.705440  0.511071  0.735262  0.213124
    C   C71   0.773584  0.985823  0.202660  -0.158145
    C   C72   0.226414  0.985197  0.796585  -0.157616
    C   C73   0.273584  0.485823  0.202660  -0.158164
    C   C74   0.726414  0.485197  0.796585  -0.157621
    C   C75   0.663095  0.005494  0.142030  -0.107129
    C   C76   0.336929  0.005502  0.858027  -0.108098
    C   C77   0.163095  0.505494  0.142030  -0.107111
    C   C78   0.836929  0.505502  0.858027  -0.108151
    C   C79   0.839609  0.011814  0.309714  -0.050151
    C   C80   0.160417  0.011817  0.690344  -0.049590
    C   C81   0.339609  0.511814  0.309714  -0.050170
    C   C82   0.660417  0.511817  0.690344  -0.049552
    C   C83   0.877338  0.012554  0.349942  -0.269286
    C   C84   0.122689  0.012551  0.650081  -0.270270
    C   C85   0.377338  0.512554  0.349942  -0.269269
    C   C86   0.622689  0.512551  0.650081  -0.270308
    C   C87   0.625330  0.004245  0.108526  -0.183601
    C   C88   0.374693  0.004249  0.891505  -0.182262
    C   C89   0.125330  0.504245  0.108526  -0.183660
    C   C90   0.874693  0.504249  0.891505  -0.182232
    C   C91   0.500012  0.878083  0.000009  -0.228976
    C   C92   0.000012  0.378083  0.000009  -0.229016
    O   O17   0.035748  0.943336  0.045649  -0.586983
    O   O18   0.964281  0.943337  0.954353  -0.586925
    O   O19   0.535748  0.443336  0.045649  -0.586973
    O   O20   0.464281  0.443337  0.954353  -0.586884
    C   C93   0.000015  0.923854  0.000001  0.786070
    C   C94   0.500015  0.423854  0.000001  0.786013
    O   O21   0.028419  0.991804  0.932982  -0.620493
    O   O22   0.971611  0.991804  0.067021  -0.620623
    O   O23   0.528419  0.491804  0.932982  -0.620466
    O   O24   0.471611  0.491804  0.067021  -0.620593
    O   O25   0.959286  0.014133  0.877203  -0.610168
    O   O26   0.040745  0.014132  0.122801  -0.610096
    O   O27   0.459286  0.514133  0.877203  -0.610148
    O   O28   0.540745  0.514132  0.122801  -0.610085
    C   C95   0.991666  0.002513  0.873904  0.771504
    C   C96   0.008364  0.002512  0.126099  0.770779
    C   C97   0.491666  0.502513  0.873904  0.771449
    C   C98   0.508364  0.502512  0.126099  0.770758
    Cu  Cu5   0.040885  0.003004  0.032968  0.974202
    Cu  Cu6   0.959146  0.003005  0.967035  0.974214
    Cu  Cu7   0.540885  0.503004  0.032968  0.974181
    Cu  Cu8   0.459146  0.503005  0.967035  0.974175
    O   O29   0.033401  0.062674  0.010084  -0.593151
    O   O30   0.966631  0.062674  0.989921  -0.593160
    O   O31   0.533401  0.562674  0.010084  -0.593131
    O   O32   0.466631  0.562674  0.989921  -0.593120
    C   C99   0.000016  0.082166  0.000003  0.824688
    C   C100  0.500016  0.582166  0.000003  0.824640
    O   O33   0.504159  0.942335  0.057759  -0.603412
    O   O34   0.495863  0.942337  0.942262  -0.603423
    O   O35   0.004159  0.442335  0.057759  -0.603436
    O   O36   0.995863  0.442337  0.942262  -0.603402
    C   C101  0.500011  0.922909  0.000010  0.837871
    C   C102  0.000011  0.422909  0.000010  0.837924
    O   O37   0.563416  0.001484  0.109151  -0.588164
    O   O38   0.436607  0.001486  0.890873  -0.588094
    O   O39   0.063416  0.501484  0.109151  -0.588205
    O   O40   0.936607  0.501486  0.890873  -0.588086
    O   O41   0.558440  0.001552  0.996644  -0.617195
    O   O42   0.441583  0.001551  0.003380  -0.617159
    O   O43   0.058440  0.501552  0.996644  -0.617214
    O   O44   0.941583  0.501551  0.003380  -0.617185
    C   C103  0.580381  0.003495  0.069660  0.783280
    C   C104  0.419642  0.003496  0.930365  0.782715
    C   C105  0.080381  0.503495  0.069660  0.783370
    C   C106  0.919642  0.503496  0.930365  0.782703
    Cu  Cu9   0.502868  0.003079  0.065015  1.025542
    Cu  Cu10  0.497155  0.003080  0.935009  1.025434
    Cu  Cu11  0.002868  0.503079  0.065015  1.025484
    Cu  Cu12  0.997155  0.503080  0.935009  1.025524
    O   O45   0.504266  0.063807  0.057724  -0.619137
    O   O46   0.495757  0.063809  0.942304  -0.619079
    O   O47   0.004266  0.563807  0.057724  -0.619154
    O   O48   0.995757  0.563809  0.942304  -0.619061
    C   C107  0.500012  0.083254  0.000015  0.763246
    C   C108  0.000012  0.583254  0.000015  0.763278
    H   H37   0.952614  0.791996  0.024686  0.147749
    H   H38   0.047412  0.791991  0.975328  0.147730
    H   H39   0.452614  0.291996  0.024686  0.147744
    H   H40   0.547412  0.291991  0.975328  0.147725
    C   C109  0.473439  0.232023  0.013849  -0.182505
    C   C110  0.526587  0.232021  0.986174  -0.182721
    C   C111  0.973439  0.732023  0.013849  -0.182507
    C   C112  0.026587  0.732021  0.986174  -0.182723
    H   H41   0.452615  0.215125  0.024693  0.147790
    H   H42   0.547411  0.215120  0.975331  0.147867
    H   H43   0.952615  0.715125  0.024693  0.147792
    H   H44   0.047411  0.715120  0.975331  0.147872
    C   C113  0.500013  0.210501  0.000013  0.275743
    C   C114  0.000013  0.710501  0.000013  0.275740
    C   C115  0.026587  0.775092  0.986172  -0.177353
    C   C116  0.973439  0.775095  0.013845  -0.177456
    C   C117  0.526587  0.275092  0.986172  -0.177347
    C   C118  0.473439  0.275095  0.013845  -0.177443
    C   C119  0.000013  0.796615  0.000007  0.232825
    C   C120  0.500013  0.296615  0.000007  0.232811
    C   C121  0.500012  0.165695  0.000015  -0.128367
    C   C122  0.000012  0.665695  0.000015  -0.128372
    C   C123  0.000013  0.841421  0.000004  -0.059492
    C   C124  0.500013  0.341421  0.000004  -0.059493
    C   C125  0.000014  0.879053  0.000002  -0.235351
    C   C126  0.500014  0.379053  0.000002  -0.235331
    C   C127  0.500012  0.128061  0.000016  -0.145107
    C   C128  0.000012  0.628061  0.000016  -0.145136
    H   H45   0.953688  0.214102  0.883418  0.146227
    H   H46   0.046344  0.214102  0.116592  0.146431
    H   H47   0.453688  0.714102  0.883418  0.146225
    H   H48   0.546344  0.714102  0.116592  0.146429
    C   C129  0.474043  0.774077  0.934646  -0.187010
    C   C130  0.525986  0.774076  0.065367  -0.186729
    C   C131  0.974043  0.274077  0.934646  -0.187001
    C   C132  0.025986  0.274076  0.065367  -0.186715
    H   H49   0.453687  0.790971  0.883420  0.151088
    H   H50   0.546341  0.790970  0.116594  0.151046
    H   H51   0.953687  0.290971  0.883420  0.151084
    H   H52   0.046341  0.290970  0.116594  0.151043
    C   C133  0.500014  0.795612  0.000007  0.264334
    C   C134  0.000014  0.295612  0.000007  0.264312
    C   C135  0.025987  0.230996  0.065366  -0.172404
    C   C136  0.974043  0.230996  0.934645  -0.171872
    C   C137  0.525987  0.730996  0.065366  -0.172398
    C   C138  0.474043  0.730996  0.934645  -0.171868
    C   C139  0.000016  0.209460  0.000005  0.226736
    C   C140  0.500016  0.709460  0.000005  0.226737
    C   C141  0.500013  0.840438  0.000008  -0.084593
    C   C142  0.000013  0.340438  0.000008  -0.084582
    C   C143  0.000016  0.164634  0.000004  -0.047598
    C   C144  0.500016  0.664634  0.000004  -0.047601
    C   C145  0.889594  0.990046  0.529860  0.819212
    F   F1    0.847142  0.991580  0.502262  -0.270606
    F   F2    0.895338  0.963831  0.484819  -0.211987
    F   F3    0.902027  0.030307  0.527944  -0.228843
    C   C146  0.110430  0.990024  0.470137  0.819602
    F   F4    0.152882  0.991549  0.497729  -0.270652
    F   F5    0.104683  0.963814  0.515180  -0.211929
    F   F6    0.098007  0.030289  0.472058  -0.228747
    C   C147  0.389594  0.490046  0.529860  0.819143
    F   F7    0.347142  0.491580  0.502262  -0.270593
    F   F8    0.395338  0.463831  0.484819  -0.211966
    F   F9    0.402027  0.530307  0.527944  -0.228845
    C   C148  0.610430  0.490024  0.470137  0.819575
    F   F10   0.652882  0.491549  0.497729  -0.270650
    F   F11   0.604683  0.463814  0.515180  -0.211916
    F   F12   0.598007  0.530289  0.472058  -0.228740
