# Generated by REPEAT Assigner based on pymatgen
data_DB0-m1_o40_o6_fsc
_audit_creation_date              2022-05-24
_audit_creation_method            REPEAT_Assigner
_cell_length_a                    18.052312
_cell_length_b                    9.800307
_cell_length_c                    16.564460
_cell_angle_alpha                 89.994833
_cell_angle_beta                  104.501513
_cell_angle_gamma                 89.619851
_cell_volume                      2837.123058
_symmetry_space_group_name_H-M    P1
_symmetry_Int_Tables_number       1
loop_
    _symmetry_equiv_pos_site_id
    _symmetry_equiv_pos_as_xyz
    1  x,y,z
loop_
    _atom_site_type_symbol
    _atom_site_label
    _atom_site_fract_x
    _atom_site_fract_y
    _atom_site_fract_z
    _atom_type_partial_charge
    Zn  Zn1  0.567151  0.345009  0.513181  1.374136
    Zn  Zn2  0.566975  0.653494  0.513098  1.370219
    Zn  Zn3  0.430749  0.500948  0.395230  1.399779
    Zn  Zn4  0.449099  0.500689  0.588231  1.374541
    O   O1   0.502927  0.500004  0.502213  -1.682475
    O   O2   0.674525  0.381649  0.526916  -0.663440
    O   O3   0.539484  0.768814  0.417558  -0.610162
    O   O4   0.440625  0.344056  0.328371  -0.639397
    O   O5   0.674339  0.614628  0.526853  -0.661429
    O   O6   0.539634  0.230529  0.417515  -0.613333
    O   O7   0.440440  0.657624  0.328278  -0.638385
    O   O8   0.325571  0.501850  0.403349  -0.664441
    O   O9   0.471417  0.343088  0.660021  -0.620407
    O   O10  0.339363  0.501599  0.545183  -0.657827
    O   O11  0.560510  0.233666  0.605695  -0.632655
    O   O12  0.560403  0.765031  0.605693  -0.630388
    O   O13  0.471115  0.657795  0.659910  -0.620564
    C   C1   0.295940  0.502007  0.468430  0.684933
    C   C2   0.519860  0.757509  0.661407  0.501816
    C   C3   0.520103  0.242110  0.661527  0.504769
    C   C4   0.711130  0.497784  0.531197  0.648377
    C   C5   0.489104  0.241020  0.345209  0.501477
    C   C6   0.488935  0.759467  0.345255  0.497346
    C   C7   0.483016  0.000246  0.081492  -0.036013
    C   C8   0.486042  0.877222  0.040503  0.096929
    C   C9   0.493793  0.877140  0.958159  0.007320
    C   C10  0.497123  0.000055  0.917187  0.041875
    C   C11  0.493939  0.123049  0.958195  0.001537
    C   C12  0.486067  0.123179  0.040485  0.100814
    C   C13  0.478029  0.122613  0.206954  -0.046505
    C   C14  0.479570  0.121567  0.291206  0.161772
    C   C15  0.480762  0.000351  0.331649  -0.334102
    H   H1   0.482073  0.000371  0.397225  0.206680
    C   C16  0.479485  0.879135  0.291227  0.162279
    C   C17  0.478008  0.878076  0.206988  -0.045974
    C   C18  0.478452  0.000326  0.164622  0.148085
    C   C19  0.510164  0.122283  0.794442  0.008623
    C   C20  0.519075  0.121450  0.713439  0.102521
    C   C21  0.524165  0.999744  0.675074  -0.277284
    H   H2   0.526902  0.999746  0.610757  0.209462
    C   C22  0.518897  0.878149  0.713369  0.104078
    C   C23  0.509973  0.877516  0.794374  0.007950
    C   C24  0.505293  0.999956  0.835262  0.084731
    C   C25  0.479195  0.243496  0.165416  -0.120014
    C   C26  0.481690  0.244090  0.083489  -0.222105
    C   C27  0.479266  0.757144  0.165510  -0.119483
    C   C28  0.481799  0.756436  0.083594  -0.219867
    C   C29  0.501292  0.756351  0.916421  -0.157627
    C   C30  0.509370  0.756895  0.836456  -0.147741
    C   C31  0.509798  0.242896  0.836596  -0.149113
    C   C32  0.501737  0.243631  0.916567  -0.152005
    H   H3   0.478715  0.340838  0.195527  0.136274
    H   H4   0.480310  0.344042  0.056846  0.142648
    H   H5   0.478876  0.659828  0.195673  0.136286
    H   H6   0.480626  0.656476  0.057069  0.140517
    H   H7   0.503311  0.656587  0.943425  0.119082
    H   H8   0.517667  0.659709  0.809529  0.137366
    H   H9   0.518303  0.339832  0.809725  0.136813
    H   H10  0.504088  0.343282  0.943706  0.116009
    H   H11  0.116377  0.532276  0.614275  0.158060
    C   C33  0.994510  0.517029  0.577140  -0.207385
    H   H12  0.987868  0.530575  0.639719  0.154384
    C   C34  0.930846  0.498827  0.511741  0.322239
    C   C35  0.939718  0.481586  0.431978  -0.181792
    H   H13  0.890044  0.467294  0.380549  0.147519
    C   C36  0.011911  0.482541  0.417685  -0.208712
    H   H14  0.018553  0.468996  0.355106  0.151796
    C   C37  0.075576  0.500743  0.483084  0.310649
    C   C38  0.066703  0.517985  0.562846  -0.189785
    C   C39  0.855550  0.497829  0.526653  -0.215487
    C   C40  0.150873  0.501738  0.468176  -0.174389
    C   C41  0.213988  0.502561  0.455583  -0.074153
    C   C42  0.792513  0.497017  0.539449  0.002750
