# Generated by REPEAT Assigner based on pymatgen
data_DB0-m3_o6_o27_f0_nbo.sym.118
_audit_creation_date              2022-05-24
_audit_creation_method            REPEAT_Assigner
_cell_length_a                    32.257417
_cell_length_b                    32.256628
_cell_length_c                    38.615528
_cell_angle_alpha                 90.000000
_cell_angle_beta                  90.000000
_cell_angle_gamma                 90.000000
_cell_volume                      40180.054610
_symmetry_space_group_name_H-M    P1
_symmetry_Int_Tables_number       1
loop_
    _symmetry_equiv_pos_site_id
    _symmetry_equiv_pos_as_xyz
    1  x,y,z
loop_
    _atom_site_type_symbol
    _atom_site_label
    _atom_site_fract_x
    _atom_site_fract_y
    _atom_site_fract_z
    _atom_type_partial_charge
    O   O1    0.937738  0.536402  0.001020  -0.701158
    O   O2    0.534719  0.063200  0.999422  -0.697800
    O   O3    0.061856  0.463803  0.999550  -0.700241
    O   O4    0.465298  0.936994  0.000949  -0.697521
    O   O5    0.061196  0.535404  0.000928  -0.713653
    O   O6    0.463198  0.060445  0.001220  -0.715143
    O   O7    0.938398  0.464813  0.999209  -0.714551
    O   O8    0.536826  0.939747  0.999455  -0.715709
    O   O9    0.439744  0.036441  0.499317  -0.712932
    O   O10   0.035187  0.561382  0.501111  -0.714722
    O   O11   0.560752  0.963293  0.501104  -0.712779
    O   O12   0.964770  0.438488  0.499395  -0.714338
    O   O13   0.563200  0.034835  0.499594  -0.696817
    O   O14   0.963598  0.561948  0.499291  -0.701688
    O   O15   0.437295  0.964904  0.501083  -0.696261
    O   O16   0.036370  0.437924  0.500782  -0.700563
    C   C1    0.918828  0.500441  0.000072  0.842277
    C   C2    0.498251  0.081058  0.000376  0.843300
    C   C3    0.080767  0.499770  0.000280  0.839768
    C   C4    0.501769  0.919134  0.000162  0.845254
    C   C5    0.419283  0.001299  0.500142  0.839929
    C   C6    0.999534  0.580904  0.500242  0.842669
    C   C7    0.581214  0.998437  0.500394  0.840467
    C   C8    0.000430  0.418966  0.500050  0.841578
    O   O17   0.998535  0.534864  0.948583  -0.671747
    O   O18   0.536653  0.002506  0.948468  -0.652832
    O   O19   0.001190  0.463396  0.948401  -0.651627
    O   O20   0.465277  0.997860  0.948682  -0.672352
    O   O21   0.998806  0.536834  0.051956  -0.649916
    O   O22   0.463351  0.997590  0.052058  -0.657525
    O   O23   0.000656  0.465327  0.051774  -0.670874
    O   O24   0.534759  0.002433  0.051844  -0.676269
    O   O25   0.502584  0.036546  0.448482  -0.660887
    O   O26   0.034770  0.499115  0.448552  -0.671518
    O   O27   0.498110  0.965111  0.448689  -0.678607
    O   O28   0.963262  0.500873  0.448361  -0.650945
    O   O29   0.502317  0.034604  0.551857  -0.673988
    O   O30   0.965212  0.501161  0.551733  -0.671368
    O   O31   0.497974  0.963210  0.552065  -0.653382
    O   O32   0.036682  0.498598  0.551925  -0.650647
    C   C9    0.999848  0.499176  0.932278  0.546014
    C   C10   0.500910  0.000163  0.932364  0.543783
    C   C11   0.999734  0.501033  0.068068  0.541505
    C   C12   0.499111  0.000032  0.068123  0.534881
    C   C13   0.500332  0.000775  0.432416  0.545866
    C   C14   0.999065  0.499989  0.432253  0.540878
    C   C15   0.500158  0.998962  0.568174  0.537958
    C   C16   0.000897  0.499899  0.568043  0.542184
    Zn  Zn1   0.999549  0.547065  0.000126  1.323925
    Zn  Zn2   0.546919  0.001686  0.000291  1.325823
    Zn  Zn3   0.000040  0.453145  0.000223  1.324472
    Zn  Zn4   0.453101  0.998511  0.000233  1.325799
    Zn  Zn5   0.501634  0.046787  0.500307  1.327875
    Zn  Zn6   0.046941  0.499756  0.500105  1.324888
    Zn  Zn7   0.498858  0.952949  0.500242  1.325826
    Zn  Zn8   0.953023  0.500121  0.500189  1.325523
    C   C17   0.008717  0.463460  0.876290  -0.227226
    C   C18   0.464891  0.990872  0.876555  -0.230089
    C   C19   0.991060  0.535268  0.876444  -0.227236
    C   C20   0.536509  0.009290  0.876355  -0.234584
    C   C21   0.991381  0.464812  0.123858  -0.226257
    C   C22   0.532506  0.016405  0.123808  -0.267596
    C   C23   0.008065  0.536852  0.124042  -0.227088
    C   C24   0.466197  0.983712  0.124023  -0.272026
    C   C25   0.486024  0.966527  0.376664  -0.260018
    C   C26   0.963237  0.491694  0.376282  -0.226890
    C   C27   0.514524  0.034607  0.376468  -0.266167
    C   C28   0.035271  0.508399  0.376458  -0.227302
    C   C29   0.491361  0.963279  0.624190  -0.240176
    C   C30   0.036589  0.491100  0.624052  -0.226192
    C   C31   0.508971  0.035101  0.623982  -0.239444
    C   C32   0.964775  0.508723  0.623855  -0.225441
    H   H1    0.017002  0.435682  0.890247  0.126081
    H   H2    0.437289  0.982328  0.890644  0.128527
    H   H3    0.982742  0.562949  0.890521  0.128389
    H   H4    0.564210  0.017895  0.890281  0.128717
    H   H5    0.983406  0.437057  0.109738  0.126822
    H   H6    0.558503  0.028774  0.109565  0.138112
    H   H7    0.016053  0.564706  0.110066  0.124837
    H   H8    0.440078  0.971327  0.109947  0.138004
    H   H9    0.473601  0.940243  0.390555  0.154806
    H   H10   0.935392  0.483680  0.390259  0.125021
    H   H11   0.526999  0.060983  0.390205  0.155909
    H   H12   0.063030  0.516362  0.390575  0.127235
    H   H13   0.483101  0.935470  0.610268  0.130589
    H   H14   0.064378  0.482815  0.610111  0.126223
    H   H15   0.517217  0.062797  0.609899  0.132019
    H   H16   0.937099  0.517016  0.609761  0.128349
    C   C33   0.009516  0.463450  0.840521  0.195613
    C   C34   0.464639  0.990067  0.840788  0.199043
    C   C35   0.990363  0.535521  0.840672  0.192449
    C   C36   0.536522  0.009914  0.840586  0.203155
    C   C37   0.990517  0.464566  0.159625  0.193504
    C   C38   0.532798  0.016926  0.159584  0.233212
    C   C39   0.008891  0.536841  0.159811  0.197269
    C   C40   0.466214  0.983241  0.159801  0.237017
    C   C41   0.484250  0.966807  0.340991  0.199663
    C   C42   0.963227  0.490924  0.340514  0.194344
    C   C43   0.516146  0.034097  0.340792  0.205718
    C   C44   0.035496  0.509316  0.340690  0.193588
    C   C45   0.490681  0.963280  0.659959  0.202417
    C   C46   0.036577  0.490341  0.659822  0.189119
    C   C47   0.509693  0.035389  0.659750  0.201263
    C   C48   0.964500  0.509462  0.659626  0.188335
    C   C49   0.999970  0.499547  0.822569  -0.543383
    C   C50   0.500523  0.999937  0.822666  -0.551228
    C   C51   0.999690  0.500640  0.177747  -0.548913
    C   C52   0.499582  0.000100  0.177671  -0.751937
    C   C53   0.500145  0.000400  0.322612  -0.580239
    C   C54   0.999412  0.500166  0.322573  -0.543386
    C   C55   0.500203  0.999405  0.677876  -0.551273
    C   C56   0.000465  0.499891  0.677751  -0.540457
    C   C57   0.999870  0.499304  0.894316  0.219702
    C   C58   0.500763  0.000117  0.894404  0.226047
    C   C59   0.999726  0.500897  0.106015  0.224572
    C   C60   0.499273  0.000050  0.106024  0.276700
    C   C61   0.500302  0.000630  0.394518  0.264747
    C   C62   0.999197  0.500020  0.394306  0.226794
    C   C63   0.500161  0.999117  0.606136  0.240882
    C   C64   0.000752  0.499910  0.606005  0.222541
    N   N1    0.025646  0.525262  0.767368  -0.365569
    N   N2    0.526074  0.974348  0.767399  -0.370255
    N   N3    0.974587  0.474183  0.767160  -0.367620
    N   N4    0.474691  0.025106  0.767349  -0.369988
    N   N5    0.974061  0.525994  0.233081  -0.367550
    N   N6    0.513274  0.966712  0.232863  -0.612670
    N   N7    0.025138  0.474934  0.233032  -0.366100
    N   N8    0.486323  0.033700  0.232840  -0.611117
    N   N9    0.486275  0.033683  0.267053  -0.263163
    N   N10   0.025068  0.474817  0.267240  -0.360681
    N   N11   0.513593  0.966871  0.267075  -0.261482
    N   N12   0.974003  0.525889  0.267288  -0.360103
    N   N13   0.474617  0.024982  0.733142  -0.360659
    N   N14   0.974707  0.474263  0.732952  -0.365579
    N   N15   0.525999  0.974223  0.733193  -0.361704
    N   N16   0.025766  0.525343  0.733160  -0.367925
    C   C65   0.000302  0.499838  0.715621  0.942622
    C   C66   0.500272  0.999540  0.715736  0.933605
    C   C67   0.999502  0.500296  0.284701  0.927000
    C   C68   0.500003  0.000314  0.284572  0.909766
    C   C69   0.499729  0.000170  0.215450  1.483573
    C   C70   0.999631  0.500520  0.215619  0.942423
    C   C71   0.500421  0.999791  0.784805  0.948498
    C   C72   0.000059  0.499678  0.784700  0.940742
    H   H17   0.788160  0.455634  0.041140  0.148949
    H   H18   0.453322  0.212036  0.042405  0.150928
    H   H19   0.211197  0.544657  0.041778  0.150306
    H   H20   0.546494  0.787838  0.041661  0.151070
    H   H21   0.212003  0.457230  0.959097  0.152294
    H   H22   0.538621  0.211739  0.958188  0.149707
    H   H23   0.787830  0.542922  0.958354  0.151212
    H   H24   0.461375  0.788776  0.957320  0.149137
    H   H25   0.288567  0.960547  0.542186  0.151880
    H   H26   0.957056  0.711895  0.542036  0.151235
    H   H27   0.711659  0.039216  0.543036  0.150272
    H   H28   0.043176  0.287816  0.541270  0.152456
    H   H29   0.712423  0.953739  0.458945  0.150065
    H   H30   0.044209  0.711572  0.459153  0.150073
    H   H31   0.288339  0.046023  0.458092  0.150934
    H   H32   0.955745  0.288450  0.458593  0.150343
    C   C73   0.728579  0.474387  0.022811  -0.211756
    C   C74   0.472445  0.271485  0.024014  -0.210719
    C   C75   0.270882  0.525873  0.023711  -0.213578
    C   C76   0.527311  0.728531  0.022997  -0.208880
    C   C77   0.271327  0.476855  0.977356  -0.205151
    C   C78   0.520269  0.271303  0.976799  -0.210139
    C   C79   0.728403  0.523327  0.976397  -0.207358
    C   C80   0.479588  0.729072  0.975713  -0.207813
    C   C81   0.229019  0.978957  0.523578  -0.209830
    C   C82   0.976657  0.771326  0.524000  -0.205906
    C   C83   0.771325  0.020834  0.524674  -0.211270
    C   C84   0.023638  0.228452  0.523034  -0.206468
    C   C85   0.771767  0.972910  0.477530  -0.208565
    C   C86   0.025522  0.771151  0.477532  -0.209916
    C   C87   0.228878  0.026880  0.476432  -0.207015
    C   C88   0.974617  0.228802  0.476681  -0.213460
    H   H33   0.711882  0.455124  0.040977  0.155094
    H   H34   0.453897  0.288325  0.042603  0.154582
    H   H35   0.287474  0.545164  0.041924  0.154902
    H   H36   0.545788  0.711551  0.041545  0.154118
    H   H37   0.288270  0.457734  0.959244  0.153354
    H   H38   0.539201  0.287995  0.958388  0.154813
    H   H39   0.711564  0.542415  0.958193  0.154411
    H   H40   0.460666  0.712521  0.957206  0.153566
    H   H41   0.212311  0.960003  0.541963  0.154721
    H   H42   0.957614  0.788164  0.542237  0.153722
    H   H43   0.787916  0.039798  0.543126  0.153958
    H   H44   0.042780  0.211545  0.541154  0.153705
    H   H45   0.788708  0.954317  0.459037  0.153601
    H   H46   0.044770  0.787850  0.459355  0.154031
    H   H47   0.212054  0.045483  0.457872  0.153491
    H   H48   0.955346  0.212172  0.458478  0.154050
    C   C89   0.707136  0.498721  0.999560  0.338468
    C   C90   0.496578  0.292753  0.000496  0.341736
    C   C91   0.292459  0.501497  0.000577  0.340554
    C   C92   0.503190  0.707443  0.999358  0.337146
    C   C93   0.207591  0.002714  0.499913  0.340883
    C   C94   0.001243  0.792592  0.500823  0.338863
    C   C95   0.792903  0.997088  0.501096  0.340670
    C   C96   0.999023  0.207273  0.499823  0.341863
    C   C97   0.771136  0.523617  0.976491  -0.189806
    C   C98   0.519924  0.228574  0.976675  -0.186619
    C   C99   0.228593  0.476566  0.977277  -0.193057
    C   C100  0.480007  0.771800  0.975763  -0.187700
    C   C101  0.228143  0.525583  0.023633  -0.185600
    C   C102  0.472102  0.228735  0.023891  -0.185570
    C   C103  0.771319  0.474678  0.022905  -0.184182
    C   C104  0.527729  0.771280  0.023049  -0.188196
    C   C105  0.271625  0.027202  0.476568  -0.191131
    C   C106  0.025201  0.728412  0.477414  -0.187671
    C   C107  0.729020  0.972566  0.477491  -0.188678
    C   C108  0.974846  0.271541  0.476742  -0.185630
    C   C109  0.728596  0.020489  0.524636  -0.187126
    C   C110  0.976337  0.728592  0.523883  -0.191040
    C   C111  0.271747  0.979280  0.523714  -0.191456
    C   C112  0.023865  0.271187  0.523096  -0.193170
    C   C113  0.792581  0.499307  0.999753  0.290892
    C   C114  0.495876  0.207296  0.000233  0.288068
    C   C115  0.207014  0.500915  0.000425  0.294680
    C   C116  0.504041  0.792899  0.999444  0.291533
    C   C117  0.293044  0.003373  0.500199  0.295752
    C   C118  0.000598  0.707150  0.500583  0.292554
    C   C119  0.707450  0.996386  0.501032  0.291234
    C   C120  0.999482  0.292718  0.499942  0.293784
    C   C121  0.662678  0.498581  0.999531  -0.226509
    C   C122  0.497209  0.337213  0.000742  -0.230419
    C   C123  0.336917  0.501628  0.000738  -0.228289
    C   C124  0.502482  0.662983  0.999425  -0.223974
    C   C125  0.163132  0.002149  0.499676  -0.229903
    C   C126  0.001433  0.837049  0.500882  -0.228170
    C   C127  0.837363  0.997682  0.501032  -0.226605
    C   C128  0.998931  0.162815  0.499689  -0.226416
    C   C129  0.837037  0.499686  0.999884  -0.163775
    C   C130  0.496078  0.162832  0.000353  -0.160148
    C   C131  0.162557  0.500531  0.000384  -0.167203
    C   C132  0.503896  0.837362  0.999760  -0.160736
    C   C133  0.337506  0.003213  0.500119  -0.166629
    C   C134  0.000218  0.662694  0.500443  -0.163288
    C   C135  0.662989  0.996535  0.500759  -0.163657
    C   C136  0.999793  0.337174  0.499968  -0.165395
    C   C137  0.874375  0.500031  0.999977  -0.135789
    C   C138  0.496750  0.125494  0.000394  -0.140172
    C   C139  0.125219  0.500182  0.000341  -0.133871
    C   C140  0.503257  0.874699  0.999971  -0.141202
    C   C141  0.374844  0.002628  0.500104  -0.135271
    C   C142  0.999893  0.625357  0.500342  -0.136194
    C   C143  0.625652  0.997112  0.500571  -0.136314
    C   C144  0.000081  0.374513  0.500000  -0.135716
    C   C145  0.625338  0.498622  0.999480  -0.052446
    C   C146  0.497840  0.374552  0.000888  -0.047421
    C   C147  0.374258  0.501581  0.000853  -0.050127
    C   C148  0.501798  0.625645  0.999425  -0.053200
    C   C149  0.125793  0.001592  0.499535  -0.049242
    C   C150  0.001449  0.874389  0.500950  -0.051010
    C   C151  0.874701  0.998257  0.501031  -0.052173
    C   C152  0.998983  0.125475  0.499587  -0.054158
    O   O33   0.499834  0.438321  0.971101  -0.691311
    O   O34   0.438062  0.501958  0.971079  -0.689183
    O   O35   0.501666  0.562018  0.969413  -0.675276
    O   O36   0.561756  0.500111  0.969434  -0.673736
    O   O37   0.497957  0.438177  0.030938  -0.673748
    O   O38   0.561536  0.498265  0.029272  -0.687822
    O   O39   0.499738  0.561879  0.029249  -0.689304
    O   O40   0.437839  0.500061  0.030915  -0.671975
    O   O41   0.001929  0.938191  0.471165  -0.688923
    O   O42   0.938463  0.000141  0.471199  -0.691675
    O   O43   0.000424  0.061895  0.469526  -0.673402
    O   O44   0.062165  0.001630  0.469493  -0.675276
    O   O45   0.000092  0.937970  0.531003  -0.675135
    O   O46   0.062028  0.999748  0.529329  -0.688218
    O   O47   0.998536  0.061671  0.529363  -0.690627
    O   O48   0.938331  0.998208  0.531035  -0.672704
    C   C153  0.498614  0.419009  0.000991  0.744155
    C   C154  0.418714  0.501306  0.000963  0.744001
    C   C155  0.500985  0.581188  0.999357  0.746640
    C   C156  0.580881  0.498893  0.999385  0.744981
    C   C157  0.001262  0.918845  0.501050  0.746627
    C   C158  0.919158  0.998941  0.501093  0.746420
    C   C159  0.999227  0.081019  0.499479  0.749197
    C   C160  0.081336  0.000922  0.499438  0.743743
    Zn  Zn9   0.499726  0.500011  0.960949  1.319215
    Zn  Zn10  0.499870  0.500187  0.039401  1.315100
    Zn  Zn11  0.000152  0.999863  0.461038  1.316779
    Zn  Zn12  0.000341  0.000001  0.539490  1.316379
    C   C161  0.022673  0.425606  0.822326  0.017627
    C   C162  0.014817  0.386010  0.833780  -0.121605
    C   C163  0.032860  0.360581  0.810198  -0.239497
    C   C164  0.050698  0.386287  0.786105  -0.012377
    O   O49   0.044785  0.425948  0.793387  -0.016684
    H   H49   0.997484  0.376649  0.856423  0.138348
    H   H50   0.033093  0.327072  0.810332  0.157491
    H   H51   0.067749  0.375719  0.763685  0.099073
    C   C165  0.426782  0.976585  0.822775  0.011981
    C   C166  0.387203  0.984071  0.834440  -0.118267
    C   C167  0.361762  0.965839  0.810971  -0.245488
    C   C168  0.387447  0.948267  0.786726  -0.007551
    O   O50   0.427106  0.954523  0.793809  -0.015903
    H   H52   0.377853  0.001291  0.857148  0.137903
    H   H53   0.328260  0.965309  0.811277  0.159895
    H   H54   0.376863  0.931160  0.764341  0.097150
    C   C169  0.977258  0.573484  0.822622  0.021369
    C   C170  0.985027  0.613006  0.834294  -0.126042
    C   C171  0.967069  0.638585  0.810780  -0.238523
    C   C172  0.949363  0.613033  0.786505  -0.012985
    O   O51   0.955279  0.573327  0.793611  -0.017629
    H   H55   0.002250  0.622226  0.857037  0.139498
    H   H56   0.966805  0.672092  0.811078  0.157899
    H   H57   0.932404  0.623742  0.764083  0.099278
    C   C173  0.574259  0.023294  0.822348  0.015086
    C   C174  0.613915  0.015862  0.833853  -0.122031
    C   C175  0.639200  0.033963  0.810195  -0.242268
    C   C176  0.613354  0.051408  0.786007  -0.006707
    O   O52   0.573743  0.045200  0.793301  -0.019023
    H   H58   0.623417  0.998762  0.856580  0.138687
    H   H59   0.672704  0.034487  0.810340  0.158998
    H   H60   0.623790  0.068391  0.763507  0.096765
    C   C177  0.977605  0.426515  0.177637  0.022761
    C   C178  0.985785  0.387045  0.166040  -0.133011
    C   C179  0.967824  0.361349  0.189465  -0.233509
    C   C180  0.949703  0.386787  0.213611  -0.011864
    O   O53   0.955365  0.426529  0.206509  -0.017180
    H   H61   0.003264  0.377945  0.143401  0.142031
    H   H62   0.967821  0.327842  0.189188  0.156238
    H   H63   0.932622  0.375972  0.235935  0.096883
    C   C181  0.568646  0.035033  0.177679  0.054913
    C   C182  0.591954  0.067356  0.164978  -0.157624
    C   C183  0.622075  0.073924  0.188864  -0.238057
    C   C184  0.615324  0.045119  0.214388  0.030990
    O   O54   0.582863  0.021292  0.207767  -0.074013
    H   H64   0.587303  0.084636  0.141314  0.147708
    H   H65   0.646299  0.097053  0.187999  0.154247
    H   H66   0.634177  0.041961  0.237374  0.095896
    C   C185  0.021787  0.574759  0.178025  0.019359
    C   C186  0.013641  0.614314  0.166617  -0.129387
    C   C187  0.031572  0.639835  0.190192  -0.235841
    C   C188  0.049644  0.614217  0.214231  -0.011440
    O   O55   0.043979  0.574529  0.206923  -0.016072
    H   H67   0.996202  0.623584  0.144004  0.141358
    H   H68   0.031588  0.673344  0.190082  0.156791
    H   H69   0.066692  0.624865  0.236628  0.097525
    C   C189  0.430522  0.965159  0.178128  0.053193
    C   C190  0.407103  0.932822  0.165595  -0.156698
    C   C191  0.377191  0.926281  0.189667  -0.243549
    C   C192  0.384164  0.955114  0.215127  0.037691
    O   O56   0.416567  0.978934  0.208291  -0.075625
    H   H70   0.411549  0.915514  0.141917  0.149239
    H   H71   0.352960  0.903151  0.188967  0.155639
    H   H72   0.365510  0.958299  0.238224  0.093798
    C   C193  0.463453  0.931795  0.324091  0.025776
    C   C194  0.433503  0.935191  0.298886  0.002198
    C   C195  0.420948  0.895830  0.292386  -0.233229
    C   C196  0.443566  0.871196  0.314393  -0.024745
    O   O57   0.469197  0.892946  0.334088  -0.094930
    H   H73   0.421540  0.963224  0.287278  0.064148
    H   H74   0.397519  0.885991  0.274138  0.134717
    H   H75   0.440624  0.837873  0.316012  0.118036
    C   C197  0.925301  0.478053  0.322301  0.020257
    C   C198  0.885753  0.486183  0.333733  -0.130270
    C   C199  0.860220  0.468287  0.310149  -0.235250
    C   C200  0.885823  0.450250  0.286081  -0.013834
    O   O58   0.925515  0.455904  0.293380  -0.013935
    H   H76   0.876496  0.503589  0.356367  0.141830
    H   H77   0.826712  0.468271  0.310271  0.157417
    H   H78   0.875164  0.433236  0.263671  0.097907
    C   C201  0.536872  0.068997  0.323670  0.025856
    C   C202  0.566654  0.065435  0.298342  0.001008
    C   C203  0.579209  0.104747  0.291639  -0.231424
    C   C204  0.556760  0.129523  0.313656  -0.025709
    O   O59   0.531234  0.107905  0.333548  -0.095279
    H   H79   0.578513  0.037328  0.286784  0.063848
    H   H80   0.602530  0.114464  0.273249  0.134199
    H   H81   0.559747  0.162851  0.315137  0.118593
    C   C205  0.073532  0.522265  0.322676  0.022574
    C   C206  0.113010  0.514080  0.334249  -0.132554
    C   C207  0.138686  0.532082  0.310831  -0.233347
    C   C208  0.113229  0.550231  0.286713  -0.013642
    O   O60   0.073494  0.544546  0.293826  -0.016264
    H   H82   0.122128  0.496571  0.356867  0.141943
    H   H83   0.172193  0.532095  0.311094  0.156906
    H   H84   0.124025  0.567347  0.264402  0.097421
    C   C209  0.477720  0.925398  0.678200  0.016446
    C   C210  0.485638  0.885824  0.666720  -0.123306
    C   C211  0.467807  0.860340  0.690372  -0.240204
    C   C212  0.450024  0.885993  0.714533  -0.012992
    O   O61   0.455772  0.925672  0.707227  -0.015372
    H   H85   0.502880  0.876511  0.644014  0.139375
    H   H86   0.467681  0.826832  0.690242  0.158529
    H   H87   0.433136  0.875371  0.737022  0.099110
    C   C213  0.074414  0.477220  0.678045  0.022306
    C   C214  0.114014  0.485070  0.666599  -0.122248
    C   C215  0.139434  0.467066  0.690208  -0.238816
    C   C216  0.113720  0.449253  0.714307  -0.013669
    O   O62   0.074063  0.455146  0.707005  -0.017956
    H   H88   0.123383  0.502375  0.643943  0.138335
    H   H89   0.172942  0.466841  0.690086  0.157527
    H   H90   0.124280  0.432235  0.736748  0.099248
    C   C217  0.522674  0.073421  0.677763  0.014195
    C   C218  0.514721  0.112898  0.666069  -0.122809
    C   C219  0.532586  0.138579  0.689554  -0.239861
    C   C220  0.550423  0.113129  0.713836  -0.012428
    O   O63   0.544676  0.073390  0.706761  -0.013543
    H   H91   0.497433  0.122019  0.643333  0.139043
    H   H92   0.532698  0.172086  0.689234  0.158076
    H   H93   0.567348  0.123940  0.736242  0.098358
    C   C221  0.926521  0.522573  0.677647  0.022131
    C   C222  0.887010  0.514769  0.665967  -0.126503
    C   C223  0.861410  0.532748  0.689453  -0.236523
    C   C224  0.886939  0.550502  0.713720  -0.014388
    O   O64   0.926650  0.544596  0.706636  -0.016653
    H   H94   0.877813  0.497509  0.643238  0.139422
    H   H95   0.827904  0.532996  0.689141  0.157181
    H   H96   0.876208  0.567489  0.736120  0.099276
