# Generated by REPEAT Assigner based on pymatgen
data_DB0-m2_o15_o24_f0_nbo.sym.98_sqe
_audit_creation_date              2022-05-24
_audit_creation_method            REPEAT_Assigner
_cell_length_a                    18.468228
_cell_length_b                    18.617569
_cell_length_c                    18.741375
_cell_angle_alpha                 109.388817
_cell_angle_beta                  109.679797
_cell_angle_gamma                 108.900240
_cell_volume                      4987.394374
_symmetry_space_group_name_H-M    P1
_symmetry_Int_Tables_number       1
loop_
    _symmetry_equiv_pos_site_id
    _symmetry_equiv_pos_as_xyz
    1  x,y,z
loop_
    _atom_site_type_symbol
    _atom_site_label
    _atom_site_fract_x
    _atom_site_fract_y
    _atom_site_fract_z
    _atom_type_partial_charge
    O   O1    0.570100  0.532914  0.440891  -0.613868
    O   O2    0.593261  0.630038  0.573229  -0.606913
    C   C1    0.611728  0.611810  0.509310  0.853153
    O   O3    0.391439  0.423463  0.358458  -0.573113
    O   O4    0.416635  0.555789  0.458681  -0.546756
    C   C2    0.375616  0.489673  0.378704  0.482962
    Cu  Cu1   0.495842  0.431705  0.442333  0.929740
    Cu  Cu2   0.484385  0.546760  0.557668  0.909753
    O   O5    0.419656  0.348273  0.461540  -0.594434
    O   O6    0.377204  0.445657  0.524005  -0.595821
    O   O7    0.598465  0.457827  0.544098  -0.544018
    O   O8    0.553952  0.519948  0.638862  -0.566461
    C   C3    0.367329  0.366292  0.489225  0.856530
    C   C4    0.605009  0.489263  0.621845  0.722431
    C   C5    0.319611  0.563613  0.289100  -0.295166
    C   C6    0.233378  0.552598  0.284942  0.623715
    H   H1    0.382535  0.625661  0.323754  0.067677
    C   C7    0.183654  0.488083  0.189439  -0.112228
    C   C8    0.268929  0.496988  0.191939  0.041633
    C   C9    0.256944  0.422753  0.212700  -0.167966
    C   C10   0.170524  0.413763  0.208963  0.138527
    C   C11   0.220389  0.479640  0.306106  -0.333180
    C   C12   0.305991  0.488943  0.308606  0.358253
    H   H2    0.287008  0.503147  0.142692  0.041684
    H   H3    0.268241  0.367918  0.183446  0.063728
    H   H4    0.108078  0.351279  0.174242  -0.030506
    H   H5    0.202116  0.474066  0.355417  0.104166
    H   H6    0.856973  0.557940  0.545767  0.110853
    C   C13   0.593266  0.753749  0.497423  -0.129577
    C   C14   0.582421  0.821764  0.492041  -0.301049
    C   C15   0.648258  0.888157  0.497265  0.578409
    C   C16   0.725078  0.886575  0.508220  -0.511109
    C   C17   0.735710  0.816469  0.510131  0.276264
    C   C18   0.670381  0.750892  0.507741  0.058722
    C   C19   0.810846  0.811863  0.514587  -0.357269
    C   C20   0.822047  0.743189  0.520573  0.214648
    C   C21   0.758619  0.679943  0.522574  0.187715
    C   C22   0.681855  0.682610  0.514226  -0.302887
    C   C23   0.895133  0.735552  0.522488  -0.268367
    C   C24   0.907247  0.669239  0.531248  -0.066814
    C   C25   0.846832  0.609420  0.537776  -0.056711
    C   C26   0.772782  0.614229  0.533037  -0.247408
    H   H7    0.539142  0.703471  0.492493  0.119714
    H   H8    0.522097  0.822965  0.483918  0.135054
    H   H9    0.775765  0.942112  0.515557  0.203594
    H   H10   0.944509  0.780031  0.516955  0.147058
    H   H11   0.964754  0.664596  0.533538  0.105858
    H   H12   0.727690  0.565598  0.538695  0.118043
    C   C27   0.749509  0.648051  0.773306  -0.265961
    C   C28   0.817074  0.725714  0.846418  -0.041786
    C   C29   0.877899  0.725640  0.913018  -0.106451
    C   C30   0.872593  0.647982  0.905866  -0.218691
    C   C31   0.805680  0.568828  0.831619  0.146293
    C   C32   0.741814  0.568663  0.765773  0.224122
    C   C33   0.802192  0.490457  0.823267  -0.244555
    C   C34   0.733321  0.411747  0.749615  0.114117
    C   C35   0.667633  0.411386  0.685407  0.179681
    C   C36   0.672183  0.489806  0.692601  -0.281484
    C   C37   0.730041  0.332850  0.738579  -0.163196
    C   C38   0.661971  0.255101  0.666003  -0.309651
    C   C39   0.595892  0.254591  0.603605  0.562990
    C   C40   0.597455  0.331903  0.614202  -0.456673
    H   H13   0.704135  0.652374  0.723048  0.149113
    H   H14   0.821930  0.786866  0.851588  0.088800
    H   H15   0.930453  0.786701  0.970906  0.107474
    H   H16   0.922005  0.651953  0.960352  0.149368
    H   H17   0.780289  0.329095  0.784813  0.155845
    H   H18   0.660694  0.194384  0.657988  0.150309
    H   H19   0.542385  0.327434  0.564832  0.188537
    C   C41   0.367880  0.371892  0.641613  -0.497111
    C   C42   0.366952  0.381587  0.717232  0.599504
    C   C43   0.292197  0.328590  0.712906  -0.303307
    C   C44   0.221491  0.261165  0.633558  -0.140578
    C   C45   0.224212  0.245827  0.556833  -0.038569
    C   C46   0.295673  0.305181  0.560576  0.326925
    C   C47   0.155956  0.172145  0.477670  -0.046640
    C   C48   0.156794  0.160910  0.399726  -0.165301
    C   C49   0.227600  0.223573  0.404107  0.331692
    C   C50   0.296316  0.296013  0.484309  -0.397811
    C   C51   0.089329  0.089075  0.317149  0.341591
    C   C52   0.097601  0.077601  0.244067  -0.557642
    C   C53   0.166661  0.139939  0.248879  0.644920
    C   C54   0.229110  0.213791  0.327742  -0.574704
    H   H20   0.428203  0.415707  0.648964  0.197344
    H   H21   0.289496  0.338366  0.771908  0.144350
    H   H22   0.164587  0.222497  0.634462  0.160550
    H   H23   0.047380  0.020833  0.181420  0.232009
    H   H24   0.279032  0.262466  0.326576  0.202224
    O   O9    0.959656  0.526954  0.113209  -0.617804
    O   O10   0.025998  0.629290  0.078477  -0.635648
    C   C55   0.992042  0.606978  0.124548  0.921373
    O   O11   0.032631  0.421653  0.077394  -0.556464
    O   O12   0.134020  0.557619  0.110210  -0.602085
    C   C56   0.113045  0.489287  0.122163  0.646621
    Cu  Cu3   0.932838  0.429732  0.007621  0.896063
    Cu  Cu4   0.052624  0.550805  0.006107  0.929292
    O   O13   0.924555  0.351390  0.901759  -0.580363
    O   O14   0.060477  0.453445  0.933714  -0.591543
    O   O15   0.851571  0.456527  0.937546  -0.535593
    O   O16   0.952659  0.525191  0.902247  -0.526459
    C   C57   0.992002  0.373667  0.887851  0.763462
    C   C58   0.872191  0.490916  0.891101  0.640898
    O   O17   0.023852  0.889407  0.462411  -0.574292
    O   O18   0.943585  0.914099  0.356839  -0.539013
    C   C59   0.984219  0.872572  0.381094  0.782846
    O   O19   0.957800  0.926147  0.572872  -0.571309
    O   O20   0.846773  0.884686  0.437631  -0.556265
    C   C60   0.875283  0.876875  0.507921  0.782483
    Cu  Cu5   0.049521  0.996298  0.557183  0.881839
    Cu  Cu6   0.918191  0.987195  0.436086  0.898054
    O   O21   0.054889  0.101661  0.633357  -0.562734
    O   O22   0.913179  0.061683  0.534259  -0.579194
    O   O23   0.120632  0.064655  0.522282  -0.565259
    O   O24   0.009988  0.091003  0.452983  -0.503596
    C   C61   0.983952  0.110904  0.612927  0.680846
    C   C62   0.091440  0.103944  0.481675  0.672428
    H   H25   0.690982  0.521195  0.061829  0.156106
    C   C63   0.149516  0.761549  0.266769  -0.215904
    C   C64   0.226194  0.838100  0.330763  -0.075369
    C   C65   0.223358  0.904624  0.387636  -0.025587
    C   C66   0.144091  0.893974  0.382054  -0.288086
    C   C67   0.065959  0.816380  0.318640  0.232475
    C   C68   0.068262  0.750669  0.258333  0.204520
    C   C69   0.986077  0.804683  0.314789  -0.376813
    C   C70   0.908232  0.727993  0.249111  0.191281
    C   C71   0.909834  0.664058  0.186111  0.252751
    C   C72   0.990052  0.674616  0.191250  -0.445182
    C   C73   0.828301  0.714125  0.246128  -0.211899
    C   C74   0.750908  0.639858  0.179518  -0.072476
    C   C75   0.751900  0.578892  0.114807  -0.125754
    C   C76   0.830375  0.590645  0.117604  -0.259266
    H   H26   0.156314  0.711106  0.225284  0.159499
    H   H27   0.288741  0.845723  0.336302  0.087714
    H   H28   0.283572  0.965116  0.437514  0.090470
    H   H29   0.145986  0.948547  0.428323  0.154901
    H   H30   0.823369  0.759700  0.295082  0.112296
    H   H31   0.689169  0.629974  0.177675  0.102818
    H   H32   0.826385  0.540799  0.064215  0.150759
    C   C77   0.974585  0.381920  0.735096  -0.346406
    C   C78   0.968427  0.389799  0.663272  0.323664
    C   C79   0.966237  0.326939  0.596915  0.293171
    C   C80   0.973213  0.257795  0.603830  -0.337597
    C   C81   0.979242  0.248851  0.676152  0.083906
    C   C82   0.981650  0.312584  0.743208  0.107451
    C   C83   0.983455  0.177532  0.682232  -0.144389
    C   C84   0.990168  0.170716  0.755871  0.043841
    C   C85   0.995053  0.235786  0.823781  0.229184
    C   C86   0.990234  0.306503  0.817339  -0.234879
    C   C87   0.990817  0.098474  0.762103  -0.167264
    C   C88   0.999350  0.092634  0.835421  -0.308321
    C   C89   0.006969  0.158339  0.903647  0.572823
    C   C90   0.005867  0.229966  0.898442  -0.481051
    H   H33   0.973370  0.431775  0.783596  0.192692
    H   H34   0.973112  0.211588  0.550677  0.157415
    H   H35   0.983663  0.044232  0.710376  0.162594
    H   H36   0.000086  0.036187  0.839256  0.146180
    H   H37   0.013793  0.280319  0.954591  0.196563
    O   O25   0.214677  0.619317  0.318242  -0.580848
    C   C91   0.284028  0.679253  0.403747  0.355522
    H   H38   0.333787  0.732050  0.403556  -0.015514
    H   H39   0.315438  0.647282  0.433381  -0.060965
    C   C92   0.248034  0.717934  0.458607  0.089864
    H   H40   0.210714  0.745193  0.427422  0.019679
    H   H41   0.203209  0.665933  0.463802  -0.007099
    C   C93   0.323244  0.789873  0.548986  -0.262777
    H   H42   0.361427  0.763209  0.580313  0.050228
    H   H43   0.296041  0.816528  0.589019  0.070223
    H   H44   0.367208  0.842994  0.544317  0.042504
    O   O26   0.638477  0.956805  0.493471  -0.503099
    C   C94   0.598312  0.931591  0.404899  0.311912
    H   H45   0.535244  0.932981  0.385060  -0.023917
    H   H46   0.584307  0.864333  0.365310  -0.043281
    C   C95   0.658906  0.993830  0.388908  0.204870
    H   H47   0.670845  0.060794  0.426032  -0.057722
    H   H48   0.722714  0.993970  0.410682  -0.024218
    C   C96   0.616831  0.964801  0.292457  -0.393707
    H   H49   0.603673  0.897397  0.254948  0.083945
    H   H50   0.662374  0.009265  0.280959  0.098275
    H   H51   0.553991  0.966568  0.270407  0.067503
    O   O27   0.528246  0.177305  0.531181  -0.490429
    C   C97   0.556138  0.164804  0.469566  0.266116
    H   H52   0.555026  0.101147  0.447672  0.044652
    H   H53   0.624407  0.217494  0.498713  -0.016976
    C   C98   0.494935  0.165341  0.392104  0.052790
    H   H54   0.429426  0.106186  0.356625  0.019631
    H   H55   0.487528  0.224201  0.414749  0.012527
    C   C99   0.532671  0.166360  0.331895  -0.313901
    H   H56   0.598127  0.225706  0.367512  0.063214
    H   H57   0.487958  0.167411  0.275748  0.081524
    H   H58   0.539404  0.107190  0.307873  0.073201
    O   O28   0.168458  0.134739  0.174695  -0.431065
    C   C100  0.183395  0.065450  0.138636  0.133059
    H   H59   0.182778  0.060900  0.077908  0.045667
    H   H60   0.130090  0.002031  0.119874  -0.004332
    C   C101  0.272438  0.080473  0.199427  0.256405
    H   H61   0.324428  0.147848  0.225561  -0.023063
    H   H62   0.271043  0.070000  0.253974  -0.063133
    C   C102  0.293184  0.015481  0.148544  -0.294813
    H   H63   0.237111  0.948388  0.114925  0.042649
    H   H64   0.353002  0.018996  0.193609  0.076337
    H   H65   0.304792  0.030680  0.099674  0.055477
    O   O29   0.439719  0.445049  0.796463  -0.520317
    C   C103  0.490510  0.405748  0.817139  0.361543
    H   H66   0.557124  0.444369  0.828155  -0.015270
    H   H67   0.459291  0.338432  0.762791  -0.058518
    C   C104  0.498222  0.401988  0.898768  0.101299
    H   H68   0.536425  0.469333  0.954965  -0.014354
    H   H69   0.431538  0.369575  0.890251  -0.004533
    C   C105  0.544365  0.350425  0.915603  -0.286517
    H   H70   0.503248  0.281589  0.861947  0.074289
    H   H71   0.554351  0.352212  0.978052  0.064991
    H   H72   0.609281  0.379380  0.919474  0.039064
    O   O30   0.016299  0.026353  0.306974  -0.325879
    C   C106  0.939472  0.021244  0.249822  0.285181
    H   H73   0.884445  0.984100  0.257031  -0.025245
    H   H74   0.920962  0.983080  0.180884  -0.043957
    C   C107  0.945079  0.109892  0.269513  0.174880
    H   H75   0.967210  0.149308  0.339430  -0.063491
    H   H76   0.989676  0.146742  0.251773  -0.017413
    C   C108  0.854122  0.094698  0.214560  -0.406325
    H   H77   0.828813  0.050082  0.144973  0.089119
    H   H78   0.858333  0.157834  0.222398  0.131764
    H   H79   0.808265  0.065060  0.235149  0.089617
    O   O31   0.017372  0.153484  0.977394  -0.457370
    C   C109  0.931851  0.109057  0.962037  0.212587
    H   H80   0.919177  0.045251  0.958655  -0.001400
    H   H81   0.882993  0.097417  0.899425  -0.020068
    C   C110  0.922457  0.163260  0.035513  0.155734
    H   H82   0.965953  0.168813  0.097092  0.026572
    H   H83   0.941825  0.229419  0.043083  0.013724
    C   C111  0.827503  0.120130  0.014937  -0.379420
    H   H84   0.784259  0.117773  0.955386  0.087748
    H   H85   0.821819  0.158523  0.070343  0.078782
    H   H86   0.806600  0.052779  0.004265  0.077324
    O   O32   0.959840  0.457775  0.656156  -0.485730
    C   C112  0.045451  0.523261  0.690093  0.400278
    H   H87   0.054126  0.528598  0.635988  -0.029683
    H   H88   0.094364  0.507395  0.724711  -0.069655
    C   C113  0.059754  0.609326  0.753326  0.167736
    H   H89   0.010945  0.625276  0.718642  -0.027114
    H   H90   0.050854  0.603595  0.807211  -0.032855
    C   C114  0.152187  0.681443  0.790421  -0.325150
    H   H91   0.201320  0.666051  0.825523  0.064838
    H   H92   0.161864  0.744049  0.836541  0.082015
    H   H93   0.161315  0.687743  0.736843  0.058933
    O   O33   0.958223  0.333485  0.524429  -0.452416
    C   C115  0.868124  0.300726  0.471878  0.316002
    H   H94   0.855859  0.355431  0.472733  0.001527
    H   H95   0.829872  0.266417  0.496128  -0.049964
    C   C116  0.838878  0.236877  0.379678  0.104956
    H   H96   0.877778  0.270550  0.355549  0.009629
    H   H97   0.850182  0.181894  0.379545  0.036795
    C   C117  0.741690  0.202188  0.321280  -0.355231
    H   H98   0.703021  0.168751  0.345673  0.110491
    H   H99   0.720574  0.154985  0.253880  0.071720
    H   H100  0.729957  0.256906  0.321094  0.068496
