# Generated by REPEAT Assigner based on pymatgen
data_DB0-m2_o21_o29_f0_pcu.sym.54_sqe
_audit_creation_date              2022-05-24
_audit_creation_method            REPEAT_Assigner
_cell_length_a                    12.584572
_cell_length_b                    14.001018
_cell_length_c                    27.534421
_cell_angle_alpha                 90.012789
_cell_angle_beta                  93.611645
_cell_angle_gamma                 98.216211
_cell_volume                      4791.935652
_symmetry_space_group_name_H-M    P1
_symmetry_Int_Tables_number       1
loop_
    _symmetry_equiv_pos_site_id
    _symmetry_equiv_pos_as_xyz
    1  x,y,z
loop_
    _atom_site_type_symbol
    _atom_site_label
    _atom_site_fract_x
    _atom_site_fract_y
    _atom_site_fract_z
    _atom_type_partial_charge
    O   O1   0.382786  0.354284  0.498656  -0.622305
    O   O2   0.593214  0.644701  0.499945  -0.620318
    O   O3   0.567257  0.364745  0.501028  -0.638471
    O   O4   0.408801  0.634259  0.498367  -0.640823
    C   C1   0.470988  0.314628  0.499938  0.906918
    C   C2   0.505041  0.684365  0.499058  0.904666
    O   O5   0.396061  0.489897  0.426256  -0.593744
    O   O6   0.580009  0.509969  0.572723  -0.578260
    O   O7   0.580884  0.506254  0.431613  -0.562739
    O   O8   0.395108  0.491911  0.567384  -0.573244
    C   C3   0.488482  0.497575  0.406126  0.580758
    C   C4   0.487576  0.501452  0.592864  0.574048
    Cu  Cu1  0.380763  0.493423  0.496356  1.008453
    Cu  Cu2  0.595268  0.505592  0.502642  0.975985
    C   C5   0.494035  0.410908  0.177059  0.511499
    C   C6   0.510032  0.589646  0.822845  0.514777
    O   O9   0.495682  0.331428  0.204093  -0.482089
    O   O10  0.525997  0.670233  0.796391  -0.477390
    N   N1   0.489312  0.494214  0.200616  -0.198104
    N   N2   0.489079  0.505016  0.798513  -0.207996
    C   C7   0.485268  0.576807  0.176486  0.503008
    C   C8   0.469196  0.421162  0.821990  0.506862
    C   C9   0.582846  0.490231  0.280315  -0.142276
    C   C10  0.583690  0.525384  0.724136  -0.142300
    C   C11  0.582948  0.491689  0.330386  -0.137055
    C   C12  0.583543  0.523959  0.674068  -0.142434
    C   C13  0.394342  0.500468  0.324664  -0.124783
    C   C14  0.392318  0.482110  0.668907  -0.129644
    C   C15  0.394823  0.500232  0.274590  -0.158181
    C   C16  0.392895  0.482483  0.719015  -0.149543
    C   C17  0.488928  0.494748  0.252332  0.213054
    C   C18  0.488486  0.504451  0.746737  0.200309
    C   C19  0.491196  0.494070  0.100826  0.165297
    C   C20  0.491702  0.505322  0.898467  0.173069
    C   C21  0.495100  0.408257  0.126049  -0.301670
    C   C22  0.512301  0.592378  0.873948  -0.302617
    C   C23  0.500816  0.324096  0.099153  0.254580
    C   C24  0.535086  0.677933  0.901655  0.248072
    C   C25  0.486776  0.578009  0.126533  -0.168556
    C   C26  0.470667  0.420120  0.872030  -0.171870
    C   C27  0.488558  0.496519  0.352861  0.056917
    C   C28  0.487761  0.502565  0.646140  0.064426
    H   H1   0.319613  0.504664  0.341292  0.133418
    H   H2   0.316433  0.464851  0.647963  0.129787
    H   H3   0.321024  0.503723  0.252769  0.129653
    H   H4   0.318022  0.466183  0.736542  0.131745
    C   C29  0.478319  0.414649  0.972972  0.083350
    C   C30  0.495009  0.584228  0.026048  0.081879
    C   C31  0.505081  0.587151  0.975699  0.059680
    C   C32  0.488167  0.412728  0.023889  0.056237
    C   C33  0.491714  0.502413  0.949066  -0.024450
    C   C34  0.491455  0.496966  0.050235  -0.017632
    C   C35  0.453662  0.330479  0.945320  -0.184036
    C   C36  0.486715  0.666742  0.052756  -0.186552
    C   C37  0.449791  0.333506  0.895564  -0.029047
    C   C38  0.482460  0.663327  0.102282  -0.029334
    O   O11  0.449665  0.338151  0.796342  -0.517967
    O   O12  0.481272  0.658493  0.201513  -0.523254
    C   C39  0.497071  0.328138  0.048989  -0.290779
    C   C40  0.530719  0.673469  0.951591  -0.290783
    H   H5   0.659207  0.540441  0.657239  0.133237
    H   H6   0.657573  0.488227  0.351534  0.127541
    H   H7   0.658877  0.542218  0.745697  0.132694
    H   H8   0.656834  0.486223  0.262987  0.129347
    H   H9   0.430100  0.266235  0.875591  0.119546
    H   H10  0.475836  0.729263  0.121512  0.121877
    H   H11  0.432002  0.260373  0.960822  0.127775
    H   H12  0.478460  0.735312  0.036388  0.128605
    H   H13  0.508306  0.263595  0.030064  0.164708
    H   H14  0.555024  0.739728  0.971552  0.165453
    C   C41  0.514331  0.787713  0.498801  -0.326869
    C   C42  0.461699  0.211281  0.500197  -0.330358
    C   C43  0.531627  0.978071  0.498323  -0.066636
    C   C44  0.444405  0.020923  0.500676  -0.070629
    C   C45  0.453835  0.124494  0.500415  0.060794
    C   C46  0.522196  0.874500  0.498583  0.057674
    H   H15  0.366150  0.977801  0.502792  0.148442
    H   H16  0.609882  0.021193  0.496207  0.147827
    N   N3   0.220403  0.484501  0.491562  -0.230135
    N   N4   0.755631  0.514537  0.507452  -0.218037
    C   C47  0.012298  0.472512  0.485121  -0.100644
    C   C48  0.963735  0.526529  0.513897  -0.085983
    C   C49  0.848414  0.519864  0.510315  0.220895
    C   C50  0.127620  0.479177  0.488702  0.231381
    H   H17  0.011061  0.575615  0.540069  0.183142
    H   H18  0.964972  0.423427  0.458950  0.188943
    C   C51  0.512631  0.226903  0.120565  -0.185044
    C   C52  0.628475  0.223570  0.139186  0.089306
    C   C53  0.636623  0.128591  0.164688  0.260787
    C   C54  0.752507  0.123809  0.181913  -0.311780
    H   H19  0.492504  0.170254  0.092054  0.028273
    H   H20  0.454348  0.205582  0.148395  0.067058
    H   H21  0.657427  0.284131  0.164732  -0.006783
    H   H22  0.680013  0.229761  0.107797  -0.032846
    H   H23  0.608025  0.067782  0.139130  -0.054337
    H   H24  0.586383  0.122673  0.196524  -0.025147
    H   H25  0.803397  0.128890  0.150306  0.054792
    H   H26  0.757530  0.054256  0.200565  0.065539
    H   H27  0.781742  0.184079  0.207705  0.065436
    C   C55  0.566869  0.777194  0.881487  -0.181535
    C   C56  0.684204  0.791206  0.869099  0.099194
    C   C57  0.711860  0.888074  0.844820  0.264488
    C   C58  0.829538  0.903483  0.833800  -0.310170
    H   H28  0.558961  0.832496  0.909287  0.029352
    H   H29  0.511901  0.793466  0.850648  0.065334
    H   H30  0.700258  0.732963  0.844581  -0.010673
    H   H31  0.735579  0.789297  0.903219  -0.035964
    H   H32  0.696327  0.946628  0.869380  -0.060140
    H   H33  0.661672  0.889861  0.810339  -0.028283
    H   H34  0.880551  0.902572  0.868093  0.055348
    H   H35  0.848848  0.974345  0.816005  0.064167
    H   H36  0.845821  0.845552  0.809032  0.064835
