# Generated by REPEAT Assigner based on pymatgen
data_DB0-m3_o6_o25_f0_nbo.sym.121_sqe
_audit_creation_date              2022-05-24
_audit_creation_method            REPEAT_Assigner
_cell_length_a                    27.841272
_cell_length_b                    27.852603
_cell_length_c                    27.941286
_cell_angle_alpha                 109.320414
_cell_angle_beta                  109.718704
_cell_angle_gamma                 109.205586
_cell_volume                      16713.770435
_symmetry_space_group_name_H-M    P1
_symmetry_Int_Tables_number       1
loop_
    _symmetry_equiv_pos_site_id
    _symmetry_equiv_pos_as_xyz
    1  x,y,z
loop_
    _atom_site_type_symbol
    _atom_site_label
    _atom_site_fract_x
    _atom_site_fract_y
    _atom_site_fract_z
    _atom_type_partial_charge
    O   O1   0.936990  0.972949  0.532972  -0.679899
    O   O2   0.939392  0.901173  0.463960  -0.665254
    C   C1   0.918883  0.917873  0.498442  0.747899
    O   O3   0.938658  0.037384  0.473545  -0.656060
    O   O4   0.937679  0.963910  0.402836  -0.673938
    C   C2   0.918872  0.000539  0.418757  0.650971
    Zn  Zn1  0.999635  0.046688  0.546143  1.309339
    Zn  Zn2  0.000579  0.952903  0.452968  1.304548
    O   O5   0.060831  0.098415  0.535160  -0.663178
    O   O6   0.063234  0.026641  0.466148  -0.683417
    O   O7   0.062536  0.035680  0.596277  -0.678088
    O   O8   0.061553  0.962204  0.525563  -0.661820
    C   C3   0.081348  0.081718  0.500686  0.759995
    C   C4   0.081340  0.999046  0.580351  0.710390
    C   C5   0.704252  0.985734  0.256062  0.133453
    C   C6   0.731731  0.947199  0.244599  -0.523688
    H   H1   0.716475  0.903256  0.240723  0.135141
    H   H2   0.664066  0.974130  0.259770  0.013458
    H   H3   0.726211  0.930051  0.154145  0.049971
    C   C7   0.874305  0.000294  0.373809  0.180125
    C   C8   0.628986  0.000655  0.127883  0.160474
    C   C9   0.764706  0.038198  0.302161  -0.498084
    C   C10  0.791456  0.999928  0.290311  1.357676
    C   C11  0.771510  0.053198  0.256515  0.140569
    C   C12  0.711793  0.000407  0.210824  0.709176
    C   C13  0.798911  0.014586  0.245051  -0.527751
    C   C14  0.738396  0.961849  0.198535  0.029596
    C   C15  0.836873  0.000101  0.336063  -0.770657
    C   C16  0.666390  0.000539  0.165356  -0.654358
    H   H4   0.839213  0.026374  0.241549  0.135272
    H   H5   0.786787  0.097228  0.260596  0.010862
    H   H6   0.835210  0.740743  0.499465  0.156123
    C   C17  0.755131  0.702012  0.499597  -0.207995
    H   H7   0.759081  0.664770  0.499893  0.155746
    C   C18  0.707415  0.706948  0.499451  0.350638
    C   C19  0.702330  0.754427  0.499058  -0.212457
    H   H8   0.664900  0.758259  0.498932  0.155535
    C   C20  0.744984  0.796995  0.498811  -0.202901
    H   H9   0.741030  0.834233  0.498505  0.154759
    C   C21  0.792698  0.792057  0.498950  0.338903
    C   C22  0.797786  0.744580  0.499350  -0.207452
    C   C23  0.663001  0.662627  0.499634  -0.244763
    C   C24  0.837089  0.836350  0.498718  -0.227093
    C   C25  0.874402  0.873558  0.498560  -0.059767
    C   C26  0.625663  0.625384  0.499732  -0.031423
    H   H10  0.259364  0.998871  0.665895  0.156460
    C   C27  0.298362  0.999106  0.746237  -0.212112
    H   H11  0.335768  0.998835  0.742708  0.155040
    C   C28  0.293425  0.999402  0.793776  0.358039
    C   C29  0.245748  0.999739  0.798351  -0.208850
    H   H12  0.241933  0.999964  0.835650  0.154172
    C   C30  0.202948  0.999761  0.755320  -0.211377
    H   H13  0.165525  0.999997  0.758831  0.157417
    C   C31  0.207880  0.999449  0.707773  0.355056
    C   C32  0.255565  0.999129  0.703210  -0.210288
    C   C33  0.337915  0.999320  0.838489  -0.250883
    C   C34  0.163327  0.999370  0.662964  -0.256226
    C   C35  0.125900  0.999253  0.625276  -0.018010
    C   C36  0.375302  0.999240  0.876022  -0.022042
    H   H14  0.167368  0.165380  0.408004  0.146993
    C   C37  0.247384  0.245450  0.449399  -0.328110
    H   H15  0.244179  0.241586  0.408512  0.181991
    C   C38  0.294527  0.293118  0.501838  0.524946
    C   C39  0.298635  0.298083  0.554036  -0.244794
    C   C40  0.255570  0.255360  0.553718  -0.029535
    H   H16  0.258745  0.259219  0.594595  0.094170
    C   C41  0.208438  0.207718  0.501272  0.208731
    C   C42  0.204336  0.202746  0.449111  -0.131947
    C   C43  0.339186  0.337507  0.501944  -0.297640
    C   C44  0.163650  0.163319  0.500998  -0.159312
    C   C45  0.126059  0.126055  0.500820  -0.088190
    C   C46  0.376587  0.374728  0.501873  -0.006852
    O   O9   0.464200  0.025086  0.062682  -0.663548
    O   O10  0.537728  0.096448  0.064323  -0.681294
    C   C47  0.500965  0.080052  0.082702  0.753012
    O   O11  0.529276  0.966003  0.064811  -0.669612
    O   O12  0.601123  0.035695  0.063094  -0.655210
    C   C48  0.584468  0.000802  0.083264  0.649495
    Zn  Zn3  0.455228  0.952949  0.002007  1.298987
    Zn  Zn4  0.549096  0.046998  0.001940  1.307595
    O   O13  0.466575  0.903498  0.939606  -0.672318
    O   O14  0.540110  0.974859  0.941253  -0.667991
    O   O15  0.403192  0.964258  0.940865  -0.648390
    O   O16  0.475014  0.033948  0.939114  -0.674306
    C   C49  0.503338  0.919895  0.921229  0.738257
    C   C50  0.419829  0.999137  0.920673  0.699387
    O   O17  0.465028  0.439263  0.402226  -0.661235
    O   O18  0.535182  0.437263  0.474008  -0.668681
    C   C51  0.500108  0.418983  0.418922  0.715489
    O   O19  0.525975  0.561098  0.463011  -0.661611
    O   O20  0.597803  0.562437  0.536452  -0.675696
    C   C52  0.581147  0.581012  0.499759  0.716671
    Zn  Zn5  0.453814  0.500294  0.453950  1.305034
    Zn  Zn6  0.548466  0.499855  0.547743  1.297411
    O   O21  0.467092  0.562879  0.527691  -0.673514
    O   O22  0.537251  0.560883  0.599463  -0.652631
    O   O23  0.404471  0.437687  0.465207  -0.673687
    O   O24  0.476298  0.439029  0.538656  -0.644331
    C   C53  0.502176  0.581166  0.582782  0.726776
    C   C54  0.421125  0.419116  0.501899  0.701965
    H   H17  0.500538  0.257881  0.166006  0.149871
    C   C55  0.500337  0.296933  0.245789  -0.327748
    H   H18  0.500252  0.334222  0.241834  0.185806
    C   C56  0.500290  0.292187  0.293355  0.531979
    C   C57  0.500410  0.244595  0.298405  -0.248052
    C   C58  0.500576  0.201823  0.255887  -0.038489
    H   H19  0.500668  0.164530  0.259829  0.094595
    C   C59  0.500626  0.206594  0.208341  0.226747
    C   C60  0.500503  0.254148  0.203288  -0.143550
    C   C61  0.500170  0.336835  0.337537  -0.306409
    C   C62  0.500782  0.162054  0.164115  -0.170296
    C   C63  0.500886  0.124632  0.126965  -0.079167
    C   C64  0.500111  0.374382  0.374619  -0.008644
    H   H20  0.596063  0.835331  0.835903  0.185180
    C   C65  0.554796  0.755235  0.756138  -0.146165
    H   H21  0.595877  0.759031  0.759570  0.149152
    C   C66  0.502291  0.707615  0.708972  0.231766
    C   C67  0.449889  0.702760  0.704595  -0.036975
    H   H22  0.408734  0.665414  0.667614  0.091221
    C   C68  0.449960  0.745513  0.747371  -0.240565
    C   C69  0.502503  0.793167  0.794577  0.514737
    C   C70  0.554897  0.797998  0.798926  -0.321959
    C   C71  0.502189  0.663087  0.664475  -0.174460
    C   C72  0.502795  0.837783  0.839201  -0.289880
    C   C73  0.503144  0.875310  0.876711  -0.029571
    C   C74  0.502149  0.625694  0.627152  -0.064891
    I   I1   0.370430  0.370706  0.634263  0.033350
    I   I2   0.500355  0.236981  0.370847  0.035581
    I   I3   0.369779  0.737767  0.740348  0.035552
    I   I4   0.788157  0.099297  0.387495  -0.042166
