# Generated by REPEAT Assigner based on pymatgen
data_DB0-m9_o6_o27_f0_sra.sym.30_sqe
_audit_creation_date              2022-05-24
_audit_creation_method            REPEAT_Assigner
_cell_length_a                    26.725935
_cell_length_b                    6.219968
_cell_length_c                    22.476886
_cell_angle_alpha                 90.000000
_cell_angle_beta                  100.537377
_cell_angle_gamma                 90.000000
_cell_volume                      3673.421007
_symmetry_space_group_name_H-M    P1
_symmetry_Int_Tables_number       1
loop_
    _symmetry_equiv_pos_site_id
    _symmetry_equiv_pos_as_xyz
    1  x,y,z
loop_
    _atom_site_type_symbol
    _atom_site_label
    _atom_site_fract_x
    _atom_site_fract_y
    _atom_site_fract_z
    _atom_type_partial_charge
    O  O1   0.191324  0.461247  0.701368  -0.455022
    O  O2   0.809293  0.565099  0.296478  -0.507155
    O  O3   0.308676  0.961247  0.798632  -0.455040
    O  O4   0.690706  0.065099  0.203522  -0.507129
    O  O5   0.295794  0.825845  0.680404  -0.352486
    O  O6   0.707115  0.200348  0.321852  -0.385491
    O  O7   0.204206  0.325845  0.819596  -0.352468
    O  O8   0.792885  0.700348  0.178148  -0.385498
    C  C1   0.314620  0.628735  0.682274  0.331168
    C  C2   0.687902  0.396517  0.320980  0.291656
    C  C3   0.185380  0.128735  0.817726  0.331178
    C  C4   0.812098  0.896517  0.179020  0.291713
    O  O9   0.192216  0.826682  0.670364  -0.542611
    O  O10  0.810211  0.199670  0.327559  -0.555290
    O  O11  0.307784  0.326682  0.829636  -0.542603
    O  O12  0.689789  0.699670  0.172441  -0.555284
    O  O13  0.199105  0.961940  0.787783  -0.424405
    O  O14  0.799831  0.064548  0.209645  -0.357731
    O  O15  0.300895  0.461940  0.712217  -0.424393
    O  O16  0.700168  0.564548  0.290355  -0.357696
    C  C5   0.172777  0.630587  0.668494  0.713015
    C  C6   0.829112  0.396428  0.328737  0.694127
    C  C7   0.327223  0.130587  0.831506  0.713021
    C  C8   0.670888  0.896428  0.171263  0.694091
    O  O17  0.253226  0.683136  0.788367  -0.363941
    O  O18  0.745110  0.343271  0.211618  -0.404657
    O  O19  0.246774  0.183136  0.711633  -0.363940
    O  O20  0.754890  0.843271  0.288382  -0.404668
    V  V1   0.248885  0.925253  0.733493  1.244527
    V  V2   0.752079  0.101080  0.266443  1.283689
    V  V3   0.251115  0.425253  0.766507  1.244732
    V  V4   0.747921  0.601080  0.233557  1.283510
    C  C9   0.528161  0.833040  0.001540  -0.214144
    C  C10  0.469214  0.196278  0.002662  -0.080393
    C  C11  0.971839  0.333040  0.498460  -0.214129
    C  C12  0.030786  0.696278  0.497338  -0.080405
    H  H1   0.551188  0.690184  0.002900  0.166052
    H  H2   0.446105  0.338715  0.003080  0.118885
    H  H3   0.948812  0.190184  0.497100  0.166061
    H  H4   0.053895  0.838715  0.496921  0.118893
    C  C13  0.542341  0.989488  0.044878  0.242910
    C  C14  0.454976  0.040048  0.959316  0.216657
    C  C15  0.957659  0.489488  0.455122  0.242873
    C  C16  0.045024  0.540048  0.540684  0.216663
    C  C17  0.512930  0.171264  0.045372  -0.176753
    C  C18  0.484558  0.858732  0.958249  -0.108511
    C  C19  0.987070  0.671264  0.454628  -0.176721
    C  C20  0.015442  0.358732  0.541751  -0.108498
    C  C21  0.587599  0.961324  0.089742  -0.154446
    C  C22  0.409729  0.068334  0.914444  -0.083230
    C  C23  0.912400  0.461324  0.410258  -0.154438
    C  C24  0.090271  0.568334  0.585556  -0.083254
    C  C25  0.371940  0.094647  0.876651  -0.161897
    C  C26  0.625619  0.934273  0.127127  -0.160508
    C  C27  0.128060  0.594647  0.623349  -0.161883
    C  C28  0.874380  0.434273  0.372873  -0.160520
    C  C29  0.877875  0.115342  0.139595  -0.284031
    C  C30  0.120075  0.898504  0.853156  -0.069864
    C  C31  0.622125  0.615342  0.360405  -0.284187
    C  C32  0.379925  0.398504  0.646844  -0.069935
    C  C33  0.915396  0.123868  0.104722  0.197272
    C  C34  0.080739  0.879377  0.885018  0.016434
    C  C35  0.584604  0.623868  0.395278  0.197458
    C  C36  0.419261  0.379377  0.614982  0.016529
    H  H5   0.937555  0.268678  0.103840  0.021901
    H  H6   0.060491  0.729303  0.884197  0.178046
    H  H7   0.562445  0.768678  0.396160  0.021958
    H  H8   0.439509  0.229303  0.615803  0.178019
    C  C37  0.923439  0.953349  0.068371  -0.462085
    C  C38  0.068031  0.048989  0.918791  -0.519602
    C  C39  0.576561  0.453349  0.431629  -0.462245
    C  C40  0.431969  0.548989  0.581210  -0.519678
    C  C41  0.893979  0.769998  0.067305  0.123861
    C  C42  0.092612  0.242416  0.917668  0.327266
    C  C43  0.606021  0.269998  0.432695  0.123968
    C  C44  0.407388  0.742416  0.582332  0.327319
    C  C45  0.857255  0.759591  0.102944  -0.181419
    C  C46  0.132654  0.261971  0.887287  -0.175845
    C  C47  0.642744  0.259591  0.397056  -0.181533
    C  C48  0.367346  0.761971  0.612713  -0.175870
    H  H9   0.835581  0.613696  0.104306  0.134900
    H  H10  0.151128  0.415929  0.885681  0.108223
    H  H11  0.664419  0.113696  0.395694  0.134921
    H  H12  0.348872  0.915929  0.614319  0.108237
    C  C49  0.849004  0.929620  0.139205  0.134926
    C  C50  0.146588  0.091154  0.854765  0.121330
    C  C51  0.650995  0.429620  0.360795  0.135076
    C  C52  0.353412  0.591154  0.645235  0.121367
    N  N1   0.964445  0.830764  0.986085  -0.227670
    N  N2   0.027059  0.169749  0.001013  -0.314410
    N  N3   0.535555  0.330764  0.513915  -0.227621
    N  N4   0.472941  0.669749  0.498987  -0.314342
    N  N5   0.998450  0.854176  0.950628  -0.349819
    N  N6   0.993053  0.146386  0.036521  -0.313542
    N  N7   0.501550  0.354176  0.549372  -0.349837
    N  N8   0.506947  0.646386  0.463480  -0.313640
    C  C53  0.029989  0.023917  0.957536  0.880401
    C  C54  0.961549  0.975860  0.029612  0.730303
    C  C55  0.470011  0.523917  0.542464  0.880414
    C  C56  0.538451  0.475860  0.470388  0.730363
    C  C57  0.468198  0.696039  0.911446  0.633558
    O  O21  0.425937  0.710418  0.880237  -0.450240
    C  C58  0.502147  0.515971  0.900035  -0.486989
    H  H13  0.541387  0.539162  0.925067  0.080532
    H  H14  0.503359  0.510133  0.851006  0.131417
    H  H15  0.486712  0.361788  0.913661  0.121756
    C  C59  0.527935  0.336791  0.091286  0.624993
    O  O22  0.501852  0.497337  0.091766  -0.487601
    C  C60  0.575087  0.309383  0.137493  -0.464678
    H  H16  0.608359  0.295776  0.114606  0.151526
    H  H17  0.571942  0.161477  0.164116  0.163900
    H  H18  0.580080  0.450479  0.168172  0.104735
    C  C61  0.031802  0.196039  0.588554  0.633514
    O  O23  0.074063  0.210418  0.619763  -0.450227
    C  C62  0.997853  0.015971  0.599965  -0.486952
    H  H19  0.958613  0.039162  0.574933  0.080519
    H  H20  0.996641  0.010133  0.648994  0.131411
    H  H21  0.013288  0.861788  0.586339  0.121746
    C  C63  0.972065  0.836791  0.408714  0.624951
    O  O24  0.998148  0.997337  0.408235  -0.487588
    C  C64  0.924913  0.809383  0.362507  -0.464649
    H  H22  0.891641  0.795776  0.385394  0.151533
    H  H23  0.928058  0.661477  0.335884  0.163901
    H  H24  0.919920  0.950480  0.331828  0.104721
    C  C65  0.869726  0.304952  0.175514  0.698494
    O  O25  0.827376  0.348504  0.184726  -0.424841
    C  C66  0.912610  0.455502  0.197059  -0.616038
    H  H25  0.948728  0.388057  0.187641  0.117158
    H  H26  0.916225  0.478886  0.246576  0.147807
    H  H27  0.904868  0.612603  0.173884  0.211445
    C  C67  0.131901  0.713257  0.817827  0.450354
    O  O26  0.175729  0.671760  0.813928  -0.314389
    C  C68  0.090194  0.566899  0.789295  -0.376575
    H  H28  0.053144  0.628036  0.797675  0.037679
    H  H29  0.096898  0.403086  0.808418  0.097825
    H  H30  0.089334  0.560543  0.739810  0.118958
    C  C69  0.630273  0.804952  0.324486  0.698481
    O  O27  0.672624  0.848504  0.315274  -0.424840
    C  C70  0.587390  0.955502  0.302941  -0.616020
    H  H31  0.551272  0.888057  0.312359  0.117125
    H  H32  0.583775  0.978886  0.253424  0.147826
    H  H33  0.595132  0.112603  0.326116  0.211431
    C  C71  0.368099  0.213257  0.682173  0.450378
    O  O28  0.324271  0.171760  0.686072  -0.314392
    C  C72  0.409806  0.066899  0.710705  -0.376538
    H  H34  0.446856  0.128036  0.702325  0.037668
    H  H35  0.403102  0.903086  0.691582  0.097811
    H  H36  0.410666  0.060543  0.760190  0.118945
    C  C73  0.902320  0.581954  0.031126  0.461755
    O  O29  0.944408  0.545471  0.020063  -0.396275
    C  C74  0.860083  0.427534  0.010305  -0.523019
    H  H37  0.823958  0.489920  0.021092  0.100594
    H  H38  0.869213  0.270001  0.032741  0.169766
    H  H39  0.855529  0.406759  0.960600  0.144307
    C  C75  0.071823  0.432519  0.942054  0.104308
    O  O30  0.099297  0.584644  0.959790  -0.398065
    C  C76  0.015598  0.449121  0.937632  0.035125
    H  H40  0.996867  0.298297  0.919225  -0.058365
    H  H41  0.000368  0.575954  0.904834  -0.026589
    H  H42  0.006714  0.484711  0.982811  0.224982
    C  C77  0.597680  0.081954  0.468874  0.461711
    O  O31  0.555592  0.045471  0.479937  -0.396299
    C  C78  0.639917  0.927534  0.489695  -0.522965
    H  H43  0.676042  0.989920  0.478908  0.100581
    H  H44  0.630787  0.770001  0.467259  0.169744
    H  H45  0.644471  0.906759  0.539400  0.144296
    C  C79  0.428177  0.932519  0.557946  0.104265
    O  O32  0.400703  0.084644  0.540210  -0.398078
    C  C80  0.484402  0.949121  0.562368  0.035163
    H  H46  0.503133  0.798297  0.580775  -0.058380
    H  H47  0.499632  0.075954  0.595166  -0.026587
    H  H48  0.493286  0.984711  0.517189  0.224990
