# Generated by REPEAT Assigner based on pymatgen
data_DB0-m3_o1_o4_f0_nbo.sym.21
_audit_creation_date              2022-05-24
_audit_creation_method            REPEAT_Assigner
_cell_length_a                    18.831728
_cell_length_b                    18.942683
_cell_length_c                    18.942722
_cell_angle_alpha                 109.586395
_cell_angle_beta                  109.360641
_cell_angle_gamma                 109.346696
_cell_volume                      5209.445318
_symmetry_space_group_name_H-M    P1
_symmetry_Int_Tables_number       1
loop_
    _symmetry_equiv_pos_site_id
    _symmetry_equiv_pos_as_xyz
    1  x,y,z
loop_
    _atom_site_type_symbol
    _atom_site_label
    _atom_site_fract_x
    _atom_site_fract_y
    _atom_site_fract_z
    _atom_type_partial_charge
    O   O1   0.409120  0.552301  0.460976  -0.681483
    O   O2   0.411967  0.444325  0.360705  -0.700550
    C   C1   0.382208  0.497300  0.381102  0.666275
    O   O3   0.588778  0.645298  0.557150  -0.675045
    O   O4   0.597913  0.541280  0.459102  -0.695638
    C   C2   0.622335  0.622040  0.509057  0.728856
    Zn  Zn1  0.496283  0.567072  0.570032  1.299413
    Zn  Zn2  0.505341  0.431350  0.437852  1.298873
    O   O5   0.588169  0.552644  0.647229  -0.702568
    O   O6   0.594158  0.447682  0.546941  -0.672678
    O   O7   0.402500  0.457080  0.547412  -0.683249
    O   O8   0.414264  0.353269  0.452228  -0.675936
    C   C3   0.619457  0.501163  0.626815  0.657506
    C   C4   0.379438  0.376389  0.498944  0.666478
    C   C5   0.685009  0.758146  0.507651  0.109637
    C   C6   0.691111  0.689489  0.511903  -0.069065
    C   C7   0.765560  0.686631  0.518260  -0.170718
    H   H1   0.773946  0.634109  0.522352  0.152004
    C   C8   0.830894  0.752333  0.521610  -0.233499
    H   H2   0.888742  0.749392  0.527250  0.173647
    C   C9   0.820274  0.819036  0.514008  -0.042273
    C   C10  0.744906  0.818045  0.506117  0.111193
    C   C11  0.697202  0.865794  0.496535  -0.182542
    C   C12  0.626365  0.794845  0.497716  -0.141806
    H   H3   0.730863  0.930544  0.554367  0.092607
    H   H4   0.675291  0.862867  0.433076  0.080913
    H   H5   0.620121  0.819973  0.555985  0.068899
    H   H6   0.565116  0.752069  0.434762  0.081944
    C   C13  0.247016  0.418701  0.240820  -0.152394
    H   H7   0.241744  0.358167  0.234909  0.138074
    C   C14  0.182143  0.418422  0.178904  -0.191956
    H   H8   0.127288  0.357658  0.124218  0.131147
    C   C15  0.188695  0.495487  0.185637  0.148331
    C   C16  0.259400  0.572630  0.255364  -0.207341
    H   H9   0.264857  0.633311  0.261612  0.141631
    C   C17  0.321661  0.572848  0.319473  -0.135810
    H   H10  0.375724  0.633682  0.374819  0.122435
    C   C18  0.316234  0.495994  0.311971  0.103794
    C   C19  0.320818  0.239729  0.499186  -0.180887
    H   H11  0.377107  0.235257  0.501080  0.141741
    C   C20  0.259376  0.177935  0.502043  -0.157682
    H   H12  0.267418  0.124912  0.505043  0.130931
    C   C21  0.186829  0.182566  0.498616  0.104932
    C   C22  0.176860  0.250224  0.494344  -0.162650
    H   H13  0.120592  0.254701  0.492517  0.136650
    C   C23  0.240699  0.314582  0.496374  -0.178727
    H   H14  0.233385  0.368369  0.494819  0.137392
    C   C24  0.312288  0.308902  0.497828  0.121414
    C   C25  0.757828  0.503783  0.689921  -0.200168
    H   H15  0.764474  0.503533  0.635318  0.150365
    C   C26  0.821798  0.506253  0.754579  -0.169835
    H   H16  0.877549  0.506873  0.749656  0.124714
    C   C27  0.812794  0.504011  0.823258  0.158400
    C   C28  0.740839  0.502180  0.828461  -0.190104
    H   H17  0.733560  0.500771  0.882306  0.136786
    C   C29  0.679186  0.504694  0.766179  -0.165347
    H   H18  0.623359  0.503999  0.770964  0.137913
    C   C30  0.686907  0.504064  0.696028  0.139629
    O   O9   0.060134  0.910929  0.472568  -0.568544
    O   O10  0.948909  0.904199  0.366149  -0.684226
    C   C31  0.003252  0.877129  0.391395  0.573062
    O   O11  0.967531  0.913879  0.562388  -0.672858
    O   O12  0.858314  0.912590  0.458740  -0.665940
    C   C32  0.885283  0.885610  0.512130  0.692717
    Zn  Zn3  0.074733  0.004386  0.577105  1.258144
    Zn  Zn4  0.932295  0.998360  0.436569  1.294157
    O   O13  0.058664  0.099084  0.647536  -0.673491
    O   O14  0.946517  0.091459  0.541152  -0.682625
    O   O15  0.148625  0.089695  0.554474  -0.682248
    O   O16  0.039533  0.089240  0.451702  -0.692367
    C   C33  0.002987  0.124759  0.622401  0.648997
    C   C34  0.121739  0.117034  0.501460  0.683577
    O   O17  0.947325  0.533170  0.095813  -0.573991
    O   O18  0.054276  0.643105  0.101847  -0.661449
    C   C35  0.001202  0.615318  0.129223  0.583372
    O   O19  0.039800  0.440372  0.087249  -0.680313
    O   O20  0.146225  0.554676  0.097384  -0.678085
    C   C36  0.121543  0.496313  0.119664  0.670874
    Zn  Zn5  0.930694  0.427628  0.001624  1.242202
    Zn  Zn6  0.069923  0.571440  0.007607  1.295662
    O   O21  0.943959  0.356039  0.905276  -0.588098
    O   O22  0.055335  0.465854  0.915263  -0.671271
    O   O23  0.854214  0.446434  0.914046  -0.680506
    O   O24  0.960880  0.556535  0.919619  -0.687428
    C   C37  0.999735  0.383855  0.880720  0.590747
    C   C38  0.879139  0.502733  0.889453  0.649708
    C   C39  0.000316  0.812247  0.255261  -0.204332
    H   H19  0.001079  0.867329  0.249498  0.149366
    C   C40  0.001690  0.750144  0.193234  -0.210925
    H   H20  0.001797  0.756420  0.138617  0.149710
    C   C41  0.001209  0.679548  0.199167  0.099214
    C   C42  0.000674  0.671209  0.269650  -0.047664
    C   C43  0.999803  0.735104  0.333418  -0.096647
    C   C44  0.000560  0.806163  0.325653  0.126883
    C   C45  0.930213  0.202411  0.668055  -0.203140
    H   H21  0.873786  0.159873  0.604251  0.158403
    C   C46  0.927815  0.264760  0.729651  -0.008051
    C   C47  0.000224  0.319888  0.811715  0.069297
    C   C48  0.073513  0.311930  0.830595  -0.166219
    H   H22  0.129658  0.354440  0.894634  0.141388
    C   C49  0.074524  0.247941  0.769520  -0.195045
    H   H23  0.132190  0.242058  0.786086  0.143068
    C   C50  0.002774  0.192950  0.687919  0.098672
    C   C51  0.007574  0.597473  0.279309  0.080606
    C   C52  0.918203  0.519950  0.237002  -0.173601
    H   H24  0.900550  0.516785  0.286567  0.039310
    H   H25  0.869148  0.524980  0.189817  0.030911
    H   H26  0.919108  0.460025  0.203376  0.039469
    H   H27  0.045113  0.578150  0.250458  0.008831
    H   H28  0.044662  0.616319  0.347685  0.029495
    C   C53  0.991774  0.725280  0.406674  0.044183
    C   C54  0.080577  0.765276  0.484010  -0.174826
    H   H29  0.093887  0.713915  0.489149  0.041271
    H   H30  0.131321  0.807894  0.476919  0.036725
    H   H31  0.081720  0.803527  0.543753  0.038063
    H   H32  0.955625  0.755787  0.426627  0.043471
    H   H33  0.952841  0.656944  0.386940  0.034176
    C   C55  0.847627  0.272382  0.703895  0.017337
    C   C56  0.776534  0.200793  0.699933  -0.038833
    H   H34  0.758297  0.137044  0.649126  0.007408
    H   H35  0.799658  0.203461  0.763238  0.011464
    H   H36  0.718842  0.209338  0.684494  0.004282
    H   H37  0.859298  0.335636  0.748734  0.056055
    H   H38  0.825351  0.266460  0.639112  0.005871
