# Generated by REPEAT Assigner based on pymatgen
data_DB0-m2_o4_o24_f0_nbo.sym.55_sqe
_audit_creation_date              2022-05-24
_audit_creation_method            REPEAT_Assigner
_cell_length_a                    18.854671
_cell_length_b                    18.671034
_cell_length_c                    18.723198
_cell_angle_alpha                 109.110561
_cell_angle_beta                  110.126842
_cell_angle_gamma                 109.253491
_cell_volume                      5068.748403
_symmetry_space_group_name_H-M    P1
_symmetry_Int_Tables_number       1
loop_
    _symmetry_equiv_pos_site_id
    _symmetry_equiv_pos_as_xyz
    1  x,y,z
loop_
    _atom_site_type_symbol
    _atom_site_label
    _atom_site_fract_x
    _atom_site_fract_y
    _atom_site_fract_z
    _atom_type_partial_charge
    O   O1   0.580969  0.532218  0.443765  -0.610737
    O   O2   0.588982  0.637690  0.558498  -0.610287
    C   C1   0.613545  0.614003  0.501332  0.785645
    O   O3   0.407019  0.444826  0.356551  -0.596017
    O   O4   0.404769  0.547552  0.464259  -0.622823
    C   C2   0.377682  0.497092  0.381709  0.569589
    Cu  Cu1  0.494860  0.433840  0.438247  0.984714
    Cu  Cu2  0.495870  0.556121  0.562650  0.967239
    O   O5   0.403690  0.352090  0.444394  -0.623102
    O   O6   0.407745  0.457841  0.555240  -0.581695
    O   O7   0.587932  0.444566  0.536675  -0.627245
    O   O8   0.581607  0.542934  0.644138  -0.589570
    C   C3   0.377382  0.375912  0.499995  0.776597
    C   C4   0.613140  0.492892  0.619101  0.744527
    C   C5   0.310544  0.580104  0.314372  -0.061897
    C   C6   0.214008  0.536519  0.284896  -0.046558
    H   H1   0.181151  0.568234  0.310728  0.043478
    H   H2   0.360783  0.647864  0.368022  0.046902
    C   C7   0.193117  0.498311  0.190978  0.174368
    C   C8   0.288380  0.541869  0.219210  -0.087050
    C   C9   0.289360  0.460525  0.218689  -0.096924
    C   C10  0.193069  0.417075  0.189363  -0.022416
    C   C11  0.215024  0.455295  0.284348  -0.108638
    C   C12  0.310296  0.498752  0.312647  0.227373
    H   H3   0.317632  0.577744  0.190736  0.062897
    H   H4   0.321855  0.428783  0.192154  0.050602
    H   H5   0.142857  0.349308  0.135684  0.033460
    H   H6   0.186132  0.419406  0.313008  0.059264
    C   C13  0.677204  0.676106  0.425636  0.145960
    C   C14  0.680375  0.682025  0.501750  -0.240431
    C   C15  0.750536  0.755753  0.579471  -0.085537
    H   H7   0.756774  0.763716  0.641556  0.121360
    C   C16  0.815415  0.818189  0.578414  -0.088704
    H   H8   0.870728  0.874097  0.639728  0.119506
    C   C17  0.808504  0.810059  0.499537  -0.247378
    C   C18  0.736470  0.737831  0.424480  0.212581
    C   C19  0.694735  0.691966  0.327648  -0.194820
    C   C20  0.624534  0.619685  0.328929  -0.154429
    H   H9   0.669219  0.727454  0.298722  0.086382
    H   H10  0.734863  0.669900  0.305206  0.082550
    H   H11  0.559875  0.615119  0.301207  0.078192
    H   H12  0.625157  0.557182  0.306646  0.084987
    C   C21  0.749044  0.488112  0.682176  0.198890
    C   C22  0.678558  0.489985  0.686370  -0.200957
    C   C23  0.672698  0.489898  0.758313  -0.131388
    H   H13  0.618112  0.490742  0.764718  0.137343
    C   C24  0.735724  0.486504  0.821633  -0.111091
    H   H14  0.729774  0.485814  0.876830  0.131294
    C   C25  0.807571  0.487820  0.815938  -0.160128
    C   C26  0.811215  0.489638  0.744687  0.111695
    C   C27  0.865131  0.491129  0.702710  -0.162522
    C   C28  0.792208  0.490003  0.629398  -0.167954
    H   H15  0.927895  0.553480  0.741428  0.084116
    H   H16  0.868433  0.430120  0.680043  0.079951
    H   H17  0.814204  0.551935  0.627563  0.071995
    H   H18  0.755050  0.428573  0.565624  0.080213
    C   C29  0.257753  0.224861  0.432527  0.260513
    C   C30  0.312639  0.308315  0.502307  -0.284567
    C   C31  0.304278  0.325656  0.576213  -0.068512
    H   H19  0.346146  0.389913  0.633816  0.126392
    C   C32  0.242760  0.260217  0.577701  -0.125989
    H   H20  0.236883  0.274935  0.635543  0.123955
    C   C33  0.187162  0.177415  0.504539  -0.143364
    C   C34  0.197861  0.163246  0.433284  0.066621
    C   C35  0.164194  0.095485  0.342882  -0.329491
    C   C36  0.233738  0.168168  0.341511  -0.226043
    H   H21  0.095685  0.072790  0.296378  0.165233
    H   H22  0.286321  0.155126  0.338879  0.106808
    H   H23  0.204719  0.189434  0.295913  0.119298
    O   O9   0.954671  0.530759  0.098643  -0.594867
    O   O10  0.049241  0.636020  0.086696  -0.578394
    C   C37  0.002697  0.612397  0.121665  0.807644
    O   O11  0.042179  0.443658  0.096232  -0.610353
    O   O12  0.143597  0.550392  0.092228  -0.610726
    C   C38  0.122654  0.495346  0.120468  0.577253
    Cu  Cu3  0.941324  0.431723  0.005253  0.983552
    Cu  Cu4  0.058591  0.553569  0.999137  0.967659
    O   O13  0.949268  0.349248  0.916200  -0.625862
    O   O14  0.046582  0.454523  0.907076  -0.618172
    O   O15  0.856450  0.441046  0.918324  -0.618289
    O   O16  0.957750  0.544804  0.911344  -0.579993
    C   C39  0.996894  0.372869  0.882254  0.775490
    C   C40  0.877146  0.489195  0.883266  0.721735
    O   O17  0.947939  0.085588  0.533557  -0.609944
    O   O18  0.045788  0.079234  0.643163  -0.584419
    C   C41  0.996245  0.111081  0.616418  0.755030
    O   O19  0.854511  0.900639  0.440872  -0.624639
    O   O20  0.957754  0.904817  0.555673  -0.608438
    C   C42  0.876732  0.874442  0.497938  0.771560
    Cu  Cu5  0.937873  0.992719  0.436772  0.980871
    Cu  Cu6  0.057275  0.991438  0.563558  0.960745
    O   O21  0.949287  0.904913  0.357183  -0.598082
    O   O22  0.047247  0.898594  0.466721  -0.586829
    O   O23  0.037450  0.079368  0.444670  -0.588572
    O   O24  0.140639  0.083556  0.559553  -0.597502
    C   C43  0.998832  0.873129  0.383821  0.695697
    C   C44  0.118500  0.109879  0.502661  0.735066
    C   C45  0.006664  0.677644  0.261986  0.210067
    C   C46  0.003298  0.680301  0.188667  -0.330936
    C   C47  0.999154  0.750107  0.180304  -0.029711
    H   H24  0.995693  0.755085  0.123416  0.118598
    C   C48  0.995738  0.812234  0.243147  -0.081740
    H   H25  0.990733  0.865236  0.234624  0.095731
    C   C49  0.001437  0.807915  0.317405  -0.163562
    C   C50  0.008315  0.739379  0.324156  0.140715
    C   C51  0.013416  0.698337  0.380066  -0.173016
    C   C52  0.012152  0.625968  0.307170  -0.209156
    H   H26  0.076443  0.738186  0.442814  0.075575
    H   H27  0.953640  0.674496  0.384356  0.086743
    H   H28  0.074651  0.625719  0.329103  0.098449
    H   H29  0.951924  0.561654  0.271145  0.093236
    C   C53  0.994107  0.233135  0.815271  0.194212
    C   C54  0.993856  0.305374  0.812423  -0.241057
    C   C55  0.992874  0.312826  0.740739  -0.067887
    H   H30  0.992160  0.368356  0.734951  0.109361
    C   C56  0.990773  0.248077  0.674764  -0.110029
    H   H31  0.989276  0.254562  0.619047  0.126463
    C   C57  0.994392  0.177713  0.682290  -0.208904
    C   C58  0.996866  0.174070  0.754979  0.140537
    C   C59  0.000463  0.120938  0.798739  -0.161281
    C   C60  0.998004  0.190977  0.870161  -0.203266
    H   H32  0.940615  0.055951  0.760319  0.085412
    H   H33  0.063453  0.121745  0.823019  0.081133
    H   H34  0.937024  0.165044  0.872046  0.090791
    H   H35  0.059844  0.231216  0.934108  0.096573
    C   C61  0.185685  0.025296  0.341858  0.827806
    O   O25  0.176037  0.973259  0.274620  -0.563436
    O   O26  0.217777  0.020895  0.415722  -0.313679
    C   C62  0.243696  0.960756  0.418027  -0.053770
    H   H36  0.267114  0.967873  0.484326  0.087656
    H   H37  0.297448  0.972203  0.403551  0.068784
    H   H38  0.188130  0.893651  0.369188  0.072140
