# Generated by REPEAT Assigner based on pymatgen
data_DB0-m3_o16_o18_f0_pcu.sym.42_sqe
_audit_creation_date              2022-05-24
_audit_creation_method            REPEAT_Assigner
_cell_length_a                    12.519800
_cell_length_b                    13.605592
_cell_length_c                    15.985975
_cell_angle_alpha                 85.257720
_cell_angle_beta                  95.522284
_cell_angle_gamma                 93.369400
_cell_volume                      2697.576244
_symmetry_space_group_name_H-M    P1
_symmetry_Int_Tables_number       1
loop_
    _symmetry_equiv_pos_site_id
    _symmetry_equiv_pos_as_xyz
    1  x,y,z
loop_
    _atom_site_type_symbol
    _atom_site_label
    _atom_site_fract_x
    _atom_site_fract_y
    _atom_site_fract_z
    _atom_type_partial_charge
    O   O1   0.372123  0.375073  0.508425  -0.686285
    O   O2   0.544826  0.344979  0.479860  -0.642258
    C   C1   0.446329  0.314487  0.494867  0.765245
    O   O3   0.372079  0.537127  0.387820  -0.681132
    O   O4   0.545461  0.507120  0.360329  -0.637120
    C   C2   0.445467  0.528179  0.335361  0.731423
    Zn  Zn1  0.389778  0.523383  0.515567  1.044905
    Zn  Zn2  0.616681  0.482271  0.478868  1.056249
    O   O5   0.461766  0.660714  0.511691  -0.601934
    O   O6   0.633061  0.630688  0.485156  -0.739366
    O   O7   0.461583  0.496834  0.633684  -0.664415
    O   O8   0.632153  0.465647  0.606581  -0.695920
    C   C3   0.560263  0.691023  0.499004  0.755799
    C   C4   0.560338  0.475177  0.659230  0.776649
    C   C5   0.413281  0.538406  0.244296  -0.096796
    C   C6   0.592610  0.464577  0.750283  -0.136699
    C   C7   0.282276  0.576090  0.130300  -0.279936
    C   C8   0.312606  0.568954  0.215267  -0.042413
    C   C9   0.483069  0.515155  0.187435  -0.155007
    C   C10  0.453310  0.521836  0.100605  0.031536
    C   C11  0.351457  0.552525  0.073670  0.265836
    C   C12  0.521400  0.498453  0.040264  0.040440
    C   C13  0.484970  0.505119  0.954308  0.081918
    C   C14  0.381809  0.536781  0.930718  -0.187142
    C   C15  0.316919  0.560030  0.989615  -0.262351
    C   C16  0.625504  0.469103  0.063666  -0.161687
    C   C17  0.690870  0.447054  0.004663  -0.291630
    C   C18  0.655677  0.453004  0.920722  0.303903
    C   C19  0.552833  0.481204  0.894006  -0.024280
    C   C20  0.725362  0.430894  0.863932  -0.282201
    C   C21  0.694640  0.437403  0.779013  -0.053794
    C   C22  0.521874  0.485000  0.807400  -0.090939
    H   H1   0.237381  0.584374  0.968861  0.135854
    H   H2   0.443232  0.504381  0.781449  0.086966
    H   H3   0.751371  0.420963  0.735912  0.100195
    H   H4   0.771370  0.425097  0.025223  0.136695
    H   H5   0.202993  0.600055  0.108124  0.130237
    H   H6   0.256624  0.587569  0.258153  0.091289
    H   H7   0.559519  0.490213  0.213798  0.102831
    H   H8   0.347006  0.545838  0.866752  0.146664
    H   H9   0.661439  0.462851  0.127422  0.140271
    H   H10  0.805588  0.409269  0.885892  0.127252
    C   C23  0.716483  0.920261  0.555353  -0.248127
    H   H11  0.753470  0.770136  0.553023  0.122586
    H   H12  0.741642  0.100680  0.596881  0.130842
    H   H13  0.795937  0.941147  0.582994  0.119866
    C   C24  0.590830  0.795839  0.506088  -0.083582
    C   C25  0.311893  0.184183  0.459340  -0.059044
    C   C26  0.281535  0.088519  0.443976  -0.133164
    C   C27  0.354458  0.015942  0.457560  -0.179951
    C   C28  0.459851  0.036953  0.490382  0.067426
    C   C29  0.488831  0.133725  0.510003  0.224085
    C   C30  0.536439  0.963844  0.505434  -0.024292
    C   C31  0.638601  0.989016  0.541091  0.252121
    C   C32  0.663475  0.082518  0.565472  -0.240986
    C   C33  0.589132  0.153369  0.552008  -0.254161
    C   C34  0.514434  0.865681  0.487174  -0.088628
    C   C35  0.693001  0.823888  0.537792  -0.117588
    C   C36  0.415694  0.208527  0.490346  -0.221805
    H   H14  0.438569  0.839746  0.457822  0.079095
    H   H15  0.254237  0.240465  0.443892  0.100284
    H   H16  0.323753  0.943585  0.442426  0.145805
    H   H17  0.200182  0.070425  0.418749  0.099233
    H   H18  0.611668  0.222949  0.577963  0.168335
    C   C37  0.120659  0.627685  0.619623  -0.301788
    H   H19  0.925763  0.644055  0.648962  0.141823
    H   H20  0.102705  0.678770  0.663765  0.170574
    N   N1   0.241757  0.553743  0.542072  -0.123388
    C   C38  0.772214  0.393339  0.393246  0.056167
    C   C39  0.870939  0.369888  0.371748  -0.140636
    C   C40  0.964070  0.408579  0.412302  -0.095409
    C   C41  0.958478  0.471323  0.475763  0.029068
    C   C42  0.856171  0.492308  0.496043  0.229067
    C   C43  0.050883  0.515761  0.518615  -0.046972
    C   C44  0.036078  0.577662  0.579949  0.317671
    C   C45  0.936221  0.595112  0.600774  -0.240598
    C   C46  0.847829  0.553697  0.559069  -0.165052
    C   C47  0.157496  0.502554  0.502750  -0.059062
    C   C48  0.223196  0.619662  0.598596  0.105057
    N   N2   0.765133  0.453948  0.454595  -0.170759
    H   H21  0.175849  0.452554  0.458062  0.180349
    H   H22  0.699982  0.362710  0.360388  0.125614
    H   H23  0.038693  0.388094  0.392183  0.134459
    H   H24  0.875403  0.321112  0.322280  0.128935
    H   H25  0.772965  0.572923  0.577250  0.223588
    C   C49  0.305377  0.695882  0.631897  0.554036
    F   F1   0.400396  0.656011  0.663414  -0.141172
    F   F2   0.268603  0.741445  0.696943  -0.221740
    F   F3   0.322653  0.767821  0.568077  -0.187037
