# Generated by REPEAT Assigner based on pymatgen
data_DB0-m2_o7_o28_f0_nbo.sym.32_sqe
_audit_creation_date              2022-05-24
_audit_creation_method            REPEAT_Assigner
_cell_length_a                    35.221287
_cell_length_b                    35.221287
_cell_length_c                    46.549396
_cell_angle_alpha                 90.000000
_cell_angle_beta                  90.000000
_cell_angle_gamma                 90.000000
_cell_volume                      57746.344517
_symmetry_space_group_name_H-M    P1
_symmetry_Int_Tables_number       1
loop_
    _symmetry_equiv_pos_site_id
    _symmetry_equiv_pos_as_xyz
    1  x,y,z
loop_
    _atom_site_type_symbol
    _atom_site_label
    _atom_site_fract_x
    _atom_site_fract_y
    _atom_site_fract_z
    _atom_type_partial_charge
    O   O1    0.554256  0.968600  0.992360  -0.611073
    O   O2    0.031400  0.554257  0.992360  -0.611081
    O   O3    0.445743  0.031400  0.992360  -0.611033
    O   O4    0.968600  0.445744  0.992360  -0.611080
    O   O5    0.554256  0.031400  0.007640  -0.611124
    O   O6    0.031400  0.445744  0.007640  -0.611116
    O   O7    0.445743  0.968600  0.007640  -0.610999
    O   O8    0.968600  0.554257  0.007640  -0.611052
    O   O9    0.054257  0.468600  0.492360  -0.611042
    O   O10   0.531400  0.054256  0.492360  -0.611141
    O   O11   0.945744  0.531400  0.492360  -0.611033
    O   O12   0.468600  0.945743  0.492360  -0.611026
    O   O13   0.054257  0.531400  0.507640  -0.611069
    O   O14   0.531400  0.945743  0.507640  -0.611038
    O   O15   0.945744  0.468600  0.507640  -0.611013
    O   O16   0.468600  0.054257  0.507640  -0.611141
    C   C1    0.572102  0.000000  0.000000  0.692464
    C   C2    0.000000  0.572103  0.000000  0.692474
    C   C3    0.427897  0.000000  0.000000  0.692023
    C   C4    0.000000  0.427897  0.000000  0.692505
    C   C5    0.072103  0.500000  0.500000  0.692057
    C   C6    0.500000  0.072103  0.500000  0.692523
    C   C7    0.927898  0.500000  0.500000  0.692064
    C   C8    0.500000  0.927897  0.500000  0.692167
    O   O17   0.489925  0.968567  0.958967  -0.587473
    O   O18   0.031432  0.489926  0.958967  -0.587426
    O   O19   0.510074  0.031433  0.958967  -0.587474
    O   O20   0.968567  0.510075  0.958967  -0.587415
    O   O21   0.489925  0.031433  0.041033  -0.587505
    O   O22   0.031432  0.510075  0.041033  -0.587439
    O   O23   0.510074  0.968567  0.041033  -0.587454
    O   O24   0.968567  0.489926  0.041033  -0.587430
    O   O25   0.989926  0.468567  0.458967  -0.587486
    O   O26   0.531433  0.989925  0.458967  -0.587460
    O   O27   0.010075  0.531433  0.458967  -0.587509
    O   O28   0.468567  0.010074  0.458967  -0.587443
    O   O29   0.989926  0.531433  0.541033  -0.587502
    O   O30   0.531433  0.010074  0.541033  -0.587422
    O   O31   0.010075  0.468568  0.541033  -0.587498
    O   O32   0.468567  0.989925  0.541033  -0.587465
    C   C9    0.499999  0.000000  0.945513  0.675939
    C   C10   0.000000  0.500000  0.945513  0.675890
    C   C11   0.499999  0.000000  0.054487  0.675883
    C   C12   0.000000  0.500000  0.054487  0.675855
    C   C13   0.000000  0.500000  0.445513  0.675866
    C   C14   0.500000  0.000000  0.445513  0.675782
    C   C15   0.000000  0.500000  0.554487  0.675866
    C   C16   0.500000  0.000000  0.554487  0.675754
    Cu  Cu1   0.499999  0.962824  0.000000  0.974716
    Cu  Cu2   0.037176  0.500000  0.000000  0.974831
    Cu  Cu3   0.499999  0.037176  0.000000  0.974768
    Cu  Cu4   0.962824  0.500000  0.000000  0.974745
    Cu  Cu5   0.000000  0.462824  0.500000  0.974778
    Cu  Cu6   0.537176  0.000000  0.500000  0.974917
    Cu  Cu7   0.000000  0.537176  0.500000  0.974800
    Cu  Cu8   0.462824  0.000000  0.500000  0.974758
    C   C17   0.522715  0.024327  0.690601  0.482202
    C   C18   0.975673  0.522715  0.690601  0.482179
    C   C19   0.477285  0.975673  0.690601  0.482141
    C   C20   0.024327  0.477285  0.690601  0.482166
    C   C21   0.522715  0.975673  0.309399  0.482205
    C   C22   0.975673  0.477285  0.309399  0.482170
    C   C23   0.477285  0.024327  0.309399  0.482201
    C   C24   0.024327  0.522715  0.309399  0.482243
    C   C25   0.022715  0.524327  0.190601  0.482259
    C   C26   0.475673  0.022715  0.190601  0.482179
    C   C27   0.977285  0.475673  0.190601  0.482178
    C   C28   0.524326  0.977285  0.190601  0.482171
    C   C29   0.022715  0.475673  0.809399  0.482229
    C   C30   0.475673  0.977285  0.809399  0.482127
    C   C31   0.977285  0.524327  0.809399  0.482226
    C   C32   0.524326  0.022715  0.809399  0.482230
    N   N1    0.500000  0.000000  0.676161  -0.168644
    N   N2    0.000000  0.500000  0.676161  -0.168660
    N   N3    0.500000  0.000000  0.323839  -0.168696
    N   N4    0.000000  0.500000  0.323839  -0.168690
    N   N5    0.000000  0.500000  0.176161  -0.168707
    N   N6    0.500000  0.000000  0.176161  -0.168631
    N   N7    0.000000  0.500000  0.823839  -0.168717
    N   N8    0.500000  0.000000  0.823839  -0.168660
    C   C33   0.476471  0.975867  0.720295  -0.137290
    C   C34   0.024133  0.476472  0.720295  -0.137274
    C   C35   0.523528  0.024133  0.720296  -0.137292
    C   C36   0.975867  0.523529  0.720295  -0.137288
    C   C37   0.476471  0.024133  0.279705  -0.137289
    C   C38   0.024133  0.523528  0.279705  -0.137300
    C   C39   0.523528  0.975867  0.279705  -0.137290
    C   C40   0.975867  0.476472  0.279705  -0.137271
    C   C41   0.976471  0.475867  0.220295  -0.137289
    C   C42   0.524133  0.976472  0.220295  -0.137280
    C   C43   0.023528  0.524133  0.220295  -0.137322
    C   C44   0.475866  0.023528  0.220296  -0.137274
    C   C45   0.976471  0.524133  0.779705  -0.137309
    C   C46   0.524133  0.023528  0.779705  -0.137285
    C   C47   0.023528  0.475867  0.779705  -0.137310
    C   C48   0.475866  0.976472  0.779705  -0.137231
    C   C49   0.500000  0.000000  0.735185  0.099857
    C   C50   0.000000  0.500000  0.735185  0.099838
    C   C51   0.500000  0.000000  0.264816  0.099831
    C   C52   0.000000  0.500000  0.264815  0.099832
    C   C53   0.000000  0.500000  0.235185  0.099846
    C   C54   0.500000  0.000000  0.235185  0.099820
    C   C55   0.000000  0.500000  0.764815  0.099830
    C   C56   0.500000  0.000000  0.764816  0.099789
    C   C57   0.452459  0.951895  0.735206  -0.050526
    C   C58   0.048105  0.452459  0.735206  -0.050555
    C   C59   0.547541  0.048105  0.735206  -0.050546
    C   C60   0.951895  0.547541  0.735206  -0.050526
    C   C61   0.452459  0.048105  0.264794  -0.050535
    C   C62   0.048105  0.547541  0.264794  -0.050545
    C   C63   0.547541  0.951895  0.264794  -0.050552
    C   C64   0.951895  0.452459  0.264794  -0.050555
    C   C65   0.952459  0.451895  0.235206  -0.050540
    C   C66   0.548105  0.952459  0.235206  -0.050542
    C   C67   0.047541  0.548105  0.235206  -0.050549
    C   C68   0.451895  0.047541  0.235206  -0.050555
    C   C69   0.952459  0.548105  0.764794  -0.050555
    C   C70   0.548105  0.047541  0.764794  -0.050559
    C   C71   0.047541  0.451895  0.764794  -0.050550
    C   C72   0.451895  0.952459  0.764794  -0.050574
    O   O33   0.544004  0.049519  0.676085  -0.515545
    O   O34   0.950481  0.544004  0.676085  -0.515540
    O   O35   0.455996  0.950481  0.676085  -0.515512
    O   O36   0.049519  0.455996  0.676085  -0.515533
    O   O37   0.544004  0.950481  0.323915  -0.515541
    O   O38   0.950481  0.455996  0.323915  -0.515536
    O   O39   0.455996  0.049519  0.323915  -0.515557
    O   O40   0.049519  0.544004  0.323915  -0.515567
    O   O41   0.044004  0.549519  0.176085  -0.515566
    O   O42   0.450481  0.044004  0.176085  -0.515548
    O   O43   0.955996  0.450481  0.176085  -0.515539
    O   O44   0.549519  0.955996  0.176085  -0.515550
    O   O45   0.044004  0.450481  0.823915  -0.515556
    O   O46   0.450480  0.955996  0.823915  -0.515543
    O   O47   0.955996  0.549519  0.823915  -0.515549
    O   O48   0.549519  0.044004  0.823915  -0.515581
    H   H1    0.433596  0.932686  0.724089  0.136662
    H   H2    0.067314  0.433596  0.724089  0.136676
    H   H3    0.566404  0.067314  0.724089  0.136673
    H   H4    0.932686  0.566404  0.724089  0.136665
    H   H5    0.433596  0.067314  0.275911  0.136678
    H   H6    0.067314  0.566404  0.275911  0.136678
    H   H7    0.566404  0.932686  0.275911  0.136676
    H   H8    0.932686  0.433596  0.275911  0.136678
    H   H9    0.933596  0.432686  0.224089  0.136673
    H   H10   0.567314  0.933596  0.224089  0.136680
    H   H11   0.066404  0.567315  0.224089  0.136676
    H   H12   0.432685  0.066404  0.224090  0.136682
    H   H13   0.933596  0.567315  0.775911  0.136690
    H   H14   0.567314  0.066404  0.775911  0.136693
    H   H15   0.066404  0.432686  0.775911  0.136689
    H   H16   0.432685  0.933596  0.775911  0.136697
    C   C73   0.999999  0.071863  0.000000  0.877662
    C   C74   0.928137  0.000000  0.000000  0.877798
    C   C75   0.999999  0.928138  0.000000  0.877806
    C   C76   0.071862  0.000000  0.000000  0.877713
    C   C77   0.500000  0.571862  0.500000  0.877743
    C   C78   0.428138  0.500000  0.500000  0.877811
    C   C79   0.500000  0.428138  0.500000  0.877793
    C   C80   0.571863  0.500000  0.500000  0.877791
    C   C81   0.495878  0.033615  0.869574  -0.188732
    C   C82   0.966385  0.495879  0.869574  -0.188621
    C   C83   0.504121  0.966385  0.869574  -0.188710
    C   C84   0.033615  0.504121  0.869574  -0.188636
    C   C85   0.495878  0.966385  0.130426  -0.188686
    C   C86   0.966385  0.504121  0.130426  -0.188621
    C   C87   0.504121  0.033615  0.130426  -0.188708
    C   C88   0.033615  0.495879  0.130426  -0.188658
    C   C89   0.995879  0.533615  0.369574  -0.188687
    C   C90   0.466385  0.995879  0.369574  -0.188650
    C   C91   0.004121  0.466385  0.369574  -0.188646
    C   C92   0.533615  0.004121  0.369574  -0.188687
    C   C93   0.995879  0.466385  0.630426  -0.188633
    C   C94   0.466385  0.004121  0.630426  -0.188619
    C   C95   0.004121  0.533615  0.630426  -0.188634
    C   C96   0.533615  0.995879  0.630426  -0.188635
    H   H17   0.491913  0.060098  0.858231  0.148368
    H   H18   0.939902  0.491914  0.858230  0.148345
    H   H19   0.508086  0.939902  0.858231  0.148360
    H   H20   0.060098  0.508087  0.858231  0.148351
    H   H21   0.491913  0.939902  0.141770  0.148352
    H   H22   0.939902  0.508086  0.141770  0.148347
    H   H23   0.508086  0.060098  0.141770  0.148359
    H   H24   0.060098  0.491914  0.141769  0.148359
    H   H25   0.991914  0.560098  0.358231  0.148361
    H   H26   0.439902  0.991914  0.358231  0.148354
    H   H27   0.008087  0.439902  0.358231  0.148344
    H   H28   0.560098  0.008086  0.358231  0.148361
    H   H29   0.991914  0.439902  0.641769  0.148351
    H   H30   0.439902  0.008086  0.641770  0.148338
    H   H31   0.008087  0.560098  0.641769  0.148351
    H   H32   0.560098  0.991914  0.641770  0.148351
    C   C97   0.496494  0.033692  0.899178  -0.029527
    C   C98   0.966308  0.496494  0.899178  -0.029614
    C   C99   0.503505  0.966308  0.899178  -0.029541
    C   C100  0.033692  0.503506  0.899178  -0.029593
    C   C101  0.496494  0.966308  0.100822  -0.029566
    C   C102  0.966308  0.503506  0.100822  -0.029609
    C   C103  0.503505  0.033692  0.100822  -0.029554
    C   C104  0.033692  0.496494  0.100822  -0.029584
    C   C105  0.996494  0.533692  0.399178  -0.029649
    C   C106  0.466308  0.996494  0.399178  -0.029660
    C   C107  0.003506  0.466308  0.399178  -0.029677
    C   C108  0.533692  0.003506  0.399178  -0.029630
    C   C109  0.996494  0.466308  0.600822  -0.029680
    C   C110  0.466308  0.003506  0.600822  -0.029669
    C   C111  0.003506  0.533692  0.600822  -0.029667
    C   C112  0.533692  0.996494  0.600822  -0.029653
    H   H33   0.493224  0.060281  0.910493  0.105457
    H   H34   0.939718  0.493225  0.910493  0.105473
    H   H35   0.506774  0.939719  0.910493  0.105476
    H   H36   0.060281  0.506775  0.910493  0.105465
    H   H37   0.493224  0.939719  0.089508  0.105468
    H   H38   0.939718  0.506775  0.089508  0.105471
    H   H39   0.506774  0.060281  0.089508  0.105478
    H   H40   0.060281  0.493225  0.089508  0.105464
    H   H41   0.993225  0.560281  0.410493  0.105491
    H   H42   0.439719  0.993225  0.410493  0.105487
    H   H43   0.006775  0.439719  0.410493  0.105495
    H   H44   0.560281  0.006775  0.410493  0.105488
    H   H45   0.993225  0.439719  0.589508  0.105495
    H   H46   0.439719  0.006775  0.589508  0.105497
    H   H47   0.006775  0.560281  0.589508  0.105488
    H   H48   0.560281  0.993225  0.589508  0.105480
    C   C113  0.499999  0.000000  0.914097  -0.090739
    C   C114  0.000000  0.500000  0.914097  -0.090695
    C   C115  0.499999  0.000000  0.085904  -0.090671
    C   C116  0.000000  0.500000  0.085903  -0.090673
    C   C117  0.000000  0.500000  0.414097  -0.090511
    C   C118  0.500000  0.000000  0.414097  -0.090526
    C   C119  0.000000  0.500000  0.585903  -0.090502
    C   C120  0.500000  0.000000  0.585904  -0.090495
    C   C121  0.499999  0.000000  0.854566  0.233693
    C   C122  0.000000  0.500000  0.854566  0.233623
    C   C123  0.499999  0.000000  0.145435  0.233642
    C   C124  0.000000  0.500000  0.145434  0.233626
    C   C125  0.000000  0.500000  0.354566  0.233656
    C   C126  0.500000  0.000000  0.354566  0.233672
    C   C127  0.000000  0.500000  0.645434  0.233602
    C   C128  0.500000  0.000000  0.645435  0.233599
    C   C129  0.827356  0.012012  0.023946  -0.495312
    C   C130  0.987988  0.827357  0.023946  -0.495248
    C   C131  0.172643  0.987989  0.023946  -0.495186
    C   C132  0.012011  0.172643  0.023946  -0.495249
    C   C133  0.827356  0.987989  0.976054  -0.495222
    C   C134  0.987988  0.172643  0.976054  -0.495237
    C   C135  0.172643  0.012012  0.976054  -0.495195
    C   C136  0.012011  0.827357  0.976054  -0.495214
    C   C137  0.327357  0.512011  0.523946  -0.495322
    C   C138  0.487989  0.327357  0.523946  -0.495326
    C   C139  0.672644  0.487989  0.523946  -0.495252
    C   C140  0.512012  0.672643  0.523946  -0.495365
    C   C141  0.327357  0.487988  0.476054  -0.495314
    C   C142  0.487989  0.672643  0.476054  -0.495265
    C   C143  0.672644  0.512011  0.476054  -0.495197
    C   C144  0.512012  0.327357  0.476054  -0.495315
    H   H49   0.811426  0.021620  0.042417  0.181957
    H   H50   0.978380  0.811427  0.042417  0.181924
    H   H51   0.188573  0.978380  0.042417  0.181917
    H   H52   0.021619  0.188573  0.042417  0.181919
    H   H53   0.811426  0.978380  0.957583  0.181930
    H   H54   0.978380  0.188574  0.957583  0.181927
    H   H55   0.188573  0.021620  0.957584  0.181942
    H   H56   0.021619  0.811427  0.957583  0.181908
    H   H57   0.311427  0.521620  0.542417  0.181950
    H   H58   0.478380  0.311427  0.542417  0.181943
    H   H59   0.688574  0.478380  0.542417  0.181930
    H   H60   0.521620  0.688573  0.542417  0.181975
    H   H61   0.311427  0.478380  0.457583  0.181958
    H   H62   0.478380  0.688573  0.457583  0.181947
    H   H63   0.688574  0.521620  0.457583  0.181907
    H   H64   0.521620  0.311427  0.457583  0.181933
    C   C145  0.866593  0.012218  0.024058  0.501481
    C   C146  0.987781  0.866594  0.024058  0.501451
    C   C147  0.133406  0.987782  0.024058  0.501392
    C   C148  0.012217  0.133406  0.024058  0.501432
    C   C149  0.866593  0.987782  0.975942  0.501390
    C   C150  0.987781  0.133406  0.975942  0.501420
    C   C151  0.133406  0.012218  0.975942  0.501342
    C   C152  0.012217  0.866594  0.975942  0.501410
    C   C153  0.366594  0.512218  0.524058  0.501483
    C   C154  0.487782  0.366594  0.524058  0.501480
    C   C155  0.633407  0.487782  0.524058  0.501439
    C   C156  0.512218  0.633406  0.524058  0.501467
    C   C157  0.366594  0.487782  0.475942  0.501468
    C   C158  0.487782  0.633406  0.475942  0.501383
    C   C159  0.633407  0.512218  0.475942  0.501395
    C   C160  0.512218  0.366594  0.475942  0.501469
    C   C161  0.886428  0.000000  0.000000  -0.445198
    C   C162  0.999999  0.886429  0.000000  -0.445205
    C   C163  0.113571  0.000000  0.000000  -0.445107
    C   C164  0.999999  0.113572  0.000000  -0.445111
    C   C165  0.386429  0.500000  0.500000  -0.445241
    C   C166  0.500000  0.386429  0.500000  -0.445248
    C   C167  0.613572  0.500000  0.500000  -0.445174
    C   C168  0.500000  0.613571  0.500000  -0.445159
    O   O49   0.010423  0.053987  0.976313  -0.591314
    O   O50   0.946013  0.010424  0.976313  -0.591358
    O   O51   0.989576  0.946014  0.976314  -0.591355
    O   O52   0.053986  0.989577  0.976313  -0.591307
    O   O53   0.010423  0.946014  0.023687  -0.591325
    O   O54   0.946013  0.989577  0.023687  -0.591346
    O   O55   0.989576  0.053987  0.023687  -0.591340
    O   O56   0.053986  0.010424  0.023687  -0.591289
    O   O57   0.510424  0.553986  0.476314  -0.591349
    O   O58   0.446014  0.510423  0.476313  -0.591355
    O   O59   0.489577  0.446013  0.476313  -0.591356
    O   O60   0.553987  0.489576  0.476314  -0.591364
    O   O61   0.510424  0.446013  0.523687  -0.591395
    O   O62   0.446014  0.489576  0.523687  -0.591413
    O   O63   0.489577  0.553986  0.523687  -0.591409
    O   O64   0.553987  0.510423  0.523687  -0.591397
    C   C169  0.807889  0.000000  0.000000  0.324431
    C   C170  0.999999  0.807889  0.000000  0.324297
    C   C171  0.192110  0.000000  0.000000  0.324269
    C   C172  0.999999  0.192111  0.000000  0.324285
    C   C173  0.307890  0.500000  0.500000  0.324487
    C   C174  0.500000  0.307889  0.500000  0.324480
    C   C175  0.692111  0.500000  0.500000  0.324289
    C   C176  0.500000  0.692111  0.500000  0.324479
    C   C177  0.767169  0.000000  0.000000  -0.049125
    C   C178  0.000000  0.767170  0.000000  -0.048844
    C   C179  0.232829  0.000000  0.000000  -0.048872
    C   C180  0.000000  0.232830  0.000000  -0.048814
    C   C181  0.267170  0.500000  0.500000  -0.049158
    C   C182  0.500000  0.267170  0.500000  -0.049095
    C   C183  0.732830  0.500000  0.500000  -0.048820
    C   C184  0.500000  0.732830  0.500000  -0.049138
    C   C185  0.732970  0.000000  0.000000  -0.254969
    C   C186  0.000000  0.732971  0.000000  -0.255319
    C   C187  0.267028  0.000000  0.000000  -0.255270
    C   C188  0.000000  0.267029  0.000000  -0.255355
    C   C189  0.232971  0.500000  0.500000  -0.254927
    C   C190  0.500000  0.232971  0.500000  -0.255001
    C   C191  0.767029  0.500000  0.500000  -0.255327
    C   C192  0.500000  0.767029  0.500000  -0.254947
    C   C193  0.672684  0.032098  0.008133  -0.221915
    C   C194  0.967902  0.672685  0.008133  -0.221803
    C   C195  0.327314  0.967902  0.008133  -0.221709
    C   C196  0.032097  0.327315  0.008133  -0.221802
    C   C197  0.672684  0.967902  0.991867  -0.221658
    C   C198  0.967902  0.327315  0.991867  -0.221786
    C   C199  0.327314  0.032098  0.991867  -0.221749
    C   C200  0.032097  0.672685  0.991867  -0.221815
    C   C201  0.172685  0.532098  0.508133  -0.221876
    C   C202  0.467902  0.172685  0.508133  -0.221899
    C   C203  0.827315  0.467902  0.508133  -0.221733
    C   C204  0.532098  0.827315  0.508133  -0.221856
    C   C205  0.172685  0.467902  0.491867  -0.221621
    C   C206  0.467902  0.827315  0.491867  -0.221605
    C   C207  0.827315  0.532098  0.491867  -0.221759
    C   C208  0.532098  0.172685  0.491867  -0.221685
    H   H65   0.688057  0.057281  0.014518  0.143021
    H   H66   0.942718  0.688058  0.014518  0.142948
    H   H67   0.311942  0.942719  0.014518  0.142954
    H   H68   0.057281  0.311942  0.014518  0.142954
    H   H69   0.688057  0.942719  0.985482  0.142914
    H   H70   0.942718  0.311943  0.985482  0.142942
    H   H71   0.311942  0.057281  0.985482  0.142967
    H   H72   0.057281  0.688058  0.985482  0.142956
    H   H73   0.188058  0.557281  0.514518  0.143020
    H   H74   0.442719  0.188058  0.514518  0.143010
    H   H75   0.811943  0.442719  0.514518  0.142952
    H   H76   0.557281  0.811942  0.514518  0.143016
    H   H77   0.188058  0.442719  0.485482  0.142918
    H   H78   0.442719  0.811942  0.485482  0.142911
    H   H79   0.811943  0.557281  0.485482  0.142964
    H   H80   0.557281  0.188057  0.485482  0.142924
    C   C209  0.633542  0.032172  0.008148  -0.092081
    C   C210  0.967827  0.633543  0.008148  -0.092113
    C   C211  0.366456  0.967828  0.008148  -0.092371
    C   C212  0.032172  0.366457  0.008148  -0.092132
    C   C213  0.633542  0.967828  0.991852  -0.092124
    C   C214  0.967827  0.366457  0.991852  -0.092136
    C   C215  0.366457  0.032172  0.991853  -0.092359
    C   C216  0.032172  0.633543  0.991852  -0.092101
    C   C217  0.133543  0.532172  0.508148  -0.092291
    C   C218  0.467828  0.133543  0.508148  -0.092100
    C   C219  0.866457  0.467828  0.508148  -0.092359
    C   C220  0.532172  0.866457  0.508148  -0.092293
    C   C221  0.133543  0.467828  0.491852  -0.092352
    C   C222  0.467828  0.866457  0.491853  -0.092343
    C   C223  0.866457  0.532172  0.491852  -0.092340
    C   C224  0.532173  0.133543  0.491852  -0.092136
    H   H81   0.618817  0.057683  0.014623  0.129820
    H   H82   0.942317  0.618818  0.014623  0.129814
    H   H83   0.381181  0.942317  0.014623  0.129863
    H   H84   0.057682  0.381182  0.014623  0.129824
    H   H85   0.618817  0.942317  0.985377  0.129798
    H   H86   0.942317  0.381182  0.985377  0.129826
    H   H87   0.381181  0.057683  0.985377  0.129866
    H   H88   0.057682  0.618819  0.985377  0.129808
    H   H89   0.118818  0.557683  0.514623  0.129875
    H   H90   0.442317  0.118818  0.514623  0.129838
    H   H91   0.881182  0.442317  0.514623  0.129865
    H   H92   0.557683  0.881182  0.514623  0.129876
    H   H93   0.118818  0.442317  0.485377  0.129858
    H   H94   0.442317  0.881182  0.485377  0.129856
    H   H95   0.881182  0.557683  0.485377  0.129865
    H   H96   0.557683  0.118818  0.485377  0.129824
    C   C225  0.613731  0.000000  0.000000  -0.038428
    C   C226  0.000000  0.613732  0.000000  -0.038463
    C   C227  0.386268  0.000000  0.000000  -0.037898
    C   C228  0.000000  0.386268  0.000000  -0.038457
    C   C229  0.113732  0.500000  0.500000  -0.037890
    C   C230  0.500000  0.113732  0.500000  -0.038435
    C   C231  0.886269  0.500000  0.500000  -0.037926
    C   C232  0.500000  0.886268  0.500000  -0.037964
    C   C233  0.692248  0.000000  0.000000  0.351500
    C   C234  0.000000  0.692249  0.000000  0.351768
    C   C235  0.307750  0.000000  0.000000  0.351660
    C   C236  0.000000  0.307751  0.000000  0.351788
    C   C237  0.192249  0.500000  0.500000  0.351435
    C   C238  0.500000  0.192249  0.500000  0.351536
    C   C239  0.807751  0.500000  0.500000  0.351708
    C   C240  0.500000  0.807751  0.500000  0.351440
    Cu  Cu9   0.999999  0.000000  0.971936  0.895635
    Cu  Cu10  0.999999  0.000000  0.028064  0.895778
    Cu  Cu11  0.500000  0.500000  0.471936  0.895824
    Cu  Cu12  0.500000  0.500000  0.528064  0.895606
    N   N9    0.886456  0.026405  0.048523  -0.704473
    H   H97   0.866812  0.033159  0.064496  0.313736
    H   H98   0.899951  0.051547  0.042420  0.267014
    N   N10   0.973595  0.886457  0.048523  -0.704451
    H   H99   0.966841  0.866813  0.064496  0.313739
    H   H100  0.948452  0.899952  0.042420  0.267000
    N   N11   0.113542  0.973595  0.048523  -0.704514
    H   H101  0.133186  0.966842  0.064496  0.313762
    H   H102  0.100048  0.948453  0.042421  0.267034
    N   N12   0.026404  0.113543  0.048523  -0.704398
    H   H103  0.033158  0.133187  0.064496  0.313709
    H   H104  0.051546  0.100049  0.042420  0.267007
    N   N13   0.886456  0.973595  0.951477  -0.704388
    H   H105  0.866812  0.966841  0.935504  0.313709
    H   H106  0.899951  0.948453  0.957580  0.266995
    N   N14   0.973595  0.113543  0.951477  -0.704399
    H   H107  0.966841  0.133187  0.935504  0.313709
    H   H108  0.948452  0.100049  0.957580  0.266996
    N   N15   0.113542  0.026405  0.951477  -0.704345
    H   H109  0.133186  0.033159  0.935504  0.313677
    H   H110  0.100048  0.051547  0.957580  0.267001
    N   N16   0.026404  0.886457  0.951477  -0.704360
    H   H111  0.033158  0.866813  0.935504  0.313693
    H   H112  0.051546  0.899952  0.957580  0.266997
    N   N17   0.386457  0.526405  0.548523  -0.704464
    H   H113  0.366813  0.533158  0.564496  0.313743
    H   H114  0.399952  0.551547  0.542420  0.267016
    N   N18   0.473596  0.386457  0.548523  -0.704431
    H   H115  0.466842  0.366813  0.564496  0.313731
    H   H116  0.448453  0.399951  0.542420  0.266999
    N   N19   0.613543  0.473595  0.548523  -0.704516
    H   H117  0.633187  0.466842  0.564496  0.313767
    H   H118  0.600049  0.448453  0.542420  0.267033
    N   N20   0.526405  0.613543  0.548523  -0.704429
    H   H119  0.533159  0.633187  0.564496  0.313730
    H   H120  0.551547  0.600049  0.542420  0.267009
    N   N21   0.386457  0.473595  0.451477  -0.704462
    H   H121  0.366813  0.466842  0.435504  0.313733
    H   H122  0.399952  0.448453  0.457580  0.267026
    N   N22   0.473596  0.613543  0.451477  -0.704339
    H   H123  0.466842  0.633187  0.435504  0.313693
    H   H124  0.448453  0.600048  0.457580  0.266983
    N   N23   0.613543  0.526405  0.451477  -0.704415
    H   H125  0.633187  0.533158  0.435504  0.313714
    H   H126  0.600049  0.551547  0.457580  0.267018
    N   N24   0.526405  0.386457  0.451477  -0.704397
    H   H127  0.533159  0.366813  0.435504  0.313707
    H   H128  0.551547  0.399951  0.457580  0.267013
