# Generated by REPEAT Assigner based on pymatgen
data_DB0-m3_o16_o150_f0_fsc.sym.70_sqe
_audit_creation_date              2022-05-24
_audit_creation_method            REPEAT_Assigner
_cell_length_a                    12.112827
_cell_length_b                    8.546128
_cell_length_c                    15.099592
_cell_angle_alpha                 90.000000
_cell_angle_beta                  109.420707
_cell_angle_gamma                 90.000000
_cell_volume                      1474.140972
_symmetry_space_group_name_H-M    P1
_symmetry_Int_Tables_number       1
loop_
    _symmetry_equiv_pos_site_id
    _symmetry_equiv_pos_as_xyz
    1  x,y,z
loop_
    _atom_site_type_symbol
    _atom_site_label
    _atom_site_fract_x
    _atom_site_fract_y
    _atom_site_fract_z
    _atom_type_partial_charge
    H   H1   0.050635  0.999396  0.574700  0.171271
    C   C1   0.020066  0.139034  0.679951  -0.010390
    C   C2   0.018916  0.860254  0.679714  -0.004502
    C   C3   0.004360  0.140135  0.766279  -0.246130
    C   C4   0.002893  0.859391  0.765969  -0.249356
    H   H2   0.994166  0.250537  0.797551  0.109305
    H   H3   0.997296  0.748549  0.798507  0.117115
    C   C5   0.001515  0.999904  0.811819  0.171428
    C   C6   0.034430  0.999525  0.640429  -0.182980
    C   C7   0.941215  0.885390  0.939451  -0.080335
    H   H4   0.890779  0.797284  0.891770  0.096519
    C   C8   0.943355  0.884371  0.031340  -0.299547
    H   H5   0.893823  0.796053  0.052975  0.177257
    C   C9   0.003758  0.998500  0.093521  0.196162
    C   C10  0.061883  0.113995  0.062542  -0.195228
    H   H6   0.112312  0.202120  0.110213  0.107173
    C   C11  0.059745  0.115013  0.970652  -0.094731
    H   H7   0.109271  0.203341  0.949017  0.100793
    C   C12  0.999369  0.000848  0.908471  0.020627
    C   C13  0.000173  0.139925  0.235983  -0.256961
    C   C14  0.998735  0.859124  0.235666  -0.261324
    H   H8   0.005787  0.250764  0.203451  0.149067
    H   H9   0.009005  0.748760  0.204399  0.131881
    C   C15  0.984047  0.139127  0.322195  0.074672
    C   C16  0.982894  0.860084  0.321947  0.062892
    C   C17  0.968454  0.999723  0.361460  -0.276596
    H   H10  0.952075  0.999873  0.427126  0.112201
    C   C18  0.001594  0.999402  0.190155  0.067171
    O   O1   0.109876  0.669301  0.612818  -0.744243
    O   O2   0.110372  0.330398  0.612842  -0.747308
    O   O3   0.909235  0.663417  0.576491  -0.707936
    O   O4   0.909709  0.335031  0.576487  -0.714235
    C   C19  0.013162  0.718218  0.624690  0.831390
    C   C20  0.013814  0.280849  0.624696  0.849693
    O   O5   0.892515  0.668341  0.388988  -0.633816
    O   O6   0.893007  0.330404  0.389016  -0.618894
    O   O7   0.093328  0.663177  0.424888  -0.765502
    O   O8   0.093790  0.336799  0.424901  -0.761651
    C   C21  0.989143  0.717964  0.377104  0.883626
    C   C22  0.989788  0.281431  0.377117  0.849740
    Zn  Zn1  0.870834  0.499232  0.474775  0.948328
    Zn  Zn2  0.131383  0.499991  0.527013  1.113104
    C   C23  0.462710  0.500577  0.685424  -0.241185
    H   H11  0.295520  0.501449  0.702064  0.157264
    H   H12  0.688359  0.499703  0.732284  0.162468
    H   H13  0.508806  0.500865  0.760238  0.139788
    N   N1   0.284472  0.500378  0.559970  0.130851
    C   C24  0.660246  0.498785  0.347449  -0.030824
    C   C25  0.540615  0.498783  0.311616  -0.012031
    C   C26  0.475000  0.498976  0.369433  -0.144879
    C   C27  0.529762  0.499147  0.465752  0.075862
    C   C28  0.652657  0.498961  0.501058  0.055248
    C   C29  0.464493  0.499593  0.527437  -0.004657
    C   C30  0.523353  0.499911  0.622988  0.297149
    C   C31  0.643086  0.499546  0.657346  -0.289566
    C   C32  0.707000  0.499011  0.597735  -0.106415
    C   C33  0.341852  0.499762  0.497238  -0.156933
    C   C34  0.342872  0.500901  0.652745  -0.108573
    N   N2   0.717122  0.498833  0.441697  0.098153
    H   H14  0.288479  0.499359  0.424596  0.144377
    H   H15  0.381975  0.499017  0.335210  0.164699
    H   H16  0.497572  0.498828  0.236388  0.050038
    H   H17  0.799411  0.498726  0.631150  0.194937
    I   I1   0.743381  0.498965  0.244438  -0.065519
