# Generated by REPEAT Assigner based on pymatgen
data_DB0-m2_o24_o26_f0_pcu.sym.106_sqe
_audit_creation_date              2022-05-24
_audit_creation_method            REPEAT_Assigner
_cell_length_a                    9.373587
_cell_length_b                    10.690072
_cell_length_c                    17.414477
_cell_angle_alpha                 89.997119
_cell_angle_beta                  86.205915
_cell_angle_gamma                 90.003080
_cell_volume                      1741.181287
_symmetry_space_group_name_H-M    P1
_symmetry_Int_Tables_number       1
loop_
    _symmetry_equiv_pos_site_id
    _symmetry_equiv_pos_as_xyz
    1  x,y,z
loop_
    _atom_site_type_symbol
    _atom_site_label
    _atom_site_fract_x
    _atom_site_fract_y
    _atom_site_fract_z
    _atom_type_partial_charge
    O   O1   0.382011  0.683231  0.495670  -0.560240
    O   O2   0.617989  0.316769  0.504330  -0.560205
    O   O3   0.626449  0.680246  0.501810  -0.597377
    O   O4   0.373551  0.319754  0.498191  -0.597457
    C   C1   0.504972  0.740042  0.498532  0.613168
    C   C2   0.495028  0.259958  0.501468  0.613085
    O   O5   0.363263  0.499483  0.611414  -0.422391
    O   O6   0.636737  0.500517  0.388587  -0.422360
    O   O7   0.608182  0.504731  0.612233  -0.577219
    O   O8   0.391818  0.495269  0.387767  -0.577332
    C   C3   0.480672  0.503820  0.648174  0.593954
    C   C4   0.519327  0.496180  0.351827  0.593951
    Cu  Cu1  0.357365  0.501965  0.499558  0.759782
    Cu  Cu2  0.642635  0.498035  0.500442  0.758543
    C   C5   0.470357  0.504747  0.732988  -0.076068
    C   C6   0.529642  0.495253  0.267012  -0.075948
    C   C7   0.587751  0.468457  0.771659  -0.074055
    C   C8   0.412249  0.531543  0.228341  -0.074087
    C   C9   0.581842  0.465854  0.851016  -0.217186
    C   C10  0.418158  0.534146  0.148985  -0.217173
    C   C11  0.458121  0.501232  0.893302  0.306524
    C   C12  0.541879  0.498768  0.106698  0.306503
    C   C13  0.340998  0.537236  0.854810  -0.293189
    C   C14  0.659002  0.462764  0.145191  -0.293143
    C   C15  0.346193  0.540136  0.775548  0.123157
    C   C16  0.653806  0.459864  0.224453  0.123027
    C   C17  0.443870  0.499059  0.978134  -0.223744
    C   C18  0.556130  0.500941  0.021866  -0.223735
    H   H1   0.685102  0.438720  0.740215  0.133349
    H   H2   0.314897  0.561279  0.259785  0.133365
    H   H3   0.663667  0.503181  0.995408  0.147675
    H   H4   0.336333  0.496819  0.004592  0.147685
    H   H5   0.243798  0.565615  0.886982  0.154500
    H   H6   0.756201  0.434385  0.113018  0.154494
    H   H7   0.325574  0.567706  0.121672  0.139972
    H   H8   0.674426  0.432294  0.878328  0.139985
    C   C19  0.428502  0.958202  0.441809  -0.294182
    C   C20  0.571498  0.041798  0.558191  -0.294500
    C   C21  0.558032  0.042944  0.436162  0.289020
    C   C22  0.441967  0.957056  0.563838  0.289349
    H   H9   0.372202  0.922077  0.392342  0.108258
    H   H10  0.627798  0.077923  0.607658  0.108314
    C   C23  0.494918  0.120848  0.501572  0.111264
    C   C24  0.505081  0.879152  0.498428  0.110885
    C   C25  0.364208  0.037493  0.508477  0.004892
    C   C26  0.635792  0.962507  0.491523  0.005175
    H   H11  0.251976  0.070084  0.517070  0.049690
    H   H12  0.748024  0.929916  0.482931  0.049647
    C   C27  0.957991  0.393881  0.481884  0.128353
    C   C28  0.042009  0.606118  0.518117  0.129345
    C   C29  0.048080  0.424671  0.546359  0.099700
    C   C30  0.951919  0.575329  0.453641  0.098725
    N   N1   0.143909  0.505489  0.499166  0.069949
    N   N2   0.856091  0.494511  0.500835  0.071354
    C   C31  0.059793  0.474409  0.433492  -0.014797
    C   C32  0.940206  0.525591  0.566509  -0.015806
    H   H13  0.110877  0.452599  0.375824  0.089213
    H   H14  0.889122  0.547401  0.624176  0.089355
    C   C33  0.913404  0.267426  0.462376  0.170849
    N   N3   0.878936  0.167107  0.446996  -0.266550
    C   C34  0.086595  0.732574  0.537625  0.170653
    N   N4   0.121064  0.832893  0.553004  -0.266506
    C   C35  0.777549  0.414707  0.260248  0.272772
    N   N5   0.877242  0.378120  0.288975  -0.388477
    C   C36  0.222450  0.585293  0.739752  0.272708
    N   N6   0.122758  0.621880  0.711025  -0.388449
    C   C37  0.621341  0.094587  0.363926  0.138904
    N   N7   0.671408  0.135426  0.306800  -0.366914
    C   C38  0.378659  0.905413  0.636074  0.138811
    N   N8   0.328592  0.864574  0.693200  -0.366895
    C   C39  0.103142  0.334013  0.599955  0.249309
    N   N9   0.146682  0.262324  0.642345  -0.381337
    C   C40  0.896858  0.665987  0.400045  0.249489
    N   N10  0.853318  0.737675  0.357656  -0.381379
