# Generated by REPEAT Assigner based on pymatgen
data_DB0-m3_o4_o17_f0_pcu.sym.25
_audit_creation_date              2022-05-24
_audit_creation_method            REPEAT_Assigner
_cell_length_a                    15.041262
_cell_length_b                    10.971695
_cell_length_c                    9.838060
_cell_angle_alpha                 90.004528
_cell_angle_beta                  90.000174
_cell_angle_gamma                 90.006152
_cell_volume                      1623.556751
_symmetry_space_group_name_H-M    P1
_symmetry_Int_Tables_number       1
loop_
    _symmetry_equiv_pos_site_id
    _symmetry_equiv_pos_as_xyz
    1  x,y,z
loop_
    _atom_site_type_symbol
    _atom_site_label
    _atom_site_fract_x
    _atom_site_fract_y
    _atom_site_fract_z
    _atom_type_partial_charge
    O   O1   0.496474  0.316171  0.619354  -0.699121
    O   O2   0.495850  0.315562  0.384500  -0.661176
    C   C1   0.496118  0.258952  0.501952  0.829180
    O   O3   0.365000  0.500038  0.618003  -0.570602
    O   O4   0.364895  0.498531  0.383120  -0.606560
    C   C2   0.323559  0.500553  0.500537  0.583474
    Zn  Zn1  0.497355  0.498025  0.655989  1.032169
    Zn  Zn2  0.497363  0.496931  0.346388  1.035652
    O   O5   0.498910  0.679531  0.617844  -0.669361
    O   O6   0.498215  0.678553  0.383109  -0.653400
    O   O7   0.629793  0.496538  0.619045  -0.620224
    O   O8   0.629663  0.495181  0.384507  -0.646179
    C   C3   0.498978  0.735825  0.500093  0.792834
    C   C4   0.671095  0.495589  0.501740  0.681672
    C   C5   0.814145  0.516005  0.621210  -0.276643
    C   C6   0.768140  0.496716  0.501596  0.025517
    C   C7   0.814145  0.479861  0.381580  -0.256589
    C   C8   0.905679  0.481594  0.381377  0.189990
    C   C9   0.951413  0.501378  0.500777  -0.005161
    C   C10  0.905679  0.518984  0.620571  0.208068
    C   C11  0.951460  0.463465  0.261603  -0.211445
    C   C12  0.042960  0.464978  0.261345  -0.253958
    C   C13  0.088677  0.484953  0.380823  0.254673
    C   C14  0.042940  0.503301  0.500413  -0.059724
    C   C15  0.088737  0.523619  0.619602  0.229407
    C   C16  0.042985  0.542393  0.739287  -0.233563
    C   C17  0.951480  0.539702  0.739835  -0.227244
    C   C18  0.180186  0.485624  0.380669  -0.330273
    C   C19  0.226381  0.503652  0.500275  0.087402
    C   C20  0.180299  0.524503  0.619420  -0.283578
    H   H1   0.779120  0.530248  0.715773  0.144463
    H   H2   0.779122  0.464286  0.287286  0.123538
    H   H3   0.915968  0.447682  0.167690  0.138308
    H   H4   0.078479  0.450155  0.167242  0.142002
    H   H5   0.214968  0.470681  0.286376  0.147053
    H   H6   0.215245  0.542595  0.712993  0.142456
    H   H7   0.078471  0.558503  0.833155  0.145804
    H   H8   0.916003  0.553866  0.834078  0.135517
    C   C21  0.511911  0.057347  0.615214  0.289983
    C   C22  0.496078  0.125437  0.500642  -0.302010
    C   C23  0.481444  0.061042  0.380992  -0.123162
    H   H9   0.468773  0.108541  0.286840  0.123281
    C   C24  0.482479  0.934017  0.379971  -0.067454
    H   H10  0.470412  0.886987  0.285230  0.096118
    C   C25  0.498177  0.869072  0.498710  -0.251425
    C   C26  0.512740  0.936280  0.614023  0.126712
    C   C27  0.536817  0.924492  0.759531  -0.098184
    C   C28  0.536120  0.066603  0.761052  -0.317174
    H   H11  0.482579  0.883801  0.820950  0.058156
    H   H12  0.604238  0.885743  0.773964  0.086405
    H   H13  0.481856  0.103855  0.824288  0.102768
    H   H14  0.603086  0.106581  0.776373  0.093788
    C   C29  0.442410  0.427708  0.067747  0.239093
    N   N1   0.497346  0.495657  0.143027  -0.122820
    C   C30  0.554660  0.566843  0.072828  -0.067814
    H   H15  0.601221  0.623990  0.127090  0.161855
    C   C31  0.554513  0.567738  0.930384  0.289761
    N   N2   0.496522  0.497998  0.859403  -0.099885
    C   C32  0.441218  0.429908  0.934159  0.001873
    C   C33  0.366663  0.342390  0.921462  0.321806
    C   C34  0.368633  0.339029  0.080924  -0.326129
    H   H16  0.384153  0.255419  0.871590  0.047820
    H   H17  0.308422  0.379494  0.126999  0.155188
    H   H18  0.390942  0.250140  0.122140  0.129208
    F   F1   0.613018  0.639871  0.863430  -0.122917
    F   F2   0.290389  0.397462  0.873631  -0.229220
