# Generated by REPEAT Assigner based on pymatgen
data_DB0-m3_o530_o23_f0_fsc.sym.47_sqe
_audit_creation_date              2022-05-24
_audit_creation_method            REPEAT_Assigner
_cell_length_a                    18.918978
_cell_length_b                    8.550621
_cell_length_c                    14.259954
_cell_angle_alpha                 90.000000
_cell_angle_beta                  102.120149
_cell_angle_gamma                 90.000000
_cell_volume                      2255.398504
_symmetry_space_group_name_H-M    P1
_symmetry_Int_Tables_number       1
loop_
    _symmetry_equiv_pos_site_id
    _symmetry_equiv_pos_as_xyz
    1  x,y,z
loop_
    _atom_site_type_symbol
    _atom_site_label
    _atom_site_fract_x
    _atom_site_fract_y
    _atom_site_fract_z
    _atom_type_partial_charge
    C   C1   0.843636  0.896672  0.955978  0.456370
    C   C2   0.129690  0.895126  0.923371  0.472013
    N   N1   0.823001  0.986178  0.023417  -0.197126
    N   N2   0.178277  0.984834  0.982534  -0.266953
    C   C3   0.871495  0.075984  0.082702  0.448316
    C   C4   0.157906  0.073824  0.050435  0.562270
    C   C5   0.943283  0.076822  0.075537  -0.099584
    C   C6   0.086522  0.075531  0.059514  -0.218227
    C   C7   0.965040  0.985443  0.007384  0.104719
    C   C8   0.036432  0.984907  0.999334  0.147306
    C   C9   0.915013  0.894786  0.947179  -0.136355
    C   C10  0.058078  0.893745  0.931011  -0.120769
    C   C11  0.993511  0.167456  0.136424  -0.083083
    C   C12  0.064927  0.166722  0.128487  -0.007337
    C   C13  0.007906  0.802962  0.870201  -0.061573
    C   C14  0.936570  0.803478  0.878260  -0.063675
    O   O1   0.794177  0.812576  0.895207  -0.450656
    O   O2   0.150716  0.810363  0.854731  -0.490041
    O   O3   0.850193  0.161546  0.150799  -0.482327
    O   O4   0.207556  0.157627  0.111200  -0.492215
    H   H1   0.977749  0.239869  0.190675  0.131546
    H   H2   0.103269  0.238690  0.176666  0.101187
    H   H3   0.023624  0.730667  0.815868  0.129094
    H   H4   0.898250  0.731475  0.830077  0.121405
    C   C15  0.287545  0.845806  0.967522  -0.256420
    C   C16  0.712948  0.845709  0.034966  -0.312525
    H   H5   0.262042  0.736140  0.978520  0.140144
    H   H6   0.739601  0.735271  0.029708  0.145312
    C   C17  0.357386  0.846075  0.953216  0.056988
    C   C18  0.642264  0.846200  0.045944  0.036554
    C   C19  0.391005  0.985890  0.942900  -0.224082
    C   C20  0.608260  0.985895  0.055125  -0.205411
    C   C21  0.357473  0.125576  0.953894  -0.001555
    C   C22  0.642405  0.125653  0.046601  0.041916
    C   C23  0.287662  0.125866  0.968438  -0.300256
    C   C24  0.713143  0.125915  0.035619  -0.282722
    H   H7   0.261337  0.236155  0.975305  0.141446
    H   H8   0.739126  0.235531  0.025837  0.145277
    C   C25  0.251601  0.985728  0.971920  0.387687
    C   C26  0.749351  0.985804  0.032721  0.362614
    H   H9   0.446812  0.985955  0.936266  0.168907
    H   H10  0.551993  0.985896  0.059558  0.150161
    O   O5   0.422994  0.653966  0.055327  -0.598378
    O   O6   0.576853  0.653420  0.943892  -0.589348
    O   O7   0.426765  0.649815  0.894701  -0.690071
    O   O8   0.573040  0.650264  0.104571  -0.694093
    C   C27  0.401437  0.704416  0.967142  0.714607
    C   C28  0.598424  0.704271  0.032054  0.740306
    O   O9   0.576726  0.317443  0.943899  -0.674563
    O   O10  0.423080  0.317965  0.055705  -0.649806
    O   O11  0.573123  0.322219  0.104842  -0.700431
    O   O12  0.426704  0.321630  0.894826  -0.716173
    C   C29  0.598397  0.267427  0.032301  0.784619
    C   C30  0.401494  0.267269  0.967510  0.813023
    Zn  Zn1  0.503447  0.485644  0.896024  1.051209
    Zn  Zn2  0.496345  0.486219  0.103394  1.032014
    C   C31  0.437502  0.395921  0.538818  -0.127254
    C   C32  0.561584  0.398150  0.460036  -0.221080
    C   C33  0.570943  0.417750  0.567349  0.740632
    C   C34  0.428005  0.416379  0.431420  0.625367
    H   H11  0.445412  0.270336  0.557397  0.020295
    H   H12  0.554377  0.272513  0.441228  0.041650
    H   H13  0.617463  0.496095  0.594445  -0.148876
    H   H14  0.381308  0.494387  0.404590  -0.109743
    H   H15  0.610498  0.442107  0.437220  0.060777
    H   H16  0.388343  0.438225  0.561730  0.057671
    N   N3   0.491524  0.487005  0.224988  -0.055509
    N   N4   0.508170  0.486013  0.774375  -0.069720
    C   C35  0.502773  0.489113  0.588990  -0.055913
    C   C36  0.495848  0.489633  0.409982  0.155390
    C   C37  0.502116  0.656042  0.447410  -0.073077
    C   C38  0.495377  0.655569  0.551497  0.004013
    C   C39  0.492691  0.488515  0.306475  0.024278
    C   C40  0.506417  0.487640  0.692706  0.081509
    H   H17  0.441765  0.702543  0.557008  0.026576
    H   H18  0.555404  0.704817  0.441903  0.027558
    H   H19  0.538333  0.730149  0.593936  -0.017810
    H   H20  0.458601  0.729282  0.404849  0.004275
    O   O13  0.416263  0.273257  0.387692  -0.519883
    C   C41  0.355439  0.245874  0.318393  0.149685
    C   C42  0.356003  0.080415  0.286427  0.200275
    C   C43  0.415154  0.024160  0.254696  -0.212547
    C   C44  0.417440  0.869908  0.227595  0.031788
    C   C45  0.360171  0.771918  0.231157  -0.040363
    C   C46  0.300751  0.828229  0.262210  -0.111153
    C   C47  0.298698  0.982237  0.290209  -0.213160
    H   H21  0.355317  0.324388  0.256443  0.028224
    H   H22  0.306648  0.268585  0.347886  0.009062
    H   H23  0.460239  0.100557  0.252139  0.120537
    H   H24  0.464523  0.825877  0.204478  0.051822
    H   H25  0.361946  0.650772  0.210153  0.033205
    H   H26  0.255931  0.751317  0.265209  0.084465
    H   H27  0.252086  0.024910  0.315115  0.115234
    O   O14  0.583041  0.274162  0.610243  -0.454092
    C   C48  0.645746  0.243292  0.675327  0.124353
    C   C49  0.644378  0.077661  0.706435  0.067909
    C   C50  0.587609  0.026088  0.745048  -0.152592
    C   C51  0.584018  0.871725  0.771166  -0.035771
    C   C52  0.637605  0.768754  0.759501  0.104342
    C   C53  0.694264  0.819965  0.720471  -0.080546
    C   C54  0.697742  0.974369  0.693896  -0.202075
    H   H28  0.649630  0.321157  0.738417  0.007942
    H   H29  0.692732  0.263588  0.641677  0.016286
    H   H30  0.545357  0.106416  0.753854  0.120614
    H   H31  0.538678  0.831643  0.799757  0.047327
    H   H32  0.634832  0.647552  0.779916  0.005309
    H   H33  0.735842  0.738848  0.710316  0.083521
    H   H34  0.742187  0.013180  0.662902  0.108021
