# Generated by REPEAT Assigner based on pymatgen
data_DB0-m3_o1500_o6_f0_fsc.sym.4
_audit_creation_date              2022-05-24
_audit_creation_method            REPEAT_Assigner
_cell_length_a                    15.048600
_cell_length_b                    8.449742
_cell_length_c                    14.427835
_cell_angle_alpha                 90.000000
_cell_angle_beta                  98.408458
_cell_angle_gamma                 90.000000
_cell_volume                      1814.876759
_symmetry_space_group_name_H-M    P1
_symmetry_Int_Tables_number       1
loop_
    _symmetry_equiv_pos_site_id
    _symmetry_equiv_pos_as_xyz
    1  x,y,z
loop_
    _atom_site_type_symbol
    _atom_site_label
    _atom_site_fract_x
    _atom_site_fract_y
    _atom_site_fract_z
    _atom_type_partial_charge
    H   H1   0.567051  0.991031  0.051596  0.144132
    H   H2   0.432949  0.991031  0.948404  0.144144
    C   C1   0.679988  0.848926  0.034472  0.036942
    C   C2   0.319895  0.131660  0.967139  -0.003989
    C   C3   0.320012  0.848926  0.965528  0.036960
    C   C4   0.680105  0.131660  0.032861  -0.004032
    C   C5   0.769039  0.847764  0.022208  -0.360335
    C   C6   0.232046  0.131208  0.984469  -0.345549
    C   C7   0.230961  0.847764  0.977792  -0.360416
    C   C8   0.767954  0.131208  0.015531  -0.345479
    H   H3   0.803418  0.736513  0.016854  0.119601
    H   H4   0.198465  0.241520  0.994818  0.114843
    H   H5   0.196582  0.736513  0.983146  0.119645
    H   H6   0.801535  0.241519  0.005183  0.114825
    C   C9   0.813124  0.989085  0.012446  0.445379
    C   C10  0.186876  0.989085  0.987554  0.445462
    N   N1   0.508286  0.490309  0.776325  -0.052000
    N   N2   0.491714  0.490309  0.223675  -0.051989
    C   C11  0.637293  0.990597  0.043791  -0.235367
    C   C12  0.362707  0.990597  0.956209  -0.235386
    C   C13  0.969821  0.992108  0.085238  -0.193455
    C   C14  0.030179  0.992108  0.914762  -0.193390
    H   H7   0.945689  0.994319  0.152201  0.084315
    H   H8   0.054311  0.994319  0.847799  0.084307
    C   C15  0.061002  0.992777  0.082009  -0.040012
    C   C16  0.938998  0.992777  0.917991  -0.040198
    C   C17  0.091309  0.987963  0.995898  0.006558
    C   C18  0.908691  0.987963  0.004102  0.006640
    C   C19  0.495741  0.490305  0.403878  0.259258
    C   C20  0.504259  0.490305  0.596122  0.259221
    Zn  Zn1  0.503734  0.490317  0.897247  1.090981
    Zn  Zn2  0.496266  0.490317  0.102753  1.090973
    H   H9   0.503495  0.238177  0.585708  0.160998
    H   H10  0.496505  0.742432  0.414292  0.177902
    H   H11  0.496505  0.238177  0.414292  0.161003
    H   H12  0.503494  0.742432  0.585708  0.177905
    C   C21  0.492957  0.490306  0.304043  0.029419
    C   C22  0.507042  0.490306  0.695957  0.029437
    C   C23  0.497922  0.348968  0.451943  -0.151173
    C   C24  0.502077  0.631641  0.548057  -0.176708
    C   C25  0.502077  0.348968  0.548057  -0.151145
    C   C26  0.497922  0.631641  0.451943  -0.176740
    O   O1   0.594077  0.651076  0.097738  -0.739217
    O   O2   0.406088  0.329077  0.902442  -0.732780
    O   O3   0.405923  0.651076  0.902262  -0.739212
    O   O4   0.593912  0.329077  0.097559  -0.732782
    O   O5   0.596395  0.657532  0.938173  -0.688692
    O   O6   0.403446  0.323511  0.061932  -0.712000
    O   O7   0.403605  0.657532  0.061828  -0.688674
    O   O8   0.596554  0.323511  0.938068  -0.712014
    C   C27  0.625270  0.705815  0.023809  0.854730
    C   C28  0.374617  0.274880  0.976603  0.886588
    C   C29  0.374730  0.705815  0.976191  0.854728
    C   C30  0.625383  0.274880  0.023398  0.886619
    C   C31  0.122657  0.008208  0.170013  0.153503
    C   C32  0.196566  0.910774  0.190649  -0.121969
    C   C33  0.252917  0.926924  0.274532  -0.131065
    C   C34  0.235413  0.039823  0.338360  -0.093011
    C   C35  0.160825  0.135303  0.318777  -0.152605
    C   C36  0.104271  0.118746  0.235096  -0.111540
    H   H13  0.208826  0.817075  0.143682  0.096471
    H   H14  0.310405  0.849778  0.290644  0.092210
    H   H15  0.279596  0.052317  0.404106  0.077831
    H   H16  0.146629  0.223217  0.369036  0.108090
    H   H17  0.046257  0.194886  0.219901  0.101642
    C   C37  0.877343  0.008208  0.829988  0.153768
    C   C38  0.803434  0.910774  0.809351  -0.122328
    C   C39  0.747083  0.926924  0.725468  -0.130881
    C   C40  0.764587  0.039823  0.661640  -0.093077
    C   C41  0.839174  0.135303  0.681223  -0.152551
    C   C42  0.895729  0.118746  0.764904  -0.111634
    H   H18  0.791174  0.817075  0.856318  0.096638
    H   H19  0.689594  0.849778  0.709356  0.092155
    H   H20  0.720404  0.052317  0.595894  0.077834
    H   H21  0.853371  0.223217  0.630965  0.108083
    H   H22  0.953743  0.194886  0.780099  0.101654
