# Generated by REPEAT Assigner based on pymatgen
data_DB0-m3_o12_o13_f0_pcu.sym.104_sqe
_audit_creation_date              2022-05-24
_audit_creation_method            REPEAT_Assigner
_cell_length_a                    10.254409
_cell_length_b                    11.271073
_cell_length_c                    13.260226
_cell_angle_alpha                 91.077143
_cell_angle_beta                  93.955278
_cell_angle_gamma                 92.502453
_cell_volume                      1527.118740
_symmetry_space_group_name_H-M    P1
_symmetry_Int_Tables_number       1
loop_
    _symmetry_equiv_pos_site_id
    _symmetry_equiv_pos_as_xyz
    1  x,y,z
loop_
    _atom_site_type_symbol
    _atom_site_label
    _atom_site_fract_x
    _atom_site_fract_y
    _atom_site_fract_z
    _atom_type_partial_charge
    O   O1   0.581206  0.315069  0.507653  -0.592922
    O   O2   0.421866  0.688482  0.488539  -0.523927
    O   O3   0.358770  0.336918  0.486342  -0.557191
    O   O4   0.644352  0.666381  0.507459  -0.652052
    C   C1   0.460792  0.270386  0.497674  0.667637
    C   C2   0.542571  0.732887  0.499481  0.720009
    O   O5   0.607225  0.496070  0.657801  -0.528537
    O   O6   0.395749  0.508747  0.338197  -0.618777
    O   O7   0.385108  0.518383  0.637841  -0.621829
    O   O8   0.616961  0.483909  0.357776  -0.598119
    C   C3   0.493153  0.509616  0.695638  0.617543
    C   C4   0.508800  0.493774  0.299918  0.670625
    Zn  Zn1  0.648093  0.486896  0.510426  1.022509
    Zn  Zn2  0.354615  0.516616  0.485360  0.972063
    C   C5   0.518822  0.489406  0.188536  0.000258
    C   C6   0.479946  0.511087  0.806389  -0.024687
    C   C7   0.333854  0.528581  0.939275  -0.095850
    C   C8   0.659311  0.463071  0.053322  -0.062167
    C   C9   0.356676  0.523172  0.838839  -0.045290
    C   C10  0.638407  0.464964  0.154165  -0.074619
    C   C11  0.583827  0.503492  0.878567  -0.078104
    C   C12  0.413997  0.504614  0.117731  -0.130717
    C   C13  0.560100  0.491907  0.981392  0.092244
    C   C14  0.434567  0.508399  0.013454  0.164907
    H   H1   0.718674  0.441645  0.205803  0.108265
    H   H2   0.273794  0.535388  0.785921  0.133941
    C   C15  0.438843  0.140066  0.493669  -0.157380
    C   C16  0.567039  0.862513  0.499347  -0.185421
    C   C17  0.519829  0.066455  0.542151  0.009366
    C   C18  0.486451  0.938233  0.539153  -0.048268
    N   N1   0.161416  0.538645  0.470714  0.100036
    N   N2   0.841343  0.465931  0.525126  -0.150068
    C   C19  0.062905  0.463590  0.473372  -0.033265
    C   C20  0.926129  0.503003  0.463965  0.092438
    C   C21  0.284917  0.508730  0.153657  0.367946
    N   N3   0.181470  0.511376  0.183332  -0.380636
    C   C22  0.714504  0.525267  0.847805  0.349072
    N   N4   0.819395  0.544127  0.823221  -0.372157
    C   C23  0.203258  0.559994  0.958503  0.305683
    N   N5   0.097969  0.586008  0.972500  -0.318356
    C   C24  0.782318  0.417537  0.028426  0.330293
    N   N6   0.881178  0.380158  0.009175  -0.343338
    C   C25  0.378959  0.896079  0.595240  0.415427
    N   N7   0.293283  0.862842  0.641255  -0.409061
    C   C26  0.628589  0.110148  0.609286  0.346701
    N   N8   0.715887  0.144784  0.663382  -0.359350
    C   C27  0.684069  0.908422  0.457171  0.436178
    N   N9   0.778155  0.945332  0.423207  -0.396940
    C   C28  0.329482  0.089062  0.431323  0.412411
    N   N10  0.242371  0.047177  0.380752  -0.389964
    C   C29  0.884094  0.571985  0.378113  0.416542
    N   N11  0.851861  0.628508  0.309615  -0.279855
    C   C30  0.082361  0.337973  0.474830  0.274387
    N   N12  0.094718  0.236575  0.476691  -0.188979
    C   C31  0.891186  0.409106  0.610269  0.471572
    N   N13  0.932909  0.361572  0.681238  -0.301858
    C   C32  0.129568  0.656715  0.476558  0.218209
    N   N14  0.102768  0.755247  0.481080  -0.196576
