data_DB0-m3_o11_o29_f0_pcu.sym.46_repeat
_audit_creation_date              2024-02-23
_audit_creation_method            'Materials Studio'
_symmetry_space_group_name_H-M    'P1'
_symmetry_Int_Tables_number       1
_symmetry_cell_setting            triclinic
loop_
_symmetry_equiv_pos_as_xyz
  x,y,z
_cell_length_a                    27.6329
_cell_length_b                    11.1247
_cell_length_c                    9.9078
_cell_angle_alpha                 89.9974
_cell_angle_beta                  89.9930
_cell_angle_gamma                 89.9936
loop_
_atom_site_label
_atom_site_type_symbol
_atom_site_fract_x
_atom_site_fract_y
_atom_site_fract_z
_atom_site_U_iso_or_equiv
_atom_site_adp_type
_atom_site_occupancy
O1     O     0.49746   0.29854   0.56993   0.00000  Uiso   1.00
O2     O     0.49631   0.29924   0.33736   0.00000  Uiso   1.00
C1     C     0.49615   0.24282   0.45381   0.00000  Uiso   1.00
O3     O     0.42744   0.48279   0.57982   0.00000  Uiso   1.00
O4     O     0.42585   0.48329   0.34739   0.00000  Uiso   1.00
C2     C     0.40396   0.48439   0.46473   0.00000  Uiso   1.00
Zn1    Zn    0.49989   0.47671   0.61076   0.00000  Uiso   1.00
Zn2    Zn    0.49743   0.47902   0.30375   0.00000  Uiso   1.00
O5     O     0.50184   0.65631   0.57738   0.00000  Uiso   1.00
O6     O     0.49999   0.65747   0.34407   0.00000  Uiso   1.00
O7     O     0.57152   0.47199   0.56750   0.00000  Uiso   1.00
O8     O     0.56992   0.47421   0.33436   0.00000  Uiso   1.00
C3     C     0.50135   0.71289   0.46103   0.00000  Uiso   1.00
C4     C     0.59336   0.47016   0.44974   0.00000  Uiso   1.00
C5     C     0.17546   0.38623   0.42725   0.00000  Uiso   1.00
O9     O     0.20091   0.28809   0.39231   0.00000  Uiso   1.00
N1     N     0.19898   0.48585   0.46788   0.00000  Uiso   1.00
C6     C     0.17411   0.58444   0.50548   0.00000  Uiso   1.00
C7     C     0.27551   0.47422   0.34804   0.00000  Uiso   1.00
C8     C     0.32536   0.47441   0.34711   0.00000  Uiso   1.00
C9     C     0.32587   0.50003   0.58648   0.00000  Uiso   1.00
C10    C     0.27592   0.50120   0.58688   0.00000  Uiso   1.00
C11    C     0.25059   0.48753   0.46774   0.00000  Uiso   1.00
C12    C     0.09926   0.48397   0.46025   0.00000  Uiso   1.00
C13    C     0.12543   0.38385   0.42375   0.00000  Uiso   1.00
C14    C     0.10152   0.28215   0.38211   0.00000  Uiso   1.00
C15    C     0.12402   0.58492   0.50127   0.00000  Uiso   1.00
C16    C     0.35088   0.48662   0.46643   0.00000  Uiso   1.00
H1     H     0.34494   0.50995   0.68104   0.00000  Uiso   1.00
H2     H     0.25669   0.51089   0.68129   0.00000  Uiso   1.00
H3     H     0.12106   0.20302   0.35003   0.00000  Uiso   1.00
C17    C     0.64652   0.46626   0.44639   0.00000  Uiso   1.00
C18    C     0.97404   0.37582   0.42381   0.00000  Uiso   1.00
C19    C     0.97283   0.58802   0.47284   0.00000  Uiso   1.00
C20    C     0.94849   0.48146   0.44613   0.00000  Uiso   1.00
C21    C     0.94809   0.26942   0.40734   0.00000  Uiso   1.00
C22    C     0.89843   0.26917   0.40701   0.00000  Uiso   1.00
C23    C     0.87325   0.37469   0.42287   0.00000  Uiso   1.00
C24    C     0.89815   0.48043   0.44215   0.00000  Uiso   1.00
C25    C     0.87211   0.58499   0.45796   0.00000  Uiso   1.00
C26    C     0.82203   0.58251   0.45455   0.00000  Uiso   1.00
N2     N     0.79842   0.47772   0.43761   0.00000  Uiso   1.00
C27    C     0.82319   0.37447   0.42165   0.00000  Uiso   1.00
C28    C     0.72331   0.41363   0.54218   0.00000  Uiso   1.00
C29    C     0.67340   0.40789   0.54568   0.00000  Uiso   1.00
C30    C     0.67042   0.52649   0.34400   0.00000  Uiso   1.00
C31    C     0.72027   0.53157   0.34158   0.00000  Uiso   1.00
C32    C     0.74684   0.47512   0.44078   0.00000  Uiso   1.00
O10    O     0.79895   0.27114   0.40254   0.00000  Uiso   1.00
C33    C     0.02467   0.37856   0.41995   0.00000  Uiso   1.00
C34    C     0.04893   0.48318   0.45549   0.00000  Uiso   1.00
C35    C     0.02330   0.58703   0.48613   0.00000  Uiso   1.00
C36    C     0.05189   0.27922   0.38016   0.00000  Uiso   1.00
H4     H     0.74431   0.36752   0.61831   0.00000  Uiso   1.00
H5     H     0.87991   0.18438   0.39449   0.00000  Uiso   1.00
H6     H     0.96476   0.18246   0.39902   0.00000  Uiso   1.00
H7     H     0.03627   0.19760   0.34191   0.00000  Uiso   1.00
O11    O     0.19827   0.68364   0.54356   0.00000  Uiso   1.00
C37    C     0.09861   0.68584   0.53828   0.00000  Uiso   1.00
H8     H     0.34388   0.46361   0.25183   0.00000  Uiso   1.00
H9     H     0.25599   0.46437   0.25413   0.00000  Uiso   1.00
H10    H     0.11694   0.76566   0.57356   0.00000  Uiso   1.00
C38    C     0.94587   0.69342   0.48452   0.00000  Uiso   1.00
C39    C     0.89625   0.69162   0.47702   0.00000  Uiso   1.00
O12    O     0.79661   0.68430   0.47218   0.00000  Uiso   1.00
C40    C     0.04900   0.68723   0.53082   0.00000  Uiso   1.00
H11    H     0.96181   0.78097   0.49552   0.00000  Uiso   1.00
H12    H     0.65019   0.57286   0.26650   0.00000  Uiso   1.00
H13    H     0.87690   0.77556   0.48687   0.00000  Uiso   1.00
H14    H     0.73843   0.57921   0.26107   0.00000  Uiso   1.00
H15    H     0.03202   0.76842   0.56564   0.00000  Uiso   1.00
C41    C     0.49858   0.91006   0.35066   0.00000  Uiso   1.00
C42    C     0.50241   0.84461   0.46385   0.00000  Uiso   1.00
H16    H     0.49578   0.86465   0.25425   0.00000  Uiso   1.00
H17    H     0.50657   0.88563   0.56189   0.00000  Uiso   1.00
C43    C     0.49881   0.04319   0.34780   0.00000  Uiso   1.00
C44    C     0.49494   0.11126   0.45851   0.00000  Uiso   1.00
H18    H     0.50168   0.08623   0.25001   0.00000  Uiso   1.00
H19    H     0.49081   0.07211   0.55748   0.00000  Uiso   1.00
C45    C     0.52153   0.55744   0.88430   0.00000  Uiso   1.00
N3     N     0.50255   0.47366   0.81248   0.00000  Uiso   1.00
H20    H     0.53701   0.63545   0.83504   0.00000  Uiso   1.00
H21    H     0.49405   0.39498   0.86120   0.00000  Uiso   1.00
C46    C     0.52534   0.54703   0.03289   0.00000  Uiso   1.00
N4     N     0.49547   0.48332   0.10200   0.00000  Uiso   1.00
H22    H     0.55295   0.59847   0.08486   0.00000  Uiso   1.00
H23    H     0.46599   0.44920   0.05186   0.00000  Uiso   1.00
C47    C     0.65085   0.33359   0.65060   0.00000  Uiso   1.00
C48    C     0.66183   0.35334   0.78478   0.00000  Uiso   1.00
C49    C     0.64183   0.28170   0.88374   0.00000  Uiso   1.00
C50    C     0.61117   0.18877   0.84885   0.00000  Uiso   1.00
C51    C     0.58946   0.11045   0.95460   0.00000  Uiso   1.00
C52    C     0.60079   0.16765   0.71481   0.00000  Uiso   1.00
C53    C     0.62065   0.23954   0.61586   0.00000  Uiso   1.00
H24    H     0.68574   0.42600   0.81310   0.00000  Uiso   1.00
H25    H     0.65047   0.29894   0.98836   0.00000  Uiso   1.00
H26    H     0.60151   0.13928   0.05628   0.00000  Uiso   1.00
H27    H     0.60083   0.01606   0.93743   0.00000  Uiso   1.00
H28    H     0.54944   0.11633   0.94897   0.00000  Uiso   1.00
H29    H     0.57724   0.09414   0.68706   0.00000  Uiso   1.00
H30    H     0.61294   0.22080   0.51099   0.00000  Uiso   1.00
