# Generated by REPEAT Assigner based on pymatgen
data_DB0-m3_o3_o25_f0_pcu.sym.94
_audit_creation_date              2022-05-24
_audit_creation_method            REPEAT_Assigner
_cell_length_a                    15.985065
_cell_length_b                    19.453276
_cell_length_c                    18.259712
_cell_angle_alpha                 89.989226
_cell_angle_beta                  90.021823
_cell_angle_gamma                 90.010927
_cell_volume                      5678.073775
_symmetry_space_group_name_H-M    P1
_symmetry_Int_Tables_number       1
loop_
    _symmetry_equiv_pos_site_id
    _symmetry_equiv_pos_as_xyz
    1  x,y,z
loop_
    _atom_site_type_symbol
    _atom_site_label
    _atom_site_fract_x
    _atom_site_fract_y
    _atom_site_fract_z
    _atom_type_partial_charge
    O   O1   0.504643  0.398107  0.564601  -0.528528
    O   O2   0.497364  0.600989  0.437287  -0.541461
    O   O3   0.506110  0.396331  0.438418  -0.639597
    O   O4   0.495794  0.602778  0.563439  -0.602957
    C   C1   0.507849  0.364969  0.502082  0.567410
    C   C2   0.494041  0.634146  0.499770  0.530960
    O   O5   0.375944  0.496944  0.563966  -0.726473
    O   O6   0.625992  0.502124  0.437903  -0.744330
    O   O7   0.376852  0.495046  0.437549  -0.687720
    O   O8   0.625079  0.504101  0.564319  -0.683984
    C   C3   0.337565  0.495006  0.500560  0.908595
    C   C4   0.664366  0.504108  0.501307  0.936911
    Zn  Zn1  0.500472  0.500527  0.584207  1.011228
    Zn  Zn2  0.501462  0.498580  0.417663  1.047583
    C   C5   0.972060  0.445551  0.536904  -0.130767
    C   C6   0.029855  0.553376  0.464997  -0.126351
    C   C7   0.025979  0.442419  0.468357  -0.174883
    C   C8   0.975941  0.556508  0.533543  -0.165579
    H   H1   0.049070  0.395052  0.441320  0.063472
    H   H2   0.952849  0.603876  0.560579  0.060564
    H   H3   0.945673  0.400910  0.566781  0.054357
    H   H4   0.056230  0.598021  0.435117  0.050847
    H   H5   0.947752  0.497416  0.376334  0.057659
    H   H6   0.054166  0.501513  0.625566  0.056893
    C   C9   0.247828  0.494902  0.500162  -0.204319
    C   C10  0.754099  0.504135  0.501714  -0.207053
    C   C11  0.028739  0.500640  0.569067  -0.149419
    C   C12  0.973179  0.498288  0.432833  -0.151519
    C   C13  0.081022  0.497539  0.500525  0.655178
    C   C14  0.920897  0.501390  0.501374  0.649482
    C   C15  0.172473  0.495731  0.500180  -0.353547
    C   C16  0.829450  0.503241  0.501709  -0.355393
    C   C17  0.457848  0.746965  0.440356  -0.091660
    C   C18  0.543764  0.252018  0.561527  -0.119627
    C   C19  0.462324  0.817946  0.441036  -0.074606
    C   C20  0.538223  0.181192  0.561289  -0.139500
    H   H7   0.434591  0.846670  0.396614  0.075535
    H   H8   0.564933  0.152904  0.606526  0.105084
    C   C21  0.496133  0.852604  0.500055  0.020194
    C   C22  0.504822  0.146491  0.502116  0.102000
    C   C23  0.526126  0.815538  0.558891  -0.107379
    C   C24  0.475659  0.183598  0.442966  -0.134951
    H   H9   0.554296  0.841283  0.605166  0.096419
    H   H10  0.447668  0.157917  0.396569  0.102035
    C   C25  0.523390  0.744805  0.558251  -0.183133
    C   C26  0.478761  0.254334  0.443490  -0.175869
    H   H11  0.549682  0.717126  0.604120  0.132163
    H   H12  0.452825  0.282016  0.397469  0.135017
    C   C27  0.490346  0.709717  0.499101  0.063355
    C   C28  0.511689  0.289407  0.502703  0.050882
    C   C29  0.481305  0.964081  0.564207  -0.156595
    C   C30  0.519429  0.034981  0.438020  -0.126824
    H   H13  0.464114  0.937323  0.613824  0.113504
    H   H14  0.536747  0.061689  0.388409  0.104538
    C   C31  0.483133  0.034930  0.564626  -0.115121
    C   C32  0.517547  0.964144  0.437594  -0.153653
    H   H15  0.467454  0.061730  0.614591  0.100212
    H   H16  0.533238  0.937323  0.387640  0.108653
    C   C33  0.502202  0.070949  0.501536  0.036097
    C   C34  0.498498  0.928134  0.500679  0.099223
    C   C35  0.538903  0.551925  0.730364  -0.086718
    C   C36  0.462984  0.447225  0.271505  -0.104918
    H   H17  0.570013  0.592536  0.700536  0.152606
    H   H18  0.431891  0.406604  0.301331  0.162597
    C   C37  0.539615  0.552470  0.805867  -0.124408
    C   C38  0.462196  0.446723  0.196004  -0.116014
    H   H19  0.572318  0.593248  0.834058  0.112516
    H   H20  0.429468  0.405959  0.167814  0.110091
    C   C39  0.500940  0.500225  0.844341  0.094595
    C   C40  0.500829  0.498991  0.157533  0.097397
    C   C41  0.462120  0.448276  0.805553  -0.202186
    C   C42  0.539668  0.550929  0.196323  -0.204086
    H   H21  0.429763  0.407147  0.833459  0.122170
    H   H22  0.571976  0.592087  0.168421  0.124170
    C   C43  0.462237  0.449538  0.730088  0.092653
    C   C44  0.539641  0.549617  0.271786  0.102338
    H   H23  0.431325  0.408966  0.700050  0.094861
    H   H24  0.570550  0.590190  0.301825  0.080768
    N   N1   0.500251  0.500979  0.693738  -0.030926
    N   N2   0.501681  0.498146  0.308132  -0.030396
    C   C45  0.510187  0.438976  0.962941  -0.159420
    C   C46  0.491549  0.560252  0.038934  -0.162934
    H   H25  0.519744  0.391058  0.934235  0.134054
    H   H26  0.481996  0.608169  0.067643  0.134325
    C   C47  0.510037  0.438671  0.038431  -0.141780
    C   C48  0.491702  0.560557  0.963442  -0.142918
    H   H27  0.519504  0.390526  0.066746  0.117159
    H   H28  0.482246  0.608701  0.935124  0.118850
    C   C49  0.500726  0.499305  0.077029  0.097875
    C   C50  0.501013  0.499921  0.924845  0.102126
    C   C51  0.413562  0.714009  0.379248  0.169479
    C   C52  0.421013  0.733758  0.307278  -0.176422
    C   C53  0.369471  0.691290  0.269313  -0.219147
    C   C54  0.333484  0.649070  0.320716  -0.069699
    O   O9   0.359699  0.662853  0.387938  -0.039520
    H   H29  0.460371  0.773858  0.285066  0.130887
    H   H30  0.359030  0.690729  0.210823  0.133634
    H   H31  0.288779  0.609013  0.308375  0.122256
    C   C55  0.587904  0.283952  0.623188  0.276456
    C   C56  0.651748  0.330980  0.616716  -0.225338
    C   C57  0.676948  0.344149  0.686260  -0.188257
    C   C58  0.627788  0.303518  0.730237  -0.076066
    O   O10  0.573987  0.266072  0.692097  -0.134737
    H   H32  0.677395  0.352381  0.566909  0.163971
    H   H33  0.726098  0.378769  0.703393  0.136681
    H   H34  0.632476  0.301443  0.789254  0.108124
