# Generated by REPEAT Assigner based on pymatgen
data_DB0-m29_o83_o102_f0_pts.sym.41
_audit_creation_date              2022-05-24
_audit_creation_method            REPEAT_Assigner
_cell_length_a                    15.808390
_cell_length_b                    14.321337
_cell_length_c                    11.516606
_cell_angle_alpha                 94.251947
_cell_angle_beta                  89.289833
_cell_angle_gamma                 104.826666
_cell_volume                      2513.519744
_symmetry_space_group_name_H-M    P1
_symmetry_Int_Tables_number       1
loop_
    _symmetry_equiv_pos_site_id
    _symmetry_equiv_pos_as_xyz
    1  x,y,z
loop_
    _atom_site_type_symbol
    _atom_site_label
    _atom_site_fract_x
    _atom_site_fract_y
    _atom_site_fract_z
    _atom_type_partial_charge
    C   C1   0.269645  0.985615  0.059842  0.027006
    C   C2   0.252973  0.988347  0.942072  -0.003595
    C   C3   0.169831  0.991009  0.907594  -0.116058
    C   C4   0.203969  0.985955  0.138890  -0.255105
    C   C5   0.123304  0.994470  0.104508  0.257369
    C   C6   0.104398  0.997272  0.988545  -0.076330
    C   C7   0.020804  0.005419  0.957467  0.210572
    C   C8   0.999934  0.015869  0.842927  -0.211517
    C   C9   0.918217  0.022546  0.813616  -0.138603
    C   C10  0.064747  0.007645  0.189062  -0.358250
    C   C11  0.984229  0.020647  0.160072  0.376537
    C   C12  0.957468  0.007278  0.043334  -0.257905
    C   C13  0.870565  0.001605  0.009564  0.209832
    C   C14  0.853185  0.012268  0.894888  0.159479
    C   C15  0.769866  0.009110  0.858414  -0.219909
    C   C16  0.799284  0.979615  0.084831  -0.306435
    C   C17  0.715042  0.977078  0.049256  0.064132
    C   C18  0.700388  0.990432  0.933537  -0.009819
    H   H1   0.158500  0.987588  0.815685  0.120244
    H   H2   0.218517  0.986792  0.230471  0.179438
    H   H3   0.045775  0.022650  0.772583  0.157180
    H   H4   0.904434  0.031252  0.723934  0.108158
    H   H5   0.085344  0.011338  0.278603  0.147964
    H   H6   0.757915  0.015804  0.767592  0.150242
    H   H7   0.806729  0.959048  0.171147  0.172236
    O   O1   0.571686  0.989093  0.114896  -0.466122
    C   C19  0.644791  0.966061  0.137262  0.516904
    O   O2   0.486536  0.783541  0.214390  -0.491280
    O   O3   0.658784  0.943508  0.242396  -0.487219
    O   O4   0.486423  0.889268  0.369937  -0.456269
    C   C20  0.486547  0.801727  0.327777  0.499591
    Fe  Fe1  0.489850  0.980094  0.247452  1.403849
    O   O5   0.368436  0.932314  0.181054  -0.562075
    O   O6   0.420131  0.070713  0.090360  -0.482903
    C   C21  0.356784  0.993454  0.107000  0.607558
    O   O7   0.528550  0.114344  0.324776  -0.593424
    O   O8   0.397614  0.056135  0.410769  -0.526828
    C   C22  0.468908  0.126100  0.400753  0.595373
    O   O9   0.438093  0.846427  0.667125  -0.601411
    O   O10  0.567601  0.901518  0.576304  -0.544889
    C   C23  0.496050  0.832620  0.589408  0.649517
    O   O11  0.598308  0.031889  0.806130  -0.578243
    O   O12  0.552076  0.895698  0.902592  -0.507517
    C   C24  0.612809  0.974520  0.883122  0.636566
    O   O13  0.304535  0.001971  0.743712  -0.510375
    O   O14  0.476323  0.071101  0.619797  -0.474695
    C   C25  0.475188  0.158902  0.660974  0.569472
    O   O15  0.396105  0.972241  0.877439  -0.468022
    C   C26  0.320316  0.987508  0.851627  0.531212
    O   O16  0.475290  0.178381  0.774135  -0.538874
    Fe  Fe2  0.476115  0.981495  0.742765  1.427207
    C   C27  0.481196  0.631649  0.354865  -0.265040
    C   C28  0.485322  0.723522  0.405656  0.103149
    C   C29  0.485937  0.737440  0.526998  -0.021987
    C   C30  0.481370  0.659818  0.593223  -0.175246
    C   C31  0.479635  0.569300  0.541638  0.143339
    C   C32  0.479370  0.554484  0.422092  0.197882
    C   C33  0.478868  0.494008  0.610274  -0.292379
    C   C34  0.478422  0.403334  0.560021  0.200251
    C   C35  0.478326  0.387610  0.440570  0.198860
    C   C36  0.477549  0.462820  0.371056  -0.243959
    C   C37  0.477453  0.328468  0.629883  -0.251453
    C   C38  0.475191  0.236153  0.581969  -0.004851
    C   C39  0.475502  0.220892  0.461078  0.123631
    C   C40  0.478081  0.296167  0.392083  -0.323501
    H   H8   0.480609  0.621774  0.261260  0.128174
    H   H9   0.482700  0.671386  0.687074  0.157288
    H   H10  0.478989  0.506317  0.704016  0.166657
    H   H11  0.478093  0.342961  0.723110  0.201404
    H   H12  0.477395  0.279686  0.299104  0.161366
    C   C41  0.390789  0.417941  0.190237  0.444116
    H   H13  0.331726  0.409048  0.241163  0.040576
    N   N1   0.385824  0.403617  0.073580  -0.710208
    C   C42  0.459113  0.415116  0.009519  0.809753
    H   H14  0.454133  0.403820  0.915924  -0.048835
    N   N2   0.538493  0.440978  0.061232  -0.739189
    C   C43  0.545812  0.455881  0.177751  0.534803
    H   H15  0.609706  0.477090  0.218704  0.020582
    C   C44  0.471447  0.444653  0.244395  -0.112646
    O   O17  0.936018  0.055381  0.242362  -0.183528
    C   C45  0.963242  0.086002  0.354959  0.038461
    C   C46  0.897078  0.129477  0.415514  0.066133
    C   C47  0.814228  0.072380  0.434455  -0.095050
    C   C48  0.752556  0.112221  0.490080  -0.044706
    C   C49  0.773658  0.209120  0.527329  -0.100977
    C   C50  0.856512  0.266230  0.509037  -0.082557
    C   C51  0.918239  0.226576  0.453247  -0.207132
    H   H16  0.026665  0.141520  0.354449  0.046300
    H   H17  0.970234  0.023727  0.402457  0.052817
    H   H18  0.797597  0.996212  0.406130  0.102032
    H   H19  0.687625  0.067480  0.504550  0.127058
    H   H20  0.725283  0.240283  0.570977  0.084840
    H   H21  0.873100  0.342218  0.538339  0.097951
    H   H22  0.982903  0.272279  0.439241  0.121855
