data_DB0-m3_o11_o23_f0_pcu.sym.149_repeat
_audit_creation_date              2024-02-23
_audit_creation_method            'Materials Studio'
_symmetry_space_group_name_H-M    'P1'
_symmetry_Int_Tables_number       1
_symmetry_cell_setting            triclinic
loop_
_symmetry_equiv_pos_as_xyz
  x,y,z
_cell_length_a                    15.9605
_cell_length_b                    11.1379
_cell_length_c                    9.9108
_cell_angle_alpha                 89.9974
_cell_angle_beta                  89.9750
_cell_angle_gamma                 89.9982
loop_
_atom_site_label
_atom_site_type_symbol
_atom_site_fract_x
_atom_site_fract_y
_atom_site_fract_z
_atom_site_U_iso_or_equiv
_atom_site_adp_type
_atom_site_occupancy
O1     O     0.50298   0.32318   0.60824   0.00000  Uiso   1.00
O2     O     0.49996   0.32377   0.37566   0.00000  Uiso   1.00
C1     C     0.50118   0.26746   0.49215   0.00000  Uiso   1.00
O3     O     0.37803   0.50194   0.61825   0.00000  Uiso   1.00
O4     O     0.37498   0.50318   0.38551   0.00000  Uiso   1.00
C2     C     0.33758   0.50254   0.50314   0.00000  Uiso   1.00
Zn1    Zn    0.50353   0.50120   0.64911   0.00000  Uiso   1.00
Zn2    Zn    0.49897   0.50334   0.34189   0.00000  Uiso   1.00
O5     O     0.50342   0.68063   0.61566   0.00000  Uiso   1.00
O6     O     0.50039   0.68171   0.38218   0.00000  Uiso   1.00
O7     O     0.62759   0.50147   0.60591   0.00000  Uiso   1.00
O8     O     0.62452   0.50271   0.37237   0.00000  Uiso   1.00
C3     C     0.50174   0.73706   0.49926   0.00000  Uiso   1.00
C4     C     0.66489   0.50192   0.48789   0.00000  Uiso   1.00
C5     C     0.04748   0.41782   0.61006   0.00000  Uiso   1.00
C6     C     0.05170   0.45291   0.36386   0.00000  Uiso   1.00
C7     C     0.95731   0.43878   0.36502   0.00000  Uiso   1.00
H1     H     0.06389   0.32347   0.58588   0.00000  Uiso   1.00
H2     H     0.07004   0.51735   0.28379   0.00000  Uiso   1.00
H3     H     0.08130   0.36479   0.34271   0.00000  Uiso   1.00
H4     H     0.94152   0.34228   0.35891   0.00000  Uiso   1.00
H5     H     0.93080   0.48416   0.27504   0.00000  Uiso   1.00
C8     C     0.75478   0.50050   0.48600   0.00000  Uiso   1.00
C9     C     0.08056   0.49938   0.49987   0.00000  Uiso   1.00
C10    C     0.95313   0.43108   0.61897   0.00000  Uiso   1.00
C11    C     0.92200   0.49602   0.49238   0.00000  Uiso   1.00
C12    C     0.95306   0.62476   0.49849   0.00000  Uiso   1.00
C13    C     0.04697   0.62527   0.52067   0.00000  Uiso   1.00
C14    C     0.83027   0.49866   0.48765   0.00000  Uiso   1.00
C15    C     0.17218   0.50107   0.50384   0.00000  Uiso   1.00
C16    C     0.24768   0.50198   0.50510   0.00000  Uiso   1.00
H6     H     0.06101   0.65542   0.62490   0.00000  Uiso   1.00
H7     H     0.07683   0.68783   0.44807   0.00000  Uiso   1.00
H8     H     0.92186   0.67326   0.58235   0.00000  Uiso   1.00
H9     H     0.07600   0.44242   0.70828   0.00000  Uiso   1.00
H10    H     0.93841   0.48861   0.70720   0.00000  Uiso   1.00
H11    H     0.93825   0.67112   0.40237   0.00000  Uiso   1.00
C17    C     0.50016   0.93449   0.38921   0.00000  Uiso   1.00
C18    C     0.50205   0.86864   0.50253   0.00000  Uiso   1.00
H12    H     0.49850   0.88930   0.29246   0.00000  Uiso   1.00
H13    H     0.50386   0.90889   0.60145   0.00000  Uiso   1.00
C19    C     0.50018   0.06760   0.38640   0.00000  Uiso   1.00
C20    C     0.50128   0.13604   0.49730   0.00000  Uiso   1.00
H14    H     0.49908   0.11043   0.28825   0.00000  Uiso   1.00
H15    H     0.50223   0.09764   0.59715   0.00000  Uiso   1.00
C21    C     0.53877   0.58375   0.92260   0.00000  Uiso   1.00
N1     N     0.50820   0.49832   0.85077   0.00000  Uiso   1.00
H16    H     0.56345   0.66310   0.87338   0.00000  Uiso   1.00
H17    H     0.49564   0.41896   0.89946   0.00000  Uiso   1.00
C22    C     0.54556   0.57372   0.07114   0.00000  Uiso   1.00
N2     N     0.49548   0.50738   0.14020   0.00000  Uiso   1.00
H18    H     0.59196   0.62764   0.12312   0.00000  Uiso   1.00
H19    H     0.44545   0.47046   0.09001   0.00000  Uiso   1.00
C23    C     0.91484   0.30991   0.64543   0.00000  Uiso   1.00
O9     O     0.93242   0.25799   0.74995   0.00000  Uiso   1.00
N3     N     0.85882   0.25384   0.55258   0.00000  Uiso   1.00
H20    H     0.88472   0.17101   0.52621   0.00000  Uiso   1.00
H21    H     0.80276   0.23751   0.60374   0.00000  Uiso   1.00
