# Generated by REPEAT Assigner based on pymatgen
data_DB0-m3_o25_o45_f0_fsc.sym.21
_audit_creation_date              2022-05-24
_audit_creation_method            REPEAT_Assigner
_cell_length_a                    8.543050
_cell_length_b                    12.765664
_cell_length_c                    14.264346
_cell_angle_alpha                 90.572304
_cell_angle_beta                  90.546030
_cell_angle_gamma                 93.601252
_cell_volume                      1552.407261
_symmetry_space_group_name_H-M    P1
_symmetry_Int_Tables_number       1
loop_
    _symmetry_equiv_pos_site_id
    _symmetry_equiv_pos_as_xyz
    1  x,y,z
loop_
    _atom_site_type_symbol
    _atom_site_label
    _atom_site_fract_x
    _atom_site_fract_y
    _atom_site_fract_z
    _atom_type_partial_charge
    C   C1   0.156286  0.703524  0.019814  0.120284
    C   C2   0.843714  0.296476  0.980186  0.120315
    C   C3   0.171219  0.809847  0.005202  -0.488290
    C   C4   0.828781  0.190153  0.994798  -0.488284
    H   H1   0.286219  0.848698  0.996616  0.148705
    H   H2   0.713781  0.151303  0.003384  0.148699
    C   C5   0.039827  0.867367  0.003127  0.625271
    C   C6   0.960173  0.132633  0.996873  0.625276
    C   C7   0.891049  0.815814  0.006941  -0.328853
    C   C8   0.108951  0.184186  0.993059  -0.328861
    H   H3   0.784940  0.856792  0.998516  0.102481
    H   H4   0.215060  0.143208  0.001484  0.102473
    C   C9   0.877590  0.708469  0.020818  0.002646
    C   C10  0.122410  0.291532  0.979182  0.002579
    C   C11  0.010454  0.654537  0.032117  -0.271075
    C   C12  0.989546  0.345463  0.967883  -0.271081
    N   N1   0.061765  0.977529  0.994744  -0.269870
    N   N2   0.938235  0.022471  0.005256  -0.269893
    H   H5   0.999447  0.571267  0.043862  0.145172
    H   H6   0.000553  0.428733  0.956137  0.145199
    O   O1   0.337558  0.613621  0.929299  -0.753081
    O   O2   0.662442  0.386379  0.070701  -0.753061
    O   O3   0.343329  0.598514  0.090434  -0.751278
    O   O4   0.656671  0.401486  0.909566  -0.751270
    C   C13  0.290463  0.639166  0.013270  0.919257
    C   C14  0.709537  0.360834  0.986730  0.919221
    O   O5   0.324559  0.381448  0.070052  -0.737044
    O   O6   0.675441  0.618552  0.929947  -0.736956
    O   O7   0.328789  0.396712  0.909080  -0.735572
    O   O8   0.671211  0.603288  0.090920  -0.735554
    C   C15  0.272183  0.353754  0.985907  0.913371
    C   C16  0.727817  0.646246  0.014093  0.913212
    Zn  Zn1  0.500383  0.488208  0.104010  1.093974
    Zn  Zn2  0.499617  0.511792  0.895990  1.093944
    C   C17  0.627896  0.557766  0.527279  -0.258837
    C   C18  0.372104  0.442234  0.472721  -0.258917
    C   C19  0.627996  0.452814  0.474739  -0.260688
    C   C20  0.372004  0.547186  0.525260  -0.260577
    H   H7   0.732040  0.411297  0.452822  0.137242
    H   H8   0.267960  0.588703  0.547178  0.137212
    H   H9   0.731854  0.607894  0.550845  0.137419
    H   H10  0.268146  0.392106  0.449155  0.137431
    N   N3   0.501015  0.476165  0.226602  0.071451
    N   N4   0.498985  0.523835  0.773398  0.071494
    C   C21  0.500347  0.591005  0.461571  0.299830
    C   C22  0.499653  0.408995  0.538429  0.299977
    C   C23  0.500447  0.487939  0.410066  0.656484
    C   C24  0.499553  0.512061  0.589934  0.656381
    C   C25  0.500844  0.479803  0.307681  -0.274170
    C   C26  0.499156  0.520197  0.692319  -0.274180
    F   F1   0.499254  0.312852  0.582139  -0.244845
    F   F2   0.500746  0.687149  0.417861  -0.244765
