data_DB0-m2_o11_o29_f0_pcu.sym.25_repeat
_audit_creation_date              2024-02-20
_audit_creation_method            'Materials Studio'
_symmetry_space_group_name_H-M    'P1'
_symmetry_Int_Tables_number       1
_symmetry_cell_setting            triclinic
loop_
_symmetry_equiv_pos_as_xyz
  x,y,z
_cell_length_a                    27.5341
_cell_length_b                    11.0664
_cell_length_c                    9.5589
_cell_angle_alpha                 90.0206
_cell_angle_beta                  90.0156
_cell_angle_gamma                 89.9937
loop_
_atom_site_label
_atom_site_type_symbol
_atom_site_fract_x
_atom_site_fract_y
_atom_site_fract_z
_atom_site_U_iso_or_equiv
_atom_site_adp_type
_atom_site_occupancy
O1     O     0.49310   0.32964   0.61613   0.00000  Uiso   1.00
O2     O     0.50117   0.32325   0.37603   0.00000  Uiso   1.00
C1     C     0.49580   0.27007   0.49769   0.00000  Uiso   1.00
O3     O     0.42860   0.51123   0.60163   0.00000  Uiso   1.00
O4     O     0.43191   0.50221   0.36136   0.00000  Uiso   1.00
C2     C     0.40742   0.51193   0.47876   0.00000  Uiso   1.00
Cu1    Cu    0.49878   0.50514   0.63001   0.00000  Uiso   1.00
Cu2    Cu    0.50276   0.49832   0.35057   0.00000  Uiso   1.00
O5     O     0.50156   0.67991   0.60400   0.00000  Uiso   1.00
O6     O     0.50726   0.67412   0.36477   0.00000  Uiso   1.00
O7     O     0.56940   0.49097   0.61897   0.00000  Uiso   1.00
O8     O     0.57280   0.48756   0.37965   0.00000  Uiso   1.00
C3     C     0.50552   0.73369   0.48309   0.00000  Uiso   1.00
C4     C     0.59402   0.49153   0.50184   0.00000  Uiso   1.00
C5     C     0.17780   0.40737   0.47657   0.00000  Uiso   1.00
O9     O     0.20340   0.30539   0.45679   0.00000  Uiso   1.00
N1     N     0.20132   0.51334   0.49122   0.00000  Uiso   1.00
C6     C     0.17636   0.61607   0.51433   0.00000  Uiso   1.00
C7     C     0.27954   0.55419   0.59905   0.00000  Uiso   1.00
C8     C     0.32955   0.55308   0.59499   0.00000  Uiso   1.00
C9     C     0.32712   0.47929   0.36005   0.00000  Uiso   1.00
C10    C     0.27699   0.47927   0.36554   0.00000  Uiso   1.00
C11    C     0.25307   0.51632   0.48485   0.00000  Uiso   1.00
C12    C     0.10143   0.50673   0.50832   0.00000  Uiso   1.00
C13    C     0.12768   0.40271   0.48574   0.00000  Uiso   1.00
C14    C     0.10370   0.29452   0.47143   0.00000  Uiso   1.00
C15    C     0.12617   0.61412   0.52217   0.00000  Uiso   1.00
C16    C     0.35393   0.51566   0.47594   0.00000  Uiso   1.00
H1     H     0.25636   0.45003   0.27542   0.00000  Uiso   1.00
H2     H     0.12319   0.21173   0.45050   0.00000  Uiso   1.00
C17    C     0.64739   0.48992   0.50820   0.00000  Uiso   1.00
C18    C     0.97645   0.38990   0.52696   0.00000  Uiso   1.00
C19    C     0.97426   0.60717   0.52927   0.00000  Uiso   1.00
C20    C     0.95023   0.49673   0.53079   0.00000  Uiso   1.00
C21    C     0.95143   0.28155   0.54177   0.00000  Uiso   1.00
C22    C     0.90161   0.27822   0.54990   0.00000  Uiso   1.00
C23    C     0.87499   0.38441   0.54294   0.00000  Uiso   1.00
C24    C     0.89967   0.49316   0.53508   0.00000  Uiso   1.00
C25    C     0.87328   0.59888   0.53026   0.00000  Uiso   1.00
C26    C     0.82318   0.59558   0.52984   0.00000  Uiso   1.00
N2     N     0.79963   0.48934   0.53556   0.00000  Uiso   1.00
C27    C     0.82429   0.38451   0.54342   0.00000  Uiso   1.00
C28    C     0.72024   0.44437   0.63545   0.00000  Uiso   1.00
C29    C     0.67023   0.44629   0.62686   0.00000  Uiso   1.00
C30    C     0.67537   0.53364   0.39821   0.00000  Uiso   1.00
C31    C     0.72544   0.53217   0.40819   0.00000  Uiso   1.00
C32    C     0.74794   0.48790   0.52638   0.00000  Uiso   1.00
O10    O     0.79901   0.28071   0.54610   0.00000  Uiso   1.00
C33    C     0.02693   0.39346   0.50982   0.00000  Uiso   1.00
C34    C     0.05102   0.50340   0.51685   0.00000  Uiso   1.00
C35    C     0.02508   0.61007   0.53204   0.00000  Uiso   1.00
C36    C     0.05405   0.28963   0.48329   0.00000  Uiso   1.00
H3     H     0.64920   0.41198   0.71362   0.00000  Uiso   1.00
H4     H     0.73762   0.41036   0.72892   0.00000  Uiso   1.00
H5     H     0.96946   0.19590   0.55249   0.00000  Uiso   1.00
H6     H     0.03809   0.20233   0.46542   0.00000  Uiso   1.00
O11    O     0.20043   0.72117   0.52668   0.00000  Uiso   1.00
C37    C     0.10069   0.71899   0.54520   0.00000  Uiso   1.00
H7     H     0.34926   0.58238   0.68668   0.00000  Uiso   1.00
H8     H     0.26120   0.58238   0.69356   0.00000  Uiso   1.00
H9     H     0.11911   0.80428   0.55972   0.00000  Uiso   1.00
C38    C     0.94670   0.71244   0.52275   0.00000  Uiso   1.00
C39    C     0.89697   0.70797   0.52297   0.00000  Uiso   1.00
O12    O     0.79756   0.69887   0.52487   0.00000  Uiso   1.00
C40    C     0.05086   0.71734   0.55000   0.00000  Uiso   1.00
H10    H     0.96211   0.80112   0.51152   0.00000  Uiso   1.00
H11    H     0.87715   0.79204   0.51644   0.00000  Uiso   1.00
H12    H     0.74762   0.56616   0.32357   0.00000  Uiso   1.00
H13    H     0.03394   0.80259   0.57291   0.00000  Uiso   1.00
C41    C     0.49632   0.93782   0.38117   0.00000  Uiso   1.00
C42    C     0.51090   0.86561   0.48512   0.00000  Uiso   1.00
H14    H     0.52736   0.90394   0.57743   0.00000  Uiso   1.00
C43    C     0.50172   0.07060   0.39029   0.00000  Uiso   1.00
C44    C     0.49068   0.13821   0.50317   0.00000  Uiso   1.00
H15    H     0.51314   0.11586   0.29539   0.00000  Uiso   1.00
C45    C     0.47611   0.42724   0.91340   0.00000  Uiso   1.00
N3     N     0.49536   0.51100   0.83897   0.00000  Uiso   1.00
H16    H     0.46042   0.34840   0.86378   0.00000  Uiso   1.00
H17    H     0.50124   0.59158   0.88966   0.00000  Uiso   1.00
C46    C     0.47291   0.43968   0.06734   0.00000  Uiso   1.00
N4     N     0.50607   0.49163   0.14162   0.00000  Uiso   1.00
H18    H     0.44042   0.40641   0.11788   0.00000  Uiso   1.00
N5     N     0.35035   0.43778   0.23601   0.00000  Uiso   1.00
H19    H     0.33857   0.49225   0.15354   0.00000  Uiso   1.00
H20    H     0.33847   0.34966   0.21725   0.00000  Uiso   1.00
N6     N     0.65302   0.58502   0.27731   0.00000  Uiso   1.00
H21    H     0.67988   0.60729   0.20483   0.00000  Uiso   1.00
H22    H     0.63616   0.66527   0.30812   0.00000  Uiso   1.00
N7     N     0.47730   0.88707   0.25534   0.00000  Uiso   1.00
H23    H     0.49966   0.91447   0.17306   0.00000  Uiso   1.00
H24    H     0.44288   0.92424   0.23940   0.00000  Uiso   1.00
N8     N     0.46903   0.08798   0.62615   0.00000  Uiso   1.00
H25    H     0.49586   0.05380   0.69217   0.00000  Uiso   1.00
H26    H     0.44358   0.02218   0.59882   0.00000  Uiso   1.00
N9     N     0.55336   0.48211   0.09158   0.00000  Uiso   1.00
H27    H     0.56206   0.55882   0.03348   0.00000  Uiso   1.00
H28    H     0.55745   0.40247   0.03424   0.00000  Uiso   1.00
N10    N     0.87876   0.16354   0.56583   0.00000  Uiso   1.00
H29    H     0.88900   0.10970   0.48109   0.00000  Uiso   1.00
H30    H     0.89216   0.12409   0.65723   0.00000  Uiso   1.00
