# Generated by REPEAT Assigner based on pymatgen
data_DB0-m2_o23_o27_f0_nbo.sym.53_sqe
_audit_creation_date              2022-05-24
_audit_creation_method            REPEAT_Assigner
_cell_length_a                    38.439927
_cell_length_b                    44.901731
_cell_length_c                    29.516107
_cell_angle_alpha                 90.000000
_cell_angle_beta                  130.621606
_cell_angle_gamma                 90.000000
_cell_volume                      38668.852894
_symmetry_space_group_name_H-M    P1
_symmetry_Int_Tables_number       1
loop_
    _symmetry_equiv_pos_site_id
    _symmetry_equiv_pos_as_xyz
    1  x,y,z
loop_
    _atom_site_type_symbol
    _atom_site_label
    _atom_site_fract_x
    _atom_site_fract_y
    _atom_site_fract_z
    _atom_type_partial_charge
    C   C1    0.791290  0.790807  0.082362  0.836970
    C   C2    0.288089  0.710617  0.077250  0.807123
    C   C3    0.615552  0.263004  0.048553  0.101904
    C   C4    0.926948  0.754138  0.999481  -0.515112
    C   C5    0.072261  0.754025  0.998646  -0.505578
    C   C6    0.426948  0.254138  0.999481  -0.515200
    C   C7    0.572261  0.254025  0.998646  -0.505549
    C   C8    0.934261  0.744673  0.049616  0.083588
    C   C9    0.065153  0.744485  0.948683  0.076585
    C   C10   0.434261  0.244673  0.049616  0.083678
    C   C11   0.565153  0.244485  0.948683  0.076439
    C   C12   0.898411  0.743600  0.049544  -0.140756
    C   C13   0.212253  0.209464  0.921726  0.847076
    C   C14   0.101123  0.743489  0.948961  -0.129084
    C   C15   0.398411  0.243600  0.049544  -0.140860
    C   C16   0.601123  0.243489  0.948961  -0.128810
    C   C17   0.855168  0.752793  0.999981  0.115534
    C   C18   0.144254  0.752831  0.998560  0.102432
    C   C19   0.355168  0.252793  0.999981  0.115723
    C   C20   0.644254  0.252831  0.998560  0.101902
    C   C21   0.034250  0.754406  0.998818  0.995802
    C   C22   0.964898  0.754501  0.999187  1.002166
    C   C23   0.534250  0.254406  0.998818  0.995762
    C   C24   0.788089  0.210617  0.077250  0.808297
    C   C25   0.464898  0.254501  0.999187  1.002206
    C   C26   0.635569  0.618449  0.812171  0.074397
    C   C27   0.364562  0.619317  0.185661  0.059669
    C   C28   0.135569  0.118449  0.812171  0.074448
    C   C29   0.864562  0.119317  0.185661  0.059717
    C   C30   0.602019  0.657837  0.736556  -0.202398
    C   C31   0.398353  0.658373  0.261951  -0.210279
    C   C32   0.102019  0.157837  0.736556  -0.202491
    C   C33   0.898353  0.158373  0.261951  -0.210271
    C   C34   0.578363  0.634406  0.687807  0.031779
    C   C35   0.817328  0.751793  0.000404  0.555494
    C   C36   0.421728  0.634729  0.310290  0.030971
    C   C37   0.078363  0.134406  0.687807  0.031918
    C   C38   0.921728  0.134729  0.310290  0.030941
    C   C39   0.563582  0.564583  0.625677  -0.125350
    C   C40   0.435688  0.564668  0.371200  -0.130324
    C   C41   0.063582  0.064583  0.625677  -0.125497
    C   C42   0.935688  0.064668  0.371200  -0.130342
    C   C43   0.646799  0.645164  0.791895  0.435765
    C   C44   0.353502  0.645943  0.206332  0.526431
    C   C45   0.146799  0.145164  0.791895  0.435827
    C   C46   0.182213  0.752185  0.998349  0.569314
    C   C47   0.853502  0.145943  0.206332  0.525924
    C   C48   0.615567  0.593814  0.766250  -0.301703
    C   C49   0.384309  0.594481  0.231148  -0.295670
    C   C50   0.115567  0.093814  0.766250  -0.301758
    C   C51   0.884309  0.094481  0.231148  -0.295786
    C   C52   0.606640  0.605791  0.711340  0.639199
    C   C53   0.393209  0.606211  0.286184  0.632634
    C   C54   0.106640  0.105791  0.711340  0.639050
    C   C55   0.893209  0.106211  0.286184  0.633010
    C   C56   0.652566  0.612615  0.728798  -0.230737
    C   C57   0.317328  0.251793  0.000404  0.555289
    C   C58   0.347288  0.613103  0.268683  -0.223726
    C   C59   0.152566  0.112615  0.728798  -0.230671
    C   C60   0.847288  0.113103  0.268683  -0.223912
    C   C61   0.676173  0.636717  0.776113  -0.122259
    C   C62   0.323971  0.637424  0.221835  -0.125069
    C   C63   0.176173  0.136717  0.776113  -0.122286
    C   C64   0.823971  0.137424  0.221835  -0.124580
    C   C65   0.583035  0.583186  0.664397  -0.369357
    C   C66   0.416518  0.583407  0.332740  -0.366975
    C   C67   0.083035  0.083186  0.664397  -0.369224
    C   C68   0.682213  0.252185  0.998349  0.570091
    C   C69   0.916518  0.083407  0.332740  -0.367118
    C   C70   0.670423  0.667828  0.838702  -0.221381
    C   C71   0.330073  0.668800  0.159905  -0.280151
    C   C72   0.170423  0.167828  0.838702  -0.221316
    C   C73   0.830073  0.168800  0.159905  -0.279695
    C   C74   0.689690  0.686705  0.876867  -0.226000
    C   C75   0.310821  0.687793  0.121970  -0.180781
    C   C76   0.189690  0.186705  0.876867  -0.226069
    C   C77   0.810821  0.187793  0.121970  -0.181608
    C   C78   0.039755  0.961599  0.579127  0.755666
    C   C79   0.632264  0.773452  0.012920  0.115824
    C   C80   0.958318  0.961534  0.417722  0.755949
    C   C81   0.539755  0.461599  0.579127  0.755789
    C   C82   0.458318  0.461534  0.417722  0.755883
    C   C83   0.458460  0.542345  0.416964  0.852416
    C   C84   0.540466  0.542366  0.579709  0.845368
    C   C85   0.958460  0.042345  0.416964  0.852467
    C   C86   0.040466  0.042366  0.579709  0.845430
    C   C87   0.653705  0.802813  0.023844  0.490920
    C   C88   0.352065  0.805102  0.985776  0.536368
    C   C89   0.153705  0.302813  0.023844  0.491051
    C   C90   0.372253  0.775469  0.995153  0.092526
    C   C91   0.852065  0.305102  0.985776  0.536109
    C   C92   0.868754  0.937404  0.217696  0.587116
    C   C93   0.129997  0.938468  0.779556  0.600382
    C   C94   0.368754  0.437404  0.217696  0.587161
    C   C95   0.629997  0.438468  0.779556  0.600406
    C   C96   0.779311  0.862988  0.185987  0.672188
    C   C97   0.218856  0.863525  0.811266  0.785483
    C   C98   0.279311  0.362988  0.185987  0.672259
    C   C99   0.718856  0.363525  0.811266  0.785433
    C   C100  0.930933  0.853677  0.365717  0.564749
    C   C101  0.132264  0.273452  0.012920  0.115589
    C   C102  0.066722  0.853904  0.633041  0.570312
    C   C103  0.430933  0.353677  0.365717  0.564810
    C   C104  0.566722  0.353904  0.633041  0.570270
    C   C105  0.530138  0.629376  0.662396  0.586309
    C   C106  0.469954  0.629594  0.335784  0.592755
    C   C107  0.030138  0.129376  0.662396  0.586302
    C   C108  0.969954  0.129594  0.335784  0.592808
    C   C109  0.575109  0.689586  0.000106  0.564747
    C   C110  0.431950  0.691453  0.016211  0.468301
    C   C111  0.075109  0.189586  0.000106  0.564791
    C   C112  0.208025  0.792133  0.916946  0.839703
    C   C113  0.872253  0.275469  0.995153  0.093021
    C   C114  0.931950  0.191453  0.016211  0.468195
    C   C115  0.676060  0.607859  0.873152  0.598628
    C   C116  0.324031  0.608984  0.124473  0.643671
    C   C117  0.176060  0.107859  0.873152  0.598434
    C   C118  0.824031  0.108984  0.124473  0.643755
    C   C119  0.645401  0.692963  0.993020  0.664580
    C   C120  0.355046  0.695230  0.009332  0.723091
    C   C121  0.145401  0.192963  0.993020  0.664718
    C   C122  0.855046  0.195230  0.009332  0.723051
    C   C123  0.974808  0.872322  0.340377  0.597195
    C   C124  0.596483  0.771779  0.013037  0.017247
    C   C125  0.023539  0.873174  0.659001  0.600640
    C   C126  0.474808  0.372322  0.340377  0.597146
    C   C127  0.523539  0.373174  0.659001  0.600555
    C   C128  0.410592  0.773588  0.000415  -0.008810
    C   C129  0.096483  0.271779  0.013037  0.017340
    C   C130  0.910592  0.273588  0.000415  -0.009013
    C   C131  0.576730  0.744861  0.007553  -0.458922
    C   C132  0.428855  0.746382  0.004009  -0.505217
    C   C133  0.076730  0.244861  0.007553  -0.459113
    C   C134  0.928855  0.246382  0.004009  -0.505073
    C   C135  0.593444  0.718820  0.002292  0.128830
    C   C136  0.291290  0.290807  0.082362  0.836920
    C   C137  0.409534  0.720418  0.004525  0.186828
    C   C138  0.093444  0.218820  0.002292  0.128977
    C   C139  0.909534  0.220418  0.004525  0.186604
    C   C140  0.628549  0.720354  0.000326  -0.000276
    C   C141  0.371609  0.722143  0.000533  0.001777
    C   C142  0.128549  0.220354  0.000326  -0.000574
    C   C143  0.871609  0.222143  0.000533  0.002308
    C   C144  0.647958  0.747597  0.005360  -0.114630
    C   C145  0.352856  0.749549  0.995909  -0.089615
    C   C146  0.147958  0.247597  0.005360  -0.114051
    C   C147  0.708025  0.292133  0.916946  0.840823
    C   C148  0.852856  0.249549  0.995909  -0.090772
    C   C149  0.467406  0.745816  0.004786  1.056139
    C   C150  0.537834  0.745008  0.006386  0.957445
    C   C151  0.967406  0.245816  0.004786  1.055990
    C   C152  0.037834  0.245008  0.006386  0.957523
    C   C153  0.903838  0.845737  0.262299  -0.416056
    C   C154  0.094655  0.846704  0.737059  -0.339519
    C   C155  0.403838  0.345737  0.262299  -0.416163
    C   C156  0.594655  0.346704  0.737059  -0.339603
    C   C157  0.857241  0.884362  0.185246  -0.421751
    C   C158  0.685442  0.748477  0.003926  0.723204
    C   C159  0.141750  0.885630  0.813184  -0.418317
    C   C160  0.357241  0.384362  0.185246  -0.421834
    C   C161  0.641750  0.385630  0.813184  -0.418530
    C   C162  0.887639  0.906383  0.235602  0.237433
    C   C163  0.111086  0.907437  0.762476  0.242425
    C   C164  0.387639  0.406383  0.235602  0.237389
    C   C165  0.611086  0.407437  0.762476  0.242624
    C   C166  0.935936  0.938620  0.373203  -0.073448
    C   C167  0.062027  0.938835  0.623939  -0.067746
    C   C168  0.435936  0.438620  0.373203  -0.073384
    C   C169  0.314601  0.750576  0.995743  0.653010
    C   C170  0.562027  0.438835  0.623939  -0.067870
    C   C171  0.855064  0.855748  0.210818  0.563002
    C   C172  0.143564  0.856764  0.787895  0.546811
    C   C173  0.355064  0.355748  0.210818  0.563230
    C   C174  0.643564  0.356764  0.787895  0.546374
    C   C175  0.926435  0.867104  0.315288  0.366041
    C   C176  0.071731  0.867764  0.683560  0.322558
    C   C177  0.426435  0.367104  0.315288  0.366187
    C   C178  0.571731  0.367764  0.683560  0.322882
    C   C179  0.896202  0.895430  0.291367  0.389629
    C   C180  0.185442  0.248477  0.003926  0.722625
    C   C181  0.101988  0.896047  0.706585  0.383477
    C   C182  0.396202  0.395430  0.291367  0.389506
    C   C183  0.601988  0.396047  0.706585  0.383340
    C   C184  0.850454  0.887466  0.274971  -0.389464
    C   C185  0.147476  0.887850  0.722456  -0.298554
    C   C186  0.350454  0.387466  0.274971  -0.389374
    C   C187  0.647476  0.387850  0.722456  -0.298719
    C   C188  0.830227  0.860447  0.234435  0.121748
    C   C189  0.167876  0.861018  0.763452  -0.033054
    C   C190  0.330227  0.360447  0.234435  0.121643
    C   C191  0.814601  0.250576  0.995743  0.654367
    C   C192  0.667876  0.361018  0.763452  -0.032777
    C   C193  0.917717  0.919194  0.336137  -0.357071
    C   C194  0.080280  0.919577  0.661342  -0.369741
    C   C195  0.417717  0.419194  0.336137  -0.357108
    C   C196  0.580280  0.419577  0.661342  -0.369666
    C   C197  0.831903  0.832707  0.164797  -0.237080
    C   C198  0.166998  0.833936  0.834327  -0.242066
    C   C199  0.331903  0.332707  0.164797  -0.237219
    C   C200  0.666998  0.333936  0.834327  -0.241550
    C   C201  0.813199  0.813620  0.127069  -0.206049
    C   C202  0.712253  0.709464  0.921726  0.847014
    C   C203  0.185913  0.814948  0.872250  -0.208944
    C   C204  0.313199  0.313620  0.127069  -0.205918
    C   C205  0.685913  0.314948  0.872250  -0.209782
    C   C206  0.847974  0.762771  0.950197  -0.161083
    C   C207  0.151232  0.762825  0.048184  -0.164710
    C   C208  0.347974  0.262771  0.950197  -0.161130
    C   C209  0.651232  0.262825  0.048184  -0.164497
    C   C210  0.883565  0.763022  0.949623  0.105093
    C   C211  0.115552  0.763004  0.048553  0.102054
    C   C212  0.383565  0.263022  0.949623  0.105103
    Cu  Cu1   0.773724  0.729395  0.044628  1.008330
    Cu  Cu2   0.464709  0.502172  0.498684  1.032482
    Cu  Cu3   0.033771  0.001878  0.498038  1.035961
    Cu  Cu4   0.964709  0.002172  0.498684  1.032410
    Cu  Cu5   0.226462  0.730679  0.954446  1.019754
    Cu  Cu6   0.273724  0.229395  0.044628  1.008379
    Cu  Cu7   0.726462  0.230679  0.954446  1.018730
    Cu  Cu8   0.729013  0.770840  0.959512  1.071924
    Cu  Cu9   0.270340  0.772065  0.039729  1.049737
    Cu  Cu10  0.229013  0.270840  0.959512  1.072006
    Cu  Cu11  0.770340  0.272065  0.039729  1.048930
    Cu  Cu12  0.533771  0.501878  0.498038  1.036040
    H   H1    0.584004  0.791950  0.018070  0.069500
    H   H2    0.176297  0.894918  0.848091  0.101048
    H   H3    0.620291  0.480867  0.787018  0.468532
    H   H4    0.724773  0.885444  0.119092  0.424935
    H   H5    0.273723  0.886011  0.877489  0.419807
    H   H6    0.224773  0.385444  0.119092  0.424942
    H   H7    0.773723  0.386011  0.877489  0.419810
    H   H8    0.955388  0.856986  0.448805  0.411442
    H   H9    0.041665  0.856659  0.549615  0.409554
    H   H10   0.455388  0.356986  0.448805  0.411442
    H   H11   0.541665  0.356659  0.549615  0.409566
    H   H12   0.486094  0.620332  0.674221  0.436435
    H   H13   0.322773  0.393610  0.149807  0.113536
    H   H14   0.514063  0.620613  0.324044  0.439743
    H   H15   0.986094  0.120332  0.674221  0.436425
    H   H16   0.014063  0.120613  0.324044  0.439715
    H   H17   0.560114  0.660962  0.036268  0.465498
    H   H18   0.427695  0.649223  0.993743  0.448144
    H   H19   0.060114  0.160962  0.036268  0.465488
    H   H20   0.927695  0.149223  0.993743  0.448165
    H   H21   0.704985  0.602224  0.957742  0.439768
    H   H22   0.295169  0.603701  0.039832  0.455155
    H   H23   0.204985  0.102224  0.957742  0.439726
    H   H24   0.676297  0.394918  0.848091  0.101131
    H   H25   0.795169  0.103701  0.039832  0.455181
    H   H26   0.656635  0.669917  0.946468  0.467699
    H   H27   0.351875  0.670892  0.062489  0.447008
    H   H28   0.156635  0.169917  0.946468  0.467629
    H   H29   0.851875  0.170892  0.062489  0.447065
    H   H30   0.035201  0.854806  0.376605  0.457621
    H   H31   0.963276  0.855856  0.623891  0.461786
    H   H32   0.535201  0.354806  0.376605  0.457637
    H   H33   0.463276  0.355856  0.623891  0.461789
    H   H34   0.872678  0.879547  0.164803  0.100179
    H   H35   0.126704  0.881137  0.834236  0.102500
    H   H36   0.372678  0.379547  0.164803  0.100193
    H   H37   0.626704  0.381137  0.834236  0.102527
    H   H38   0.920311  0.907232  0.244476  -0.029306
    H   H39   0.078622  0.908460  0.754109  -0.032657
    H   H40   0.420311  0.407232  0.244476  -0.029294
    H   H41   0.425093  0.793604  0.998324  0.097447
    H   H42   0.578622  0.408460  0.754109  -0.032690
    H   H43   0.836351  0.840582  0.260986  -0.002500
    H   H44   0.161426  0.840975  0.737112  0.034396
    H   H45   0.336351  0.340582  0.260986  -0.002489
    H   H46   0.661426  0.340975  0.737112  0.034377
    H   H47   0.855146  0.882558  0.315448  0.102507
    H   H48   0.142391  0.882641  0.681794  0.092206
    H   H49   0.355146  0.382558  0.315448  0.102489
    H   H50   0.642391  0.382641  0.681794  0.092213
    H   H51   0.903923  0.822257  0.273747  0.111816
    H   H52   0.084004  0.291950  0.018070  0.069496
    H   H53   0.094395  0.823117  0.725991  0.102335
    H   H54   0.403923  0.322257  0.273747  0.111837
    H   H55   0.594395  0.323117  0.725991  0.102360
    H   H56   0.826307  0.906332  0.253037  0.128297
    H   H57   0.171687  0.906698  0.743844  0.101675
    H   H58   0.326307  0.406332  0.253037  0.128282
    H   H59   0.671687  0.406698  0.743844  0.101683
    H   H60   0.814335  0.769895  0.910853  0.134343
    H   H61   0.184769  0.770077  0.087555  0.137524
    H   H62   0.314335  0.269895  0.910853  0.134347
    H   H63   0.925093  0.293604  0.998324  0.097398
    H   H64   0.684769  0.270077  0.087555  0.137438
    H   H65   0.877115  0.770695  0.910048  0.049004
    H   H66   0.121860  0.770737  0.088002  0.050051
    H   H67   0.377115  0.270695  0.910048  0.049013
    H   H68   0.621860  0.270737  0.088002  0.050028
    H   H69   0.967786  0.737402  0.088967  0.058679
    H   H70   0.031694  0.737139  0.909306  0.061297
    H   H71   0.467786  0.237402  0.088967  0.058661
    H   H72   0.531694  0.237139  0.909306  0.061280
    H   H73   0.904864  0.735911  0.089113  0.130360
    H   H74   0.923538  0.846381  0.246894  0.068983
    H   H75   0.094847  0.735791  0.909514  0.126842
    H   H76   0.404864  0.235911  0.089113  0.130394
    H   H77   0.594847  0.235791  0.909514  0.126748
    H   H78   0.583629  0.585310  0.754707  0.052840
    H   H79   0.416219  0.585948  0.242653  0.049032
    H   H80   0.083629  0.085310  0.754707  0.052835
    H   H81   0.916219  0.085948  0.242653  0.049003
    H   H82   0.609133  0.625413  0.814558  0.038895
    H   H83   0.391098  0.626296  0.183474  0.027014
    H   H84   0.109133  0.125413  0.814558  0.038888
    H   H85   0.075314  0.847678  0.752963  0.057931
    H   H86   0.891098  0.126296  0.183474  0.027033
    H   H87   0.608962  0.677747  0.721315  0.044266
    H   H88   0.391543  0.678222  0.277480  0.040038
    H   H89   0.108962  0.177747  0.721315  0.044285
    H   H90   0.891543  0.178222  0.277480  0.040060
    H   H91   0.579953  0.664656  0.746583  0.054075
    H   H92   0.420546  0.665226  0.252144  0.051071
    H   H93   0.079953  0.164656  0.746583  0.054088
    H   H94   0.920546  0.165226  0.252144  0.051080
    H   H95   0.576622  0.642855  0.651077  0.052886
    H   H96   0.423538  0.346381  0.246894  0.068993
    H   H97   0.423440  0.643017  0.347085  0.052380
    H   H98   0.076622  0.142855  0.651077  0.052866
    H   H99   0.923440  0.143017  0.347085  0.052341
    H   H100  0.710592  0.629107  0.815936  0.093526
    H   H101  0.289501  0.630004  0.181822  0.086193
    H   H102  0.210592  0.129107  0.815936  0.093535
    H   H103  0.789501  0.130004  0.181822  0.086092
    H   H104  0.680812  0.656595  0.758240  0.034335
    H   H105  0.319480  0.657217  0.240040  0.026424
    H   H106  0.180812  0.156595  0.758240  0.034336
    H   H107  0.575314  0.347678  0.752963  0.057971
    H   H108  0.819480  0.157217  0.240040  0.026261
    H   H109  0.674189  0.592313  0.746653  0.063730
    H   H110  0.325484  0.592880  0.250385  0.059987
    H   H111  0.174189  0.092313  0.746653  0.063697
    H   H112  0.825484  0.092880  0.250385  0.059979
    H   H113  0.639770  0.574860  0.784591  0.093965
    H   H114  0.359956  0.575596  0.212420  0.089095
    H   H115  0.139770  0.074860  0.784591  0.093988
    H   H116  0.859956  0.075596  0.212420  0.089071
    H   H117  0.647576  0.620411  0.689267  0.068886
    H   H118  0.822773  0.893610  0.149807  0.113531
    H   H119  0.352248  0.620705  0.308291  0.068313
    H   H120  0.147576  0.120411  0.689267  0.068891
    H   H121  0.852248  0.120705  0.308291  0.068312
    H   H122  0.648301  0.846739  0.021586  0.425427
    H   H123  0.297210  0.830421  0.948221  0.404428
    H   H124  0.148301  0.346739  0.021586  0.425398
    H   H125  0.797210  0.330421  0.948221  0.404463
    H   H126  0.878652  0.979658  0.209626  0.471286
    H   H127  0.120291  0.980867  0.787018  0.468553
    H   H128  0.378652  0.479658  0.209626  0.471251
    N   N1    0.503563  0.725119  0.973300  -0.318453
    N   N2    0.990662  0.754323  0.946992  -0.386795
    N   N3    0.508484  0.254485  0.051002  -0.385224
    N   N4    0.490662  0.254323  0.946992  -0.386835
    N   N5    0.042774  0.754600  0.050825  -0.359430
    N   N6    0.956365  0.754526  0.947167  -0.360486
    N   N7    0.542774  0.254600  0.050825  -0.359444
    N   N8    0.456365  0.254526  0.947167  -0.360576
    N   N9    0.468869  0.725451  0.972632  -0.411621
    N   N10   0.003563  0.225119  0.973300  -0.318541
    N   N11   0.968869  0.225451  0.972632  -0.411496
    N   N12   0.500590  0.766524  0.035808  -0.369904
    N   N13   0.535408  0.766085  0.036667  -0.344623
    N   N14   0.000590  0.266524  0.035808  -0.369829
    N   N15   0.035408  0.266085  0.036667  -0.344667
    N   N16   0.008484  0.754485  0.051002  -0.385122
    O   O1    0.799039  0.762977  0.099860  -0.570216
    O   O2    0.278815  0.733541  0.957848  -0.554854
    O   O3    0.324701  0.611689  0.078108  -0.635795
    O   O4    0.209087  0.096629  0.882478  -0.555136
    O   O5    0.175495  0.110369  0.919632  -0.594635
    O   O6    0.790880  0.097789  0.114874  -0.569713
    O   O7    0.824701  0.111689  0.078108  -0.635872
    O   O8    0.660138  0.672555  0.028576  -0.510642
    O   O9    0.644298  0.690098  0.945167  -0.604185
    O   O10   0.330343  0.677720  0.968360  -0.516759
    O   O11   0.366243  0.690160  0.063987  -0.625047
    O   O12   0.160138  0.172555  0.028576  -0.510703
    O   O13   0.221477  0.231576  0.041545  -0.572310
    O   O14   0.144298  0.190098  0.945167  -0.604120
    O   O15   0.830343  0.177720  0.968360  -0.516837
    O   O16   0.866243  0.190160  0.063987  -0.625162
    O   O17   0.989796  0.897231  0.345928  -0.529530
    O   O18   0.003808  0.847940  0.360129  -0.637421
    O   O19   0.008671  0.898163  0.653138  -0.524426
    O   O20   0.994549  0.848865  0.640101  -0.642833
    O   O21   0.489796  0.397231  0.345928  -0.529518
    O   O22   0.503808  0.347940  0.360129  -0.637437
    O   O23   0.508671  0.398163  0.653138  -0.524452
    O   O24   0.778815  0.233541  0.957848  -0.555131
    O   O25   0.494549  0.348865  0.640101  -0.642830
    O   O26   0.681517  0.766191  0.965354  -0.607272
    O   O27   0.318101  0.768053  0.034252  -0.571440
    O   O28   0.181517  0.266191  0.965354  -0.607211
    O   O29   0.818101  0.268053  0.034252  -0.571821
    O   O30   0.739846  0.701391  0.977976  -0.648920
    O   O31   0.260685  0.702613  0.020977  -0.631577
    O   O32   0.239846  0.201391  0.977976  -0.648914
    O   O33   0.200713  0.764338  0.899358  -0.572105
    O   O34   0.760685  0.202613  0.020977  -0.631828
    O   O35   0.700383  0.737182  0.904371  -0.600786
    O   O36   0.299366  0.738369  0.094751  -0.596024
    O   O37   0.200383  0.237182  0.904371  -0.600772
    O   O38   0.799366  0.238369  0.094751  -0.596625
    O   O39   0.821583  0.734616  0.039659  -0.591875
    O   O40   0.178367  0.735218  0.959152  -0.602128
    O   O41   0.321583  0.234616  0.039659  -0.591860
    O   O42   0.678367  0.235218  0.959152  -0.602430
    O   O43   0.780845  0.768101  0.961784  -0.620064
    O   O44   0.299039  0.262977  0.099860  -0.570170
    O   O45   0.218385  0.768690  0.037082  -0.610398
    O   O46   0.280845  0.268101  0.961784  -0.620017
    O   O47   0.718385  0.268690  0.037082  -0.610771
    O   O48   0.060849  0.972147  0.561241  -0.606747
    O   O49   0.937321  0.972365  0.435551  -0.604751
    O   O50   0.560849  0.472147  0.561241  -0.606751
    O   O51   0.437321  0.472365  0.435551  -0.604739
    O   O52   0.999236  0.970739  0.558031  -0.586171
    O   O53   0.998915  0.970452  0.438768  -0.587492
    O   O54   0.499236  0.470739  0.558031  -0.586212
    O   O55   0.700713  0.264338  0.899358  -0.572504
    O   O56   0.498915  0.470452  0.438768  -0.587490
    O   O57   0.499117  0.533350  0.438368  -0.645750
    O   O58   0.499699  0.533631  0.558291  -0.642194
    O   O59   0.999117  0.033350  0.438368  -0.645772
    O   O60   0.999699  0.033631  0.558291  -0.642172
    O   O61   0.437520  0.531933  0.435173  -0.622528
    O   O62   0.561281  0.531708  0.561490  -0.623116
    O   O63   0.937520  0.031933  0.435173  -0.622513
    O   O64   0.061281  0.031708  0.561490  -0.623098
    O   O65   0.694336  0.804954  0.049296  -0.398490
    O   O66   0.761153  0.798823  0.026213  -0.641089
    O   O67   0.628295  0.828605  0.009464  -0.550489
    O   O68   0.376343  0.827170  0.004607  -0.495919
    O   O69   0.305011  0.808581  0.951371  -0.480660
    O   O70   0.194336  0.304954  0.049296  -0.398522
    O   O71   0.128295  0.328605  0.009464  -0.550478
    O   O72   0.876343  0.327170  0.004607  -0.495958
    O   O73   0.805011  0.308581  0.951371  -0.480583
    O   O74   0.829567  0.942882  0.196136  -0.541734
    O   O75   0.896123  0.960194  0.223981  -0.610799
    O   O76   0.169053  0.943833  0.800468  -0.539482
    O   O77   0.237944  0.800126  0.973140  -0.653519
    O   O78   0.102823  0.961412  0.773261  -0.609556
    O   O79   0.329567  0.442882  0.196136  -0.541732
    O   O80   0.396123  0.460194  0.223981  -0.610795
    O   O81   0.669053  0.443833  0.800468  -0.539489
    O   O82   0.602823  0.461412  0.773261  -0.609582
    O   O83   0.754862  0.843407  0.180564  -0.563479
    O   O84   0.759285  0.887634  0.148406  -0.600673
    O   O85   0.243041  0.843855  0.816328  -0.608644
    O   O86   0.239219  0.888240  0.848610  -0.599367
    O   O87   0.254862  0.343407  0.180564  -0.563474
    O   O88   0.261153  0.298823  0.026213  -0.641110
    O   O89   0.259285  0.387634  0.148406  -0.600733
    O   O90   0.743041  0.343855  0.816328  -0.608690
    O   O91   0.739219  0.388240  0.848610  -0.599409
    O   O92   0.915295  0.829168  0.361238  -0.526271
    O   O93   0.955149  0.868944  0.419556  -0.558296
    O   O94   0.082157  0.829281  0.637747  -0.529618
    O   O95   0.042244  0.868895  0.578879  -0.548263
    O   O96   0.415295  0.329168  0.361238  -0.526290
    O   O97   0.455149  0.368944  0.419556  -0.558299
    O   O98   0.582157  0.329281  0.637747  -0.529613
    O   O99   0.737944  0.300126  0.973140  -0.653992
    O   O100  0.542244  0.368895  0.578879  -0.548308
    O   O101  0.498813  0.632267  0.608867  -0.523698
    O   O102  0.520334  0.622565  0.699047  -0.588930
    O   O103  0.501226  0.632250  0.389385  -0.524408
    O   O104  0.479831  0.622951  0.299152  -0.597051
    O   O105  0.998813  0.132267  0.608867  -0.523683
    O   O106  0.020334  0.122565  0.699047  -0.588920
    O   O107  0.001226  0.132250  0.389385  -0.524422
    O   O108  0.979831  0.122951  0.299152  -0.597043
    O   O109  0.560612  0.672375  0.959230  -0.512585
    O   O110  0.721477  0.731576  0.041545  -0.572441
    O   O111  0.573936  0.681510  0.044634  -0.560277
    O   O112  0.472963  0.688742  0.057844  -0.479322
    O   O113  0.406914  0.667126  0.979486  -0.539173
    O   O114  0.060612  0.172375  0.959230  -0.512617
    O   O115  0.073936  0.181510  0.044634  -0.560277
    O   O116  0.972963  0.188742  0.057844  -0.479326
    O   O117  0.906914  0.167126  0.979486  -0.539219
    O   O118  0.709087  0.596629  0.882478  -0.555178
    O   O119  0.675495  0.610369  0.919632  -0.594780
    O   O120  0.290880  0.597789  0.114874  -0.569647
