# Generated by REPEAT Assigner based on pymatgen
data_DB0-m2_o17_o24_f0_pcu.sym.95_sqe
_audit_creation_date              2022-05-24
_audit_creation_method            REPEAT_Assigner
_cell_length_a                    14.986629
_cell_length_b                    13.556799
_cell_length_c                    10.681775
_cell_angle_alpha                 90.000000
_cell_angle_beta                  90.000376
_cell_angle_gamma                 90.000000
_cell_volume                      2170.223918
_symmetry_space_group_name_H-M    P1
_symmetry_Int_Tables_number       1
loop_
    _symmetry_equiv_pos_site_id
    _symmetry_equiv_pos_as_xyz
    1  x,y,z
loop_
    _atom_site_type_symbol
    _atom_site_label
    _atom_site_fract_x
    _atom_site_fract_y
    _atom_site_fract_z
    _atom_type_partial_charge
    O   O1   0.370243  0.584165  0.506580  -0.750764
    O   O2   0.629728  0.415744  0.492137  -0.638034
    O   O3   0.629662  0.585371  0.503552  -0.714267
    O   O4   0.370349  0.414529  0.495614  -0.594160
    C   C1   0.328608  0.499112  0.502691  0.908782
    C   C2   0.671417  0.500748  0.496813  0.888853
    O   O5   0.501984  0.585354  0.318449  -0.669822
    O   O6   0.498125  0.414469  0.680445  -0.684505
    O   O7   0.504184  0.584227  0.682316  -0.632959
    O   O8   0.495658  0.415755  0.316600  -0.679676
    C   C3   0.498489  0.500755  0.259081  0.722459
    C   C4   0.501060  0.499149  0.739801  0.669786
    Cu  Cu1  0.499581  0.598680  0.500301  0.998791
    Cu  Cu2  0.500834  0.401262  0.498879  0.845412
    C   C5   0.517589  0.589917  0.039493  -0.022972
    C   C6   0.481202  0.409988  0.959282  0.062270
    C   C7   0.578949  0.526920  0.958965  -0.228711
    C   C8   0.419845  0.472862  0.039953  -0.052708
    C   C9   0.438589  0.562005  0.957554  -0.096640
    C   C10  0.560118  0.437789  0.041309  -0.102548
    H   H1   0.388343  0.614461  0.920658  0.075433
    H   H2   0.609915  0.384905  0.078397  0.053033
    H   H3   0.532835  0.665043  0.074535  0.077679
    H   H4   0.466128  0.334937  0.924024  -0.032093
    H   H5   0.645167  0.549170  0.922232  0.087980
    H   H6   0.353653  0.450648  0.076824  0.037668
    C   C11  0.500000  0.499088  0.879172  0.231512
    C   C12  0.498839  0.500796  0.119710  0.033460
    C   C13  0.815537  0.468371  0.392433  -0.056684
    C   C14  0.184272  0.532193  0.607628  -0.163542
    C   C15  0.769029  0.501330  0.496048  -0.024890
    C   C16  0.230856  0.498167  0.504496  -0.112955
    C   C17  0.814534  0.534431  0.599722  -0.369363
    C   C18  0.185244  0.463288  0.401901  -0.289689
    C   C19  0.906462  0.532671  0.601628  0.256571
    C   C20  0.093267  0.464953  0.399770  0.267095
    C   C21  0.953596  0.499076  0.499261  -0.010600
    C   C22  0.046048  0.498928  0.501924  -0.025402
    C   C23  0.908348  0.466659  0.394009  0.083146
    C   C24  0.091322  0.531755  0.607005  0.123837
    C   C25  0.951114  0.563757  0.706962  -0.208723
    C   C26  0.048451  0.432713  0.294893  -0.224650
    C   C27  0.042825  0.562362  0.710606  -0.210451
    C   C28  0.956697  0.434394  0.291156  -0.201389
    H   H7   0.777749  0.560043  0.680514  0.159573
    H   H8   0.222154  0.436474  0.321920  0.146953
    H   H9   0.914338  0.589352  0.787717  0.136992
    H   H10  0.084958  0.406012  0.214443  0.150519
    H   H11  0.074359  0.585912  0.796199  0.092834
    H   H12  0.924906  0.409064  0.206470  0.141141
    C   C29  0.444266  0.795460  0.578614  -0.161284
    C   C30  0.555195  0.204055  0.419908  -0.348125
    C   C31  0.553126  0.794931  0.421759  -0.200592
    C   C32  0.447708  0.205523  0.578534  -0.306114
    N   N1   0.499999  0.746300  0.502005  0.096948
    N   N2   0.499814  0.253633  0.496586  0.217050
    C   C33  0.554060  0.897164  0.418796  -0.014074
    C   C34  0.444834  0.103083  0.579758  0.256350
    C   C35  0.445211  0.897963  0.582568  0.013828
    C   C36  0.555731  0.101739  0.419221  0.280996
    C   C37  0.499914  0.948933  0.500640  0.181608
    C   C38  0.499895  0.051017  0.499627  -0.120916
    C   C39  0.609490  0.948041  0.336853  -0.020461
    C   C40  0.389867  0.052377  0.662368  -0.294781
    C   C41  0.390307  0.950101  0.664469  -0.106289
    C   C42  0.610931  0.049891  0.338131  -0.319508
    H   H13  0.400018  0.752824  0.636722  0.155502
    H   H14  0.597374  0.246087  0.358117  0.241380
    H   H15  0.595487  0.751823  0.361305  0.186607
    H   H16  0.407608  0.249316  0.641296  0.203079
    C   C43  0.765640  0.442645  0.279299  0.361875
    O   O9   0.760387  0.356907  0.245680  -0.341144
    N   N3   0.725489  0.518581  0.205978  -0.351866
    H   H17  0.755342  0.516620  0.117723  0.231926
    H   H18  0.741158  0.586287  0.247078  0.134847
    C   C44  0.234693  0.562119  0.718817  0.765032
    O   O10  0.276670  0.500663  0.777711  -0.543361
    N   N4   0.238416  0.663368  0.754950  -0.533037
    H   H19  0.212433  0.669329  0.845339  0.247628
    H   H20  0.197438  0.703045  0.694124  0.158907
    C   C45  0.668158  0.895739  0.248738  0.694910
    O   O11  0.636187  0.844537  0.166227  -0.527612
    N   N5   0.762699  0.905624  0.258069  -0.579942
    H   H21  0.790848  0.861407  0.188503  0.269352
    H   H22  0.781816  0.877149  0.344812  0.235244
    C   C46  0.332827  0.105874  0.751263  0.731053
    O   O12  0.268266  0.151834  0.713366  -0.495289
    N   N6   0.351968  0.103419  0.882175  -0.711961
    H   H23  0.360300  0.176264  0.911473  0.327285
    H   H24  0.412868  0.067238  0.894503  0.283661
    C   C47  0.331623  0.899243  0.754171  0.777702
    O   O13  0.363458  0.844567  0.833075  -0.552165
    N   N7   0.237706  0.917211  0.753093  -0.656387
    H   H25  0.208888  0.873412  0.822609  0.302606
    H   H26  0.213064  0.894162  0.666460  0.273194
    C   C48  0.670707  0.101479  0.251216  0.681041
    O   O14  0.737034  0.143021  0.291060  -0.474409
    N   N8   0.652465  0.101968  0.120017  -0.650663
    H   H27  0.645746  0.175410  0.092004  0.285867
    H   H28  0.591113  0.067170  0.106409  0.260918
