# Generated by REPEAT Assigner based on pymatgen
data_DB0-m3_o13_o20_f0_pcu.sym.2
_audit_creation_date              2022-05-24
_audit_creation_method            REPEAT_Assigner
_cell_length_a                    12.024773
_cell_length_b                    13.102136
_cell_length_c                    14.519736
_cell_angle_alpha                 89.993050
_cell_angle_beta                  85.494193
_cell_angle_gamma                 91.203815
_cell_volume                      2280.010320
_symmetry_space_group_name_H-M    P1
_symmetry_Int_Tables_number       1
loop_
    _symmetry_equiv_pos_site_id
    _symmetry_equiv_pos_as_xyz
    1  x,y,z
loop_
    _atom_site_type_symbol
    _atom_site_label
    _atom_site_fract_x
    _atom_site_fract_y
    _atom_site_fract_z
    _atom_type_partial_charge
    O   O1   0.412952  0.657564  0.503187  -0.628313
    O   O2   0.587048  0.342436  0.496813  -0.628273
    O   O3   0.604688  0.646472  0.495079  -0.638178
    O   O4   0.395312  0.353528  0.504921  -0.638170
    C   C1   0.513463  0.699777  0.498705  0.647887
    C   C2   0.486537  0.300223  0.501295  0.647837
    O   O5   0.394014  0.506668  0.641005  -0.682000
    O   O6   0.605986  0.493332  0.358995  -0.682008
    O   O7   0.585775  0.493857  0.634250  -0.676737
    O   O8   0.414225  0.506143  0.365750  -0.676728
    C   C3   0.488193  0.500173  0.680504  0.949681
    C   C4   0.511807  0.499827  0.319496  0.949684
    Zn  Zn1  0.373388  0.506356  0.503776  1.031312
    Zn  Zn2  0.626612  0.493645  0.496225  1.031299
    C   C5   0.486002  0.500359  0.779470  -0.339168
    C   C6   0.513998  0.499641  0.220530  -0.339177
    C   C7   0.489168  0.500310  0.862225  0.132134
    C   C8   0.510832  0.499691  0.137776  0.132150
    C   C9   0.496443  0.500106  0.958833  -0.044311
    C   C10  0.503558  0.499895  0.041167  -0.044327
    C   C11  0.473960  0.188521  0.502028  0.034650
    C   C12  0.526040  0.811479  0.497973  0.034623
    C   C13  0.644846  0.960962  0.491576  -0.253048
    C   C14  0.355154  0.039038  0.508424  -0.253048
    C   C15  0.631705  0.856260  0.492035  -0.147953
    C   C16  0.368295  0.143741  0.507966  -0.147947
    C   C17  0.433725  0.872918  0.503373  -0.259852
    C   C18  0.566275  0.127082  0.496627  -0.259878
    C   C19  0.447269  0.977939  0.502936  0.221567
    C   C20  0.552731  0.022062  0.497065  0.221604
    H   H1   0.649439  0.160528  0.491895  0.130258
    H   H2   0.350561  0.839472  0.508105  0.130264
    H   H3   0.294435  0.189566  0.512392  0.132586
    H   H4   0.705565  0.810434  0.487608  0.132589
    H   H5   0.727906  0.994719  0.486902  0.139200
    H   H6   0.272094  0.005281  0.513098  0.139201
    N   N1   0.206703  0.511316  0.506419  -0.110884
    N   N2   0.793297  0.488684  0.493582  -0.110858
    C   C21  0.949818  0.406909  0.419487  -0.190547
    C   C22  0.050182  0.593092  0.580513  -0.190571
    C   C23  0.836673  0.420059  0.432794  -0.056319
    C   C24  0.163327  0.579941  0.567206  -0.056253
    C   C25  0.862055  0.546538  0.543424  0.246763
    C   C26  0.137945  0.453462  0.456576  0.246753
    C   C27  0.977656  0.535121  0.531224  0.058127
    C   C28  0.022345  0.464879  0.468776  0.058145
    H   H7   0.217968  0.625680  0.606941  0.159406
    H   H8   0.782032  0.374320  0.393060  0.159442
    H   H9   0.977735  0.350334  0.369433  0.136830
    H   H10  0.022266  0.649666  0.630567  0.136844
    C   C29  0.184514  0.376951  0.388269  -0.396084
    H   H11  0.275601  0.375744  0.384813  0.158469
    H   H12  0.153083  0.299250  0.408383  0.120579
    H   H13  0.160720  0.396244  0.318151  0.123896
    C   C30  0.815486  0.623049  0.611731  -0.396090
    H   H14  0.724399  0.624256  0.615187  0.158471
    H   H15  0.839280  0.603756  0.681849  0.123899
    H   H16  0.846917  0.700750  0.591617  0.120574
