data_DB0-m3_o11_o29_f0_pcu.sym.41_repeat
_audit_creation_date              2024-02-23
_audit_creation_method            'Materials Studio'
_symmetry_space_group_name_H-M    'P1'
_symmetry_Int_Tables_number       1
_symmetry_cell_setting            triclinic
loop_
_symmetry_equiv_pos_as_xyz
  x,y,z
_cell_length_a                    27.6383
_cell_length_b                    11.1265
_cell_length_c                    9.9087
_cell_angle_alpha                 89.9974
_cell_angle_beta                  89.9930
_cell_angle_gamma                 89.9936
loop_
_atom_site_label
_atom_site_type_symbol
_atom_site_fract_x
_atom_site_fract_y
_atom_site_fract_z
_atom_site_U_iso_or_equiv
_atom_site_adp_type
_atom_site_occupancy
O1     O     0.49149   0.34326   0.63964   0.00000  Uiso   1.00
O2     O     0.49307   0.34240   0.40727   0.00000  Uiso   1.00
C1     C     0.49269   0.28669   0.52376   0.00000  Uiso   1.00
O3     O     0.41723   0.51708   0.62956   0.00000  Uiso   1.00
O4     O     0.41892   0.51630   0.39719   0.00000  Uiso   1.00
C2     C     0.39539   0.51512   0.51222   0.00000  Uiso   1.00
Zn1    Zn    0.48876   0.52266   0.67346   0.00000  Uiso   1.00
Zn2    Zn    0.49139   0.52079   0.36644   0.00000  Uiso   1.00
O5     O     0.48749   0.70101   0.63322   0.00000  Uiso   1.00
O6     O     0.48925   0.70054   0.39973   0.00000  Uiso   1.00
O7     O     0.56126   0.52715   0.64314   0.00000  Uiso   1.00
O8     O     0.56297   0.52618   0.40989   0.00000  Uiso   1.00
C3     C     0.48769   0.75668   0.51662   0.00000  Uiso   1.00
C4     C     0.58469   0.52978   0.52768   0.00000  Uiso   1.00
C5     C     0.16526   0.42247   0.45692   0.00000  Uiso   1.00
O9     O     0.18915   0.32888   0.40298   0.00000  Uiso   1.00
N1     N     0.19034   0.51472   0.51037   0.00000  Uiso   1.00
C6     C     0.16696   0.60807   0.56732   0.00000  Uiso   1.00
C7     C     0.26704   0.51483   0.63028   0.00000  Uiso   1.00
C8     C     0.31688   0.51476   0.63080   0.00000  Uiso   1.00
C9     C     0.31720   0.50976   0.38983   0.00000  Uiso   1.00
C10    C     0.26724   0.50938   0.38964   0.00000  Uiso   1.00
C11    C     0.24199   0.51258   0.50989   0.00000  Uiso   1.00
C12    C     0.09058   0.51641   0.51917   0.00000  Uiso   1.00
C13    C     0.11517   0.42213   0.46099   0.00000  Uiso   1.00
C14    C     0.08960   0.32790   0.40684   0.00000  Uiso   1.00
C15    C     0.11694   0.61008   0.57217   0.00000  Uiso   1.00
C16    C     0.34231   0.51280   0.51057   0.00000  Uiso   1.00
H1     H     0.33617   0.50830   0.29448   0.00000  Uiso   1.00
H2     H     0.24800   0.50860   0.29467   0.00000  Uiso   1.00
H3     H     0.10778   0.25374   0.35802   0.00000  Uiso   1.00
C17    C     0.63774   0.53333   0.53093   0.00000  Uiso   1.00
C18    C     0.96393   0.41702   0.48799   0.00000  Uiso   1.00
C19    C     0.96552   0.61863   0.57716   0.00000  Uiso   1.00
C20    C     0.93979   0.51820   0.53499   0.00000  Uiso   1.00
C21    C     0.93672   0.31556   0.45555   0.00000  Uiso   1.00
C22    C     0.88712   0.31703   0.46266   0.00000  Uiso   1.00
C23    C     0.86321   0.41924   0.50263   0.00000  Uiso   1.00
C24    C     0.88944   0.51915   0.53937   0.00000  Uiso   1.00
C25    C     0.86471   0.62024   0.57993   0.00000  Uiso   1.00
C26    C     0.81466   0.62076   0.58169   0.00000  Uiso   1.00
N2     N     0.78966   0.52234   0.54424   0.00000  Uiso   1.00
C27    C     0.81313   0.42189   0.50582   0.00000  Uiso   1.00
C28    C     0.71110   0.44982   0.62044   0.00000  Uiso   1.00
C29    C     0.66129   0.45443   0.61637   0.00000  Uiso   1.00
C30    C     0.66494   0.61196   0.45152   0.00000  Uiso   1.00
C31    C     0.71485   0.60721   0.45773   0.00000  Uiso   1.00
C32    C     0.73805   0.52608   0.54070   0.00000  Uiso   1.00
O10    O     0.78764   0.32525   0.46634   0.00000  Uiso   1.00
C33    C     0.01443   0.41916   0.47550   0.00000  Uiso   1.00
C34    C     0.04024   0.51695   0.52454   0.00000  Uiso   1.00
C35    C     0.01618   0.61523   0.57905   0.00000  Uiso   1.00
C36    C     0.04000   0.32623   0.41364   0.00000  Uiso   1.00
H4     H     0.64059   0.39343   0.67864   0.00000  Uiso   1.00
H5     H     0.72887   0.38691   0.68721   0.00000  Uiso   1.00
H6     H     0.86762   0.23630   0.43602   0.00000  Uiso   1.00
H7     H     0.95238   0.23082   0.42734   0.00000  Uiso   1.00
H8     H     0.02299   0.25104   0.36491   0.00000  Uiso   1.00
O11    O     0.19249   0.70069   0.61737   0.00000  Uiso   1.00
C37    C     0.09326   0.70489   0.63145   0.00000  Uiso   1.00
H9     H     0.33543   0.51684   0.72673   0.00000  Uiso   1.00
H10    H     0.24767   0.51599   0.72507   0.00000  Uiso   1.00
H11    H     0.11294   0.77853   0.67653   0.00000  Uiso   1.00
C38    C     0.93970   0.72081   0.61514   0.00000  Uiso   1.00
C39    C     0.89007   0.72122   0.61659   0.00000  Uiso   1.00
O12    O     0.79068   0.71929   0.62275   0.00000  Uiso   1.00
C40    C     0.04365   0.70761   0.63525   0.00000  Uiso   1.00
H12    H     0.95639   0.80497   0.64070   0.00000  Uiso   1.00
H13    H     0.87170   0.80275   0.64631   0.00000  Uiso   1.00
H14    H     0.73615   0.66820   0.39702   0.00000  Uiso   1.00
H15    H     0.02833   0.78309   0.68761   0.00000  Uiso   1.00
C41    C     0.49145   0.95628   0.41079   0.00000  Uiso   1.00
C42    C     0.48668   0.88824   0.52129   0.00000  Uiso   1.00
H16    H     0.49502   0.91321   0.31323   0.00000  Uiso   1.00
H17    H     0.48199   0.92732   0.62007   0.00000  Uiso   1.00
C43    C     0.49136   0.08942   0.41341   0.00000  Uiso   1.00
C44    C     0.49365   0.15500   0.52678   0.00000  Uiso   1.00
H18    H     0.48988   0.13477   0.31674   0.00000  Uiso   1.00
H19    H     0.49633   0.11415   0.62528   0.00000  Uiso   1.00
C45    C     0.51453   0.59553   0.94426   0.00000  Uiso   1.00
N3     N     0.48663   0.52653   0.87519   0.00000  Uiso   1.00
H20    H     0.54047   0.65200   0.89224   0.00000  Uiso   1.00
H21    H     0.45836   0.48674   0.92545   0.00000  Uiso   1.00
C46    C     0.51046   0.60513   0.09285   0.00000  Uiso   1.00
N4     N     0.49418   0.51795   0.16474   0.00000  Uiso   1.00
H22    H     0.52346   0.68588   0.14204   0.00000  Uiso   1.00
H23    H     0.48814   0.43789   0.11603   0.00000  Uiso   1.00
C47    C     0.64315   0.70906   0.36590   0.00000  Uiso   1.00
C48    C     0.65701   0.69157   0.22157   0.00000  Uiso   1.00
C49    C     0.68286   0.77951   0.15433   0.00000  Uiso   1.00
C50    C     0.69556   0.76350   0.02096   0.00000  Uiso   1.00
C51    C     0.68252   0.65980   0.95425   0.00000  Uiso   1.00
C52    C     0.65676   0.57196   0.02094   0.00000  Uiso   1.00
C53    C     0.64400   0.58774   0.15432   0.00000  Uiso   1.00
H24    H     0.65748   0.79642   0.40180   0.00000  Uiso   1.00
H25    H     0.60339   0.71478   0.37381   0.00000  Uiso   1.00
H26    H     0.69332   0.86140   0.20523   0.00000  Uiso   1.00
H27    H     0.71576   0.83243   0.96865   0.00000  Uiso   1.00
H28    H     0.69250   0.64740   0.84970   0.00000  Uiso   1.00
H29    H     0.64654   0.49058   0.96863   0.00000  Uiso   1.00
H30    H     0.62385   0.51816   0.20539   0.00000  Uiso   1.00
