# Generated by REPEAT Assigner based on pymatgen
data_DB0-m3_o3_o24_f0_pcu.sym.22
_audit_creation_date              2022-05-24
_audit_creation_method            REPEAT_Assigner
_cell_length_a                    19.412962
_cell_length_b                    18.234413
_cell_length_c                    10.800190
_cell_angle_alpha                 90.000000
_cell_angle_beta                  90.016643
_cell_angle_gamma                 90.000000
_cell_volume                      3823.093828
_symmetry_space_group_name_H-M    P1
_symmetry_Int_Tables_number       1
loop_
    _symmetry_equiv_pos_site_id
    _symmetry_equiv_pos_as_xyz
    1  x,y,z
loop_
    _atom_site_type_symbol
    _atom_site_label
    _atom_site_fract_x
    _atom_site_fract_y
    _atom_site_fract_z
    _atom_type_partial_charge
    O   O1   0.397385  0.563211  0.500426  -0.692725
    O   O2   0.602615  0.436788  0.499580  -0.692599
    O   O3   0.602647  0.563368  0.498319  -0.670585
    O   O4   0.397354  0.436632  0.501688  -0.670578
    C   C1   0.365107  0.499932  0.501375  0.763575
    C   C2   0.634893  0.500068  0.498631  0.763665
    O   O5   0.499405  0.562808  0.314793  -0.714658
    O   O6   0.500599  0.437192  0.685216  -0.714764
    O   O7   0.500679  0.563867  0.683925  -0.785094
    O   O8   0.499323  0.436133  0.316074  -0.785188
    C   C3   0.499169  0.499260  0.257943  0.862688
    C   C4   0.500844  0.500746  0.742071  0.863554
    Zn  Zn1  0.500002  0.583474  0.499198  1.088745
    Zn  Zn2  0.499998  0.416525  0.500804  1.088779
    C   C5   0.444554  0.536259  0.040314  -0.310114
    C   C6   0.555565  0.463778  0.959731  -0.304696
    C   C7   0.501932  0.569510  0.960515  -0.004406
    C   C8   0.498199  0.430527  0.039536  -0.009650
    C   C9   0.446150  0.469101  0.958763  0.541583
    C   C10  0.554005  0.530945  0.041291  0.536505
    H   H1   0.397136  0.563862  0.073633  0.073620
    H   H2   0.602878  0.436079  0.926280  0.072730
    H   H3   0.506053  0.627106  0.928410  0.026067
    H   H4   0.493918  0.372906  0.071550  0.026948
    C   C11  0.501681  0.501271  0.879754  -0.095695
    C   C12  0.498447  0.498765  0.120294  -0.090237
    C   C13  0.746452  0.434503  0.499228  -0.102513
    C   C14  0.253546  0.565500  0.500794  -0.102396
    C   C15  0.253511  0.434448  0.502704  -0.101474
    C   C16  0.746491  0.565553  0.497276  -0.101595
    H   H5   0.719736  0.382522  0.500028  0.117651
    H   H6   0.280260  0.617482  0.500030  0.117616
    H   H7   0.280195  0.382450  0.503473  0.121645
    H   H8   0.719808  0.617553  0.496505  0.121638
    C   C17  0.817488  0.434609  0.499419  -0.352196
    C   C18  0.182511  0.565391  0.500604  -0.352377
    C   C19  0.182477  0.434600  0.502533  -0.346297
    C   C20  0.817526  0.565399  0.497464  -0.345986
    H   H9   0.845283  0.383239  0.500345  0.170563
    H   H10  0.154714  0.616760  0.499719  0.170607
    H   H11  0.154652  0.383247  0.503125  0.167445
    H   H12  0.845353  0.616751  0.496893  0.167407
    C   C21  0.853132  0.499994  0.498609  0.660384
    C   C22  0.146870  0.500005  0.501385  0.660533
    C   C23  0.710492  0.500041  0.498252  -0.082800
    C   C24  0.289508  0.499961  0.501739  -0.082825
    C   C25  0.964796  0.500899  0.388841  0.532606
    C   C26  0.035208  0.499101  0.611159  0.531371
    C   C27  0.035833  0.500912  0.389527  0.532018
    C   C28  0.964171  0.499083  0.610467  0.533157
    C   C29  0.071447  0.500015  0.500691  -0.921826
    C   C30  0.928557  0.499982  0.499305  -0.922950
    C   C31  0.544149  0.729758  0.424724  -0.037518
    C   C32  0.455853  0.270240  0.575283  -0.037678
    C   C33  0.455674  0.729682  0.572012  -0.014173
    C   C34  0.544326  0.270316  0.427993  -0.014137
    H   H13  0.579399  0.699801  0.366070  0.152254
    H   H14  0.420604  0.300198  0.633939  0.152280
    H   H15  0.420497  0.699663  0.630714  0.158393
    H   H16  0.579505  0.300332  0.369291  0.158230
    C   C35  0.544836  0.805394  0.423867  -0.343971
    C   C36  0.455162  0.194604  0.576134  -0.343786
    C   C37  0.455011  0.805296  0.573210  -0.375185
    C   C38  0.544986  0.194703  0.426791  -0.375112
    H   H17  0.580519  0.834532  0.364851  0.183618
    H   H18  0.419478  0.165465  0.635148  0.183592
    H   H19  0.419398  0.834353  0.632474  0.185807
    H   H20  0.580598  0.165646  0.367524  0.185845
    C   C39  0.499957  0.843596  0.498699  0.674235
    C   C40  0.500040  0.156402  0.501302  0.674070
    N   N1   0.499922  0.693172  0.498341  -0.041235
    N   N2   0.500078  0.306827  0.501665  -0.041108
    C   C41  0.462494  0.962453  0.411687  0.522310
    C   C42  0.537505  0.037548  0.588316  0.522170
    C   C43  0.537557  0.961917  0.587580  0.516195
    C   C44  0.462444  0.038083  0.412423  0.516016
    C   C45  0.499940  0.076082  0.500756  -0.897634
    C   C46  0.500059  0.923917  0.499247  -0.897750
    N   N3   0.385000  0.434100  0.908951  -0.879050
    H   H21  0.355501  0.416152  0.983858  0.294303
    H   H22  0.356707  0.474223  0.862354  0.304291
    N   N4   0.615225  0.565885  0.091054  -0.879743
    H   H23  0.644759  0.583890  0.016208  0.294914
    H   H24  0.643520  0.525794  0.137757  0.304823
    N   N5   0.929640  0.501673  0.272891  -0.877082
    H   H25  0.898871  0.548562  0.268602  0.325189
    H   H26  0.898530  0.455089  0.267216  0.320757
    N   N6   0.070360  0.498337  0.727116  -0.877090
    H   H27  0.101461  0.544928  0.732798  0.320779
    H   H28  0.101138  0.451455  0.731418  0.325331
    N   N7   0.071638  0.501691  0.274251  -0.878645
    H   H29  0.102766  0.455099  0.269130  0.324095
    H   H30  0.102439  0.548573  0.270548  0.323627
    N   N8   0.928364  0.498298  0.725738  -0.878683
    H   H31  0.897562  0.451416  0.729427  0.323613
    H   H32  0.897234  0.544889  0.730853  0.324038
    N   N9   0.422856  0.924996  0.320230  -0.860760
    H   H33  0.455856  0.892675  0.266900  0.323022
    H   H34  0.387030  0.891464  0.364867  0.327747
    N   N10  0.577140  0.075011  0.679770  -0.860737
    H   H35  0.612960  0.108548  0.635129  0.327754
    H   H36  0.544136  0.107329  0.733099  0.323023
    N   N11  0.577239  0.923903  0.678320  -0.864758
    H   H37  0.544278  0.891223  0.731103  0.328190
    H   H38  0.613075  0.890687  0.633043  0.327484
    N   N12  0.422767  0.076096  0.321676  -0.864589
    H   H39  0.386931  0.109315  0.366946  0.327446
    H   H40  0.455732  0.108774  0.268897  0.328103
