# Generated by REPEAT Assigner based on pymatgen
data_DB0-m3_o2_o13_f0_pcu.sym.24
_audit_creation_date              2022-05-24
_audit_creation_method            REPEAT_Assigner
_cell_length_a                    13.107091
_cell_length_b                    15.229098
_cell_length_c                    14.086509
_cell_angle_alpha                 90.004924
_cell_angle_beta                  95.389700
_cell_angle_gamma                 90.003524
_cell_volume                      2799.365138
_symmetry_space_group_name_H-M    P1
_symmetry_Int_Tables_number       1
loop_
    _symmetry_equiv_pos_site_id
    _symmetry_equiv_pos_as_xyz
    1  x,y,z
loop_
    _atom_site_type_symbol
    _atom_site_label
    _atom_site_fract_x
    _atom_site_fract_y
    _atom_site_fract_z
    _atom_type_partial_charge
    O   O1   0.498192  0.370719  0.588009  -0.669312
    O   O2   0.507699  0.633879  0.420147  -0.671809
    O   O3   0.499054  0.372456  0.424911  -0.426256
    O   O4   0.507276  0.632288  0.583975  -0.651218
    C   C1   0.499185  0.330061  0.505722  0.490301
    C   C2   0.507479  0.674060  0.502645  0.756271
    O   O5   0.350474  0.505408  0.576783  -0.613205
    O   O6   0.655190  0.499330  0.431343  -0.698939
    O   O7   0.350120  0.507586  0.413393  -0.652232
    O   O8   0.655496  0.496600  0.594870  -0.489064
    C   C3   0.302134  0.509378  0.490818  0.710912
    C   C4   0.703480  0.495144  0.517354  0.627520
    Zn  Zn1  0.503956  0.501965  0.612166  0.981350
    Zn  Zn2  0.501680  0.502661  0.396181  0.986228
    C   C5   0.815988  0.488233  0.527018  0.126145
    C   C6   0.189616  0.516103  0.481051  0.130018
    C   C7   0.031375  0.566302  0.399789  -0.054802
    C   C8   0.974203  0.437689  0.608023  -0.067250
    C   C9   0.136772  0.562224  0.406888  -0.071753
    C   C10  0.868793  0.441645  0.600826  -0.080850
    C   C11  0.135298  0.476066  0.548321  -0.273551
    C   C12  0.870320  0.528401  0.459841  -0.270519
    C   C13  0.028992  0.479575  0.541407  0.223688
    C   C14  0.976609  0.524695  0.466612  0.151418
    H   H1   0.827559  0.563920  0.403211  0.125744
    H   H2   0.178087  0.440780  0.605117  0.083649
    C   C15  0.475022  0.096623  0.583547  -0.118829
    C   C16  0.580368  0.906594  0.462000  -0.048479
    H   H3   0.452921  0.063489  0.646227  0.116138
    H   H4   0.640671  0.940100  0.429301  0.088761
    C   C17  0.472685  0.187240  0.581681  -0.221775
    C   C18  0.578381  0.816091  0.459008  -0.223401
    H   H5   0.446234  0.221730  0.641770  0.156442
    H   H6   0.635468  0.781126  0.423209  0.134727
    C   C19  0.503096  0.233212  0.504474  0.177646
    C   C20  0.506538  0.770128  0.504280  0.073275
    C   C21  0.538499  0.186048  0.429189  -0.078076
    C   C22  0.434638  0.815593  0.550970  -0.095401
    C   C23  0.538107  0.095624  0.430764  -0.047453
    C   C24  0.434828  0.906134  0.551570  -0.009833
    H   H7   0.562564  0.061695  0.369556  0.068279
    H   H8   0.374741  0.939572  0.584672  0.062536
    C   C25  0.506893  0.049748  0.507502  0.048526
    C   C26  0.507940  0.952730  0.507686  0.009499
    C   C27  0.442832  0.441723  0.101061  -0.026257
    C   C28  0.580526  0.544842  0.909324  0.008334
    H   H9   0.400005  0.390994  0.061702  0.059172
    H   H10  0.643464  0.576275  0.950826  0.045809
    C   C29  0.439410  0.442615  0.198494  -0.041470
    C   C30  0.581063  0.547143  0.811622  -0.078202
    N   N1   0.496721  0.500260  0.253677  0.106286
    N   N2   0.508539  0.504272  0.754665  0.092937
    C   C31  0.552853  0.560836  0.212414  -0.069977
    C   C32  0.431992  0.462897  0.793807  -0.082046
    H   H11  0.596981  0.608217  0.256142  0.161511
    H   H12  0.372663  0.430147  0.748513  0.162878
    C   C33  0.553339  0.564747  0.114576  -0.185024
    C   C34  0.426163  0.463687  0.891124  -0.130740
    H   H13  0.595731  0.617515  0.085782  0.149269
    H   H14  0.360023  0.433422  0.917409  0.122838
    C   C35  0.499573  0.503422  0.056732  0.121885
    C   C36  0.502078  0.503795  0.951336  0.066170
    Br  Br1  0.802108  0.373868  0.691304  -0.029157
    Br  Br2  0.203344  0.628995  0.315505  -0.038305
    Br  Br3  0.966843  0.632759  0.295547  -0.037691
    Br  Br4  0.038718  0.370686  0.711837  -0.037584
    Br  Br5  0.597665  0.238035  0.323304  -0.090434
    Br  Br6  0.327755  0.756159  0.608389  -0.075898
    Br  Br7  0.348046  0.361736  0.250130  0.010467
    Br  Br8  0.685085  0.616460  0.761961  0.020164
