# Generated by REPEAT Assigner based on pymatgen
data_DB0-m3_o480_o20_f0_fsc.sym.12_sqe
_audit_creation_date              2022-05-24
_audit_creation_method            REPEAT_Assigner
_cell_length_a                    8.592726
_cell_length_b                    10.863777
_cell_length_c                    12.763900
_cell_angle_alpha                 90.000000
_cell_angle_beta                  90.000000
_cell_angle_gamma                 90.000000
_cell_volume                      1191.503171
_symmetry_space_group_name_H-M    P1
_symmetry_Int_Tables_number       1
loop_
    _symmetry_equiv_pos_site_id
    _symmetry_equiv_pos_as_xyz
    1  x,y,z
loop_
    _atom_site_type_symbol
    _atom_site_label
    _atom_site_fract_x
    _atom_site_fract_y
    _atom_site_fract_z
    _atom_type_partial_charge
    C   C1   0.958968  0.564858  0.997301  0.008992
    C   C2   0.958968  0.435142  0.002699  0.008971
    C   C3   0.818489  0.628384  0.991159  0.185277
    C   C4   0.818489  0.371616  0.008841  0.185265
    C   C5   0.681401  0.562367  0.993648  -0.192165
    C   C6   0.681401  0.437633  0.006352  -0.192098
    C   C7   0.457903  0.016473  0.657226  0.216051
    C   C8   0.457903  0.983527  0.342774  0.216099
    Zn  Zn1  0.457939  0.011661  0.884964  1.073324
    Zn  Zn2  0.457939  0.988339  0.115036  1.073317
    C   C9   0.818133  0.243536  0.018474  -0.204812
    C   C10  0.818133  0.756464  0.981526  -0.204831
    C   C11  0.956784  0.182467  0.030923  -0.098235
    C   C12  0.956784  0.817533  0.969077  -0.098276
    C   C13  0.095833  0.241511  0.016012  -0.115723
    C   C14  0.095833  0.758489  0.983988  -0.115715
    C   C15  0.096420  0.366948  0.998090  -0.123350
    C   C16  0.096420  0.633052  0.001910  -0.123350
    N   N1   0.457914  0.022784  0.747720  -0.056820
    N   N2   0.457914  0.977216  0.252281  -0.056852
    H   H1   0.205082  0.408864  0.978816  0.101111
    H   H2   0.205082  0.591136  0.021184  0.101111
    H   H3   0.956018  0.915142  0.955446  0.117390
    H   H4   0.956018  0.084858  0.044554  0.117302
    O   O1   0.624546  0.116643  0.097714  -0.712322
    O   O2   0.624442  0.136087  0.917877  -0.690414
    O   O3   0.624546  0.883357  0.902287  -0.712347
    O   O4   0.624442  0.863913  0.082123  -0.690407
    C   C17  0.678146  0.165797  0.011205  0.889749
    C   C18  0.678146  0.834203  0.988795  0.889780
    C   C19  0.457899  0.005356  0.546989  0.041754
    C   C20  0.457899  0.994644  0.453011  0.041707
    O   O5   0.290220  0.884136  0.902584  -0.740979
    O   O6   0.292448  0.863203  0.082278  -0.654222
    O   O7   0.290220  0.115864  0.097416  -0.740979
    O   O8   0.292448  0.136797  0.917723  -0.654270
    C   C21  0.237674  0.834133  0.989450  0.874838
    C   C22  0.237674  0.165867  0.010550  0.874914
    C   C23  0.530719  0.619147  0.976806  0.757695
    O   O9   0.461359  0.664616  0.050340  -0.469784
    O   O10  0.462509  0.612922  0.877984  -0.601927
    H   H5   0.356387  0.652734  0.877848  0.394648
    C   C24  0.530719  0.380853  0.023194  0.757619
    O   O11  0.461359  0.335384  0.949660  -0.469760
    O   O12  0.462509  0.387078  0.122016  -0.601904
    H   H6   0.356387  0.347266  0.122152  0.394629
