# Generated by REPEAT Assigner based on pymatgen
data_DB0-m2_o23_o26_f0_pcu.sym.113_sqe
_audit_creation_date              2022-05-24
_audit_creation_method            REPEAT_Assigner
_cell_length_a                    14.438730
_cell_length_b                    15.870280
_cell_length_c                    17.394940
_cell_angle_alpha                 90.006885
_cell_angle_beta                  86.240503
_cell_angle_gamma                 89.926821
_cell_volume                      3977.411774
_symmetry_space_group_name_H-M    P1
_symmetry_Int_Tables_number       1
loop_
    _symmetry_equiv_pos_site_id
    _symmetry_equiv_pos_as_xyz
    1  x,y,z
loop_
    _atom_site_type_symbol
    _atom_site_label
    _atom_site_fract_x
    _atom_site_fract_y
    _atom_site_fract_z
    _atom_type_partial_charge
    O   O1   0.433949  0.617249  0.511721  -0.630991
    O   O2   0.593094  0.616365  0.515159  -0.594888
    C   C1   0.513696  0.656050  0.513796  0.852602
    O   O3   0.426325  0.490298  0.624965  -0.597719
    O   O4   0.585581  0.495498  0.623113  -0.612366
    C   C2   0.503760  0.492304  0.660216  0.631853
    Cu  Cu1  0.419720  0.494889  0.513255  0.972729
    Cu  Cu2  0.605132  0.493850  0.510975  0.921687
    O   O5   0.431834  0.372365  0.508972  -0.626733
    O   O6   0.590833  0.371520  0.512612  -0.610729
    O   O7   0.439263  0.493351  0.401101  -0.569248
    O   O8   0.598567  0.498326  0.399267  -0.580361
    C   C3   0.511221  0.332692  0.510396  0.875757
    C   C4   0.521149  0.496426  0.364009  0.602124
    C   C5   0.498764  0.490275  0.744676  -0.000713
    C   C6   0.578987  0.492810  0.783812  -0.083593
    C   C7   0.574567  0.490069  0.863213  -0.233019
    C   C8   0.489432  0.485231  0.904708  0.277135
    C   C9   0.409623  0.481469  0.865274  -0.213360
    C   C10  0.413970  0.484416  0.785935  -0.094168
    C   C11  0.451168  0.499774  0.160742  -0.210178
    C   C12  0.446340  0.497359  0.240167  -0.090135
    C   C13  0.611505  0.502151  0.238465  -0.064162
    C   C14  0.616259  0.504755  0.159113  -0.236958
    C   C15  0.536549  0.502611  0.119481  0.263587
    C   C16  0.479994  0.481029  0.989567  -0.238695
    C   C17  0.546297  0.506684  0.034650  -0.225537
    C   C18  0.526420  0.498273  0.279528  -0.017935
    H   H1   0.646348  0.496231  0.753016  0.101076
    H   H2   0.378830  0.495516  0.270823  0.109825
    H   H3   0.675303  0.503439  0.267618  0.110341
    H   H4   0.611143  0.531182  0.009433  0.141848
    H   H5   0.342692  0.476814  0.896649  0.115795
    H   H6   0.386864  0.501650  0.132552  0.124078
    H   H7   0.350120  0.481691  0.756936  0.114227
    H   H8   0.415287  0.456369  0.014942  0.145481
    H   H9   0.639093  0.489610  0.891106  0.126819
    H   H10  0.683395  0.507836  0.127879  0.125045
    C   C19  0.429738  0.946110  0.479043  -0.156693
    C   C20  0.600806  0.947345  0.465338  0.535844
    C   C21  0.605104  0.042262  0.473541  -0.149156
    H   H11  0.446159  0.057255  0.408205  0.032460
    H   H12  0.423467  0.916644  0.421814  0.047774
    H   H13  0.590450  0.931505  0.404437  -0.094586
    H   H14  0.614578  0.070993  0.415459  0.046712
    H   H15  0.665665  0.059278  0.506158  0.029725
    C   C22  0.511228  0.242338  0.510619  -0.281743
    C   C23  0.516686  0.914616  0.514254  0.334674
    C   C24  0.434957  0.040962  0.470109  -0.113587
    C   C25  0.514929  0.074230  0.513566  0.230827
    C   C26  0.502952  0.042279  0.596493  0.588338
    C   C27  0.516046  0.947567  0.596442  -0.157625
    C   C28  0.512440  0.166458  0.511555  -0.176188
    C   C29  0.515015  0.822325  0.514337  -0.200546
    C   C30  0.514170  0.746424  0.514213  -0.271404
    H   H16  0.457828  0.918273  0.631538  0.025152
    H   H17  0.581468  0.932001  0.623095  0.024572
    H   H18  0.431053  0.057220  0.618568  -0.103181
    H   H19  0.367883  0.929261  0.517071  0.044685
    H   H20  0.368781  0.069631  0.493201  0.043545
    C   C31  0.964582  0.398042  0.488327  0.886806
    C   C32  0.953680  0.513696  0.593186  0.399410
    C   C33  0.058706  0.524896  0.589796  -0.429984
    H   H21  0.081553  0.371516  0.561168  0.075106
    H   H22  0.921626  0.576026  0.605973  -0.034259
    H   H23  0.091421  0.491313  0.636616  0.124882
    H   H24  0.075067  0.592883  0.594442  0.074067
    N   N1   0.281273  0.494346  0.513335  -0.160291
    C   C34  0.924821  0.485979  0.513251  0.084783
    C   C35  0.068135  0.400986  0.505368  -0.422327
    C   C36  0.099876  0.491486  0.513702  0.786961
    C   C37  0.068540  0.546466  0.449293  -0.424895
    C   C38  0.963752  0.551899  0.456173  0.163297
    C   C39  0.201151  0.493299  0.513475  -0.105072
    C   C40  0.823606  0.490658  0.511573  -0.045448
    N   N2   0.743628  0.494154  0.510995  -0.158147
    H   H25  0.935555  0.544336  0.398810  0.031152
    H   H26  0.943216  0.615532  0.477449  -0.020778
    H   H27  0.093277  0.519955  0.392701  0.081326
    H   H28  0.113177  0.368964  0.460283  0.066924
    H   H29  0.097884  0.610614  0.454333  0.097823
    N   N3   0.687054  0.910714  0.487261  -0.830606
    C   C41  0.740039  0.873202  0.425103  0.508422
    C   C42  0.765108  0.789295  0.428933  -0.277704
    C   C43  0.818005  0.752688  0.369028  -0.047014
    C   C44  0.847191  0.799918  0.305551  -0.208155
    C   C45  0.823819  0.883971  0.302094  -0.069449
    C   C46  0.770668  0.920673  0.361781  -0.311387
    H   H30  0.681571  0.872417  0.534917  0.324529
    H   H31  0.742804  0.751416  0.478361  0.131438
    H   H32  0.836645  0.686844  0.371886  0.091644
    H   H33  0.888825  0.771169  0.258711  0.112099
    H   H34  0.847439  0.921263  0.252651  0.108714
    H   H35  0.753977  0.986897  0.358863  0.150787
    N   N4   0.567982  0.080537  0.645868  -0.834719
    C   C47  0.525344  0.118373  0.712800  0.488933
    C   C48  0.542077  0.202204  0.728371  -0.232129
    C   C49  0.502486  0.239060  0.794401  -0.172822
    C   C50  0.446789  0.192277  0.845561  -0.117784
    C   C51  0.431138  0.108341  0.830968  -0.110523
    C   C52  0.470618  0.071276  0.764998  -0.268494
    H   H36  0.616922  0.118963  0.618529  0.329102
    H   H37  0.585600  0.239808  0.688814  0.115871
    H   H38  0.515339  0.304703  0.806153  0.154980
    H   H39  0.415926  0.221272  0.897346  0.088231
    H   H40  0.388228  0.071385  0.871485  0.109462
    H   H41  0.459034  0.005052  0.754993  0.131133
    N   N5   0.915054  0.329060  0.528888  -0.701450
    C   C53  0.963348  0.260195  0.560015  0.416078
    C   C54  0.940821  0.235858  0.635277  -0.243359
    C   C55  0.983978  0.167544  0.666445  -0.093747
    C   C56  0.049031  0.122042  0.622369  -0.132392
    C   C57  0.070463  0.144596  0.546877  -0.144632
    C   C58  0.027429  0.212890  0.515534  -0.200960
    H   H42  0.856493  0.345076  0.562199  0.285480
    H   H43  0.889752  0.270656  0.670733  0.121333
    H   H44  0.966539  0.149558  0.725554  0.102312
    H   H45  0.082773  0.068434  0.646828  0.104945
    H   H46  0.121001  0.108535  0.512020  0.122835
    H   H47  0.045257  0.228865  0.456284  0.119535
    N   N6   0.921885  0.455559  0.653465  -0.833446
    C   C59  0.940911  0.482575  0.728213  0.482541
    C   C60  0.004482  0.439120  0.769047  -0.212549
    C   C61  0.020532  0.462912  0.843223  -0.103705
    C   C62  0.971784  0.529234  0.877380  -0.159482
    C   C63  0.906337  0.571205  0.837597  -0.074437
    C   C64  0.890339  0.547534  0.763364  -0.250803
    H   H48  0.851375  0.447182  0.652765  0.332127
    H   H49  0.041921  0.386387  0.742703  0.123178
    H   H50  0.071005  0.429260  0.874742  0.122145
    H   H51  0.984167  0.547747  0.935619  0.121870
    H   H52  0.867162  0.622450  0.864763  0.106823
    H   H53  0.837899  0.580029  0.733054  0.133593
    N   N7   0.955879  0.388353  0.405704  -0.855139
    C   C65  0.905812  0.317759  0.380131  0.501376
    C   C66  0.950405  0.260620  0.330171  -0.255461
    C   C67  0.902378  0.194194  0.300812  -0.128634
    C   C68  0.808722  0.185420  0.319250  -0.131206
    C   C69  0.762867  0.243849  0.366257  -0.113100
    C   C70  0.810765  0.310325  0.395650  -0.265242
    H   H54  0.017603  0.395018  0.373503  0.296271
    H   H55  0.023772  0.266685  0.314411  0.112218
    H   H56  0.938247  0.149165  0.262882  0.115565
    H   H57  0.771016  0.133595  0.295892  0.098459
    H   H58  0.688962  0.238060  0.379579  0.121699
    H   H59  0.772781  0.356186  0.430520  0.163341
