# Generated by REPEAT Assigner based on pymatgen
data_DB0-m3_o20_o45_f0_fsc.sym.46
_audit_creation_date              2022-05-24
_audit_creation_method            REPEAT_Assigner
_cell_length_a                    12.708912
_cell_length_b                    12.880974
_cell_length_c                    8.517319
_cell_angle_alpha                 90.000000
_cell_angle_beta                  93.294809
_cell_angle_gamma                 90.000000
_cell_volume                      1392.007208
_symmetry_space_group_name_H-M    P1
_symmetry_Int_Tables_number       1
loop_
    _symmetry_equiv_pos_site_id
    _symmetry_equiv_pos_as_xyz
    1  x,y,z
loop_
    _atom_site_type_symbol
    _atom_site_label
    _atom_site_fract_x
    _atom_site_fract_y
    _atom_site_fract_z
    _atom_type_partial_charge
    C   C1   0.704949  0.967975  0.152170  -0.110175
    C   C2   0.295062  0.968012  0.847837  -0.110815
    C   C3   0.806701  0.005108  0.168745  0.224660
    C   C4   0.193297  0.005107  0.831256  0.225225
    C   C5   0.866127  0.013616  0.037973  0.256597
    C   C6   0.133870  0.013612  0.962029  0.256359
    C   C7   0.817306  0.000811  0.888037  -0.236332
    C   C8   0.182692  0.000814  0.111968  -0.236266
    H   H1   0.858328  0.014073  0.782180  0.062008
    H   H2   0.141663  0.014054  0.217824  0.061940
    C   C9   0.713574  0.967642  0.873343  0.017128
    C   C10  0.286437  0.967681  0.126664  0.017157
    C   C11  0.661859  0.944425  0.005507  -0.267263
    C   C12  0.338166  0.944498  0.994503  -0.266937
    N   N1   0.976930  0.023172  0.062421  -0.074239
    N   N2   0.023066  0.023154  0.937580  -0.074589
    N   N3   0.500027  0.220506  0.500005  -0.125749
    N   N4   0.499980  0.712935  0.500001  -0.076506
    H   H3   0.582268  0.917567  0.992392  0.189051
    H   H4   0.417772  0.917686  0.007621  0.188862
    C   C13  0.500020  0.310327  0.500004  0.269055
    C   C14  0.499987  0.623111  0.500001  0.207224
    O   O1   0.603631  0.876449  0.334743  -0.711299
    O   O2   0.396212  0.056960  0.664840  -0.654154
    O   O3   0.396356  0.876467  0.665258  -0.711354
    O   O4   0.603814  0.056942  0.335170  -0.653932
    Zn  Zn1  0.500015  0.084181  0.500004  1.032356
    Zn  Zn2  0.499992  0.849260  0.500002  1.123242
    C   C15  0.636011  0.966771  0.283359  0.848925
    C   C16  0.363995  0.966795  0.716644  0.849392
    O   O5   0.386541  0.055674  0.329363  -0.665215
    O   O6   0.613373  0.877775  0.670881  -0.726683
    O   O7   0.613485  0.055655  0.670644  -0.665177
    O   O8   0.386614  0.877794  0.329124  -0.726663
    C   C17  0.349826  0.966787  0.275892  0.797644
    C   C18  0.650179  0.966761  0.724117  0.797699
    C   C19  0.500009  0.419944  0.500003  0.004124
    C   C20  0.499998  0.513492  0.500002  0.059905
    N   N5   0.850818  0.031361  0.319350  -0.762857
    C   C21  0.872018  0.133420  0.335548  0.753634
    O   O9   0.889460  0.185970  0.220888  -0.517296
    C   C22  0.869137  0.183273  0.493079  -0.509362
    H   H5   0.817192  0.999092  0.414910  0.379473
    H   H6   0.923289  0.142213  0.578561  0.185051
    H   H7   0.787902  0.179061  0.533776  0.147758
    H   H8   0.893008  0.265806  0.484658  0.126020
    N   N6   0.149170  0.031336  0.680648  -0.763058
    C   C23  0.127952  0.133391  0.664426  0.753827
    O   O10  0.110504  0.185948  0.779074  -0.517376
    C   C24  0.130825  0.183228  0.506883  -0.508789
    H   H9   0.182801  0.999064  0.585094  0.379460
    H   H10  0.076679  0.142152  0.421413  0.184887
    H   H11  0.212059  0.179024  0.466186  0.147664
    H   H12  0.106941  0.265758  0.515285  0.125758
