# Generated by REPEAT Assigner based on pymatgen
data_DB0-m29_o82_o109_f0_pts.sym.74
_audit_creation_date              2022-05-24
_audit_creation_method            REPEAT_Assigner
_cell_length_a                    14.486755
_cell_length_b                    11.721619
_cell_length_c                    15.724410
_cell_angle_alpha                 90.633692
_cell_angle_beta                  91.798982
_cell_angle_gamma                 101.122933
_cell_volume                      2618.286910
_symmetry_space_group_name_H-M    P1
_symmetry_Int_Tables_number       1
loop_
    _symmetry_equiv_pos_site_id
    _symmetry_equiv_pos_as_xyz
    1  x,y,z
loop_
    _atom_site_type_symbol
    _atom_site_label
    _atom_site_fract_x
    _atom_site_fract_y
    _atom_site_fract_z
    _atom_type_partial_charge
    C   C1   0.246746  0.965671  0.885001  0.105146
    C   C2   0.157718  0.932707  0.848305  -0.192452
    C   C3   0.079052  0.932263  0.894892  -0.062968
    C   C4   0.909639  0.039919  0.907677  -0.110777
    C   C5   0.255211  0.985823  0.972618  -0.144879
    C   C6   0.175016  0.988290  0.019186  0.120072
    C   C7   0.086542  0.972521  0.978592  0.046443
    C   C8   0.007158  0.985342  0.025042  -0.060882
    C   C9   0.822478  0.042265  0.871389  -0.182449
    C   C10  0.742207  0.001358  0.914668  0.119268
    C   C11  0.918837  0.995660  0.988487  0.071818
    C   C12  0.839213  0.976462  0.037759  0.101410
    C   C13  0.749684  0.971364  0.999548  -0.122080
    C   C14  0.182708  0.004737  0.106706  -0.143861
    C   C15  0.103538  0.999014  0.152950  -0.200475
    C   C16  0.016634  0.988396  0.112872  0.226637
    C   C17  0.939511  0.983158  0.162170  -0.243646
    C   C18  0.851270  0.972014  0.125429  -0.097057
    H   H1   0.147717  0.906726  0.782021  0.148240
    H   H2   0.011855  0.898234  0.863752  0.099693
    H   H3   0.970198  0.076939  0.871922  0.118157
    H   H4   0.817465  0.072028  0.806901  0.145484
    H   H5   0.248942  0.016749  0.142168  0.123221
    H   H6   0.110451  0.005663  0.221558  0.134076
    H   H7   0.947573  0.985445  0.230774  0.146288
    H   H8   0.794557  0.969897  0.168343  0.114767
    O   O1   0.597436  0.006232  0.037295  -0.497716
    C   C19  0.663780  0.945283  0.049465  0.515391
    O   O2   0.463010  0.735142  0.103187  -0.467015
    O   O3   0.653706  0.863062  0.106180  -0.464272
    O   O4   0.493594  0.865884  0.213232  -0.563400
    C   C20  0.475731  0.757304  0.185156  0.511910
    Fe  Fe1  0.497231  0.981141  0.121586  1.425789
    O   O5   0.375625  0.919530  0.057372  -0.562568
    O   O6   0.397919  0.110806  0.023463  -0.544567
    C   C21  0.347514  0.005103  0.016894  0.692858
    O   O7   0.517677  0.138854  0.177866  -0.641716
    O   O8   0.421776  0.050352  0.279847  -0.564881
    C   C22  0.471252  0.144532  0.247522  0.634515
    O   O9   0.465850  0.862130  0.710231  -0.505465
    O   O10  0.557436  0.939182  0.601859  -0.566583
    C   C23  0.504336  0.850014  0.637106  0.536654
    O   O11  0.634171  0.070319  0.816466  -0.588803
    O   O12  0.586389  0.895282  0.877347  -0.529089
    C   C24  0.650771  0.989690  0.869046  0.539667
    O   O13  0.312014  0.957623  0.746764  -0.530042
    O   O14  0.506555  0.135313  0.671850  -0.506253
    C   C25  0.473169  0.225822  0.698010  0.458044
    O   O15  0.415031  0.010628  0.857662  -0.440934
    C   C26  0.327855  0.975456  0.828896  0.490684
    O   O16  0.438193  0.224238  0.774003  -0.442693
    Fe  Fe2  0.504268  0.021026  0.763951  1.400201
    C   C27  0.476762  0.661073  0.244501  0.151435
    C   C28  0.478393  0.551709  0.213515  -0.246303
    C   C29  0.477779  0.460982  0.268419  0.242367
    C   C30  0.478478  0.353072  0.234130  -0.229574
    C   C31  0.471975  0.258804  0.285725  0.074335
    C   C32  0.477228  0.679351  0.331350  -0.223114
    C   C33  0.479779  0.588792  0.388476  0.067064
    C   C34  0.476624  0.477544  0.355863  -0.059415
    C   C35  0.472432  0.382761  0.409397  0.100762
    C   C36  0.496347  0.717961  0.513029  -0.212786
    C   C37  0.483431  0.606530  0.476922  0.102853
    C   C38  0.477187  0.511667  0.530895  -0.080133
    C   C39  0.493115  0.733648  0.599222  0.154085
    C   C40  0.481478  0.639994  0.651571  -0.309600
    C   C41  0.466846  0.272508  0.372174  -0.202540
    C   C42  0.473154  0.400137  0.498021  0.088712
    C   C43  0.472510  0.309092  0.554997  -0.247482
    C   C44  0.476902  0.529059  0.618725  0.271207
    C   C45  0.475069  0.437022  0.674111  -0.218008
    C   C46  0.473488  0.326419  0.641860  0.131633
    H   H9   0.471796  0.765426  0.351479  0.195002
    H   H10  0.509643  0.796114  0.476842  0.160605
    H   H11  0.460711  0.193840  0.407404  0.141904
    H   H12  0.471191  0.221272  0.534887  0.212677
    H   H13  0.479336  0.535933  0.145757  0.145995
    H   H14  0.480595  0.341786  0.165965  0.192893
    H   H15  0.481274  0.657616  0.718892  0.173997
    C   C47  0.483713  0.458985  0.766318  0.395852
    C   C48  0.564674  0.460271  0.814545  -0.264252
    C   C49  0.543003  0.484825  0.895211  -0.120925
    C   C50  0.450490  0.496950  0.890535  0.108663
    O   O17  0.413835  0.481477  0.812023  -0.175045
    H   H16  0.631471  0.445250  0.792870  0.165286
    H   H17  0.588941  0.493281  0.951382  0.153825
    H   H18  0.411444  0.517035  0.944353  0.109115
