# Generated by REPEAT Assigner based on pymatgen
data_DB0-m3_o14_o23_f0_pcu.sym.122_sqe
_audit_creation_date              2022-05-24
_audit_creation_method            REPEAT_Assigner
_cell_length_a                    15.954707
_cell_length_b                    10.998830
_cell_length_c                    9.819651
_cell_angle_alpha                 90.000177
_cell_angle_beta                  89.989603
_cell_angle_gamma                 89.999231
_cell_volume                      1723.182790
_symmetry_space_group_name_H-M    P1
_symmetry_Int_Tables_number       1
loop_
    _symmetry_equiv_pos_site_id
    _symmetry_equiv_pos_as_xyz
    1  x,y,z
loop_
    _atom_site_type_symbol
    _atom_site_label
    _atom_site_fract_x
    _atom_site_fract_y
    _atom_site_fract_z
    _atom_type_partial_charge
    O   O1   0.505041  0.317956  0.613685  -0.531915
    O   O2   0.507067  0.317461  0.382045  -0.682126
    C   C1   0.509762  0.259529  0.498843  0.675527
    O   O3   0.374103  0.493106  0.614443  -0.731354
    O   O4   0.374268  0.491099  0.381812  -0.736309
    C   C2   0.334978  0.489901  0.498091  0.928636
    Zn  Zn1  0.498828  0.498250  0.652839  0.977168
    Zn  Zn2  0.498928  0.498438  0.343196  1.069375
    O   O5   0.494659  0.679018  0.615783  -0.523451
    O   O6   0.493070  0.679956  0.380117  -0.643871
    O   O7   0.623697  0.506815  0.616330  -0.714484
    O   O8   0.623731  0.509179  0.379521  -0.684544
    C   C3   0.490405  0.737105  0.499105  0.681230
    C   C4   0.662418  0.510166  0.497960  0.890867
    C   C5   0.044512  0.438743  0.626544  -0.134564
    C   C6   0.044643  0.431433  0.373956  -0.209639
    C   C7   0.949994  0.426261  0.381583  0.048717
    H   H1   0.922482  0.355248  0.640895  0.039541
    H   H2   0.063386  0.341715  0.628684  0.019921
    H   H3   0.064044  0.479675  0.279954  0.029139
    H   H4   0.070106  0.337630  0.371592  0.034553
    H   H5   0.930811  0.330888  0.400820  -0.011622
    H   H6   0.921822  0.453738  0.283434  -0.039254
    C   C8   0.752356  0.511068  0.498033  -0.172099
    C   C9   0.077891  0.498094  0.497683  0.757968
    C   C10  0.949647  0.447543  0.629908  -0.138215
    C   C11  0.919528  0.505354  0.498610  0.560779
    C   C12  0.954714  0.634211  0.492631  -0.014116
    C   C13  0.049747  0.629662  0.491870  -0.350790
    C   C14  0.827874  0.509453  0.498230  -0.365920
    C   C15  0.169531  0.493297  0.497812  -0.393847
    C   C16  0.245037  0.490682  0.497939  -0.194327
    H   H7   0.073635  0.678328  0.582841  0.085997
    H   H8   0.075884  0.674374  0.400331  0.062725
    H   H9   0.935701  0.681086  0.587711  0.020895
    H   H10  0.070884  0.485175  0.717171  0.023137
    H   H11  0.929913  0.503271  0.718400  0.029055
    H   H12  0.503339  0.107978  0.285039  0.130802
    C   C17  0.541336  0.109267  0.747055  -0.188088
    H   H13  0.578528  0.190893  0.751304  0.103899
    C   C18  0.525390  0.052428  0.868838  -0.086787
    H   H14  0.544786  0.094055  0.963446  0.093364
    C   C19  0.480998  0.946064  0.869972  -0.078252
    H   H15  0.462815  0.905014  0.965538  0.091887
    C   C20  0.463096  0.888751  0.749158  -0.242995
    H   H16  0.425399  0.807764  0.755580  0.117859
    C   C21  0.488542  0.938309  0.625147  0.162151
    C   C22  0.514343  0.058828  0.624443  0.177063
    C   C23  0.513010  0.124493  0.502102  -0.153298
    C   C24  0.503393  0.060918  0.381617  -0.125129
    H   H17  0.494881  0.888824  0.285261  0.096997
    C   C25  0.496280  0.935822  0.381842  -0.059965
    C   C26  0.488072  0.872323  0.502747  -0.180522
    H   H18  0.585454  0.636572  0.122461  0.173051
    C   C27  0.396211  0.333657  0.136394  -0.193782
    H   H19  0.392956  0.327403  0.243898  0.193165
    C   C28  0.345792  0.253656  0.067668  -0.092068
    H   H20  0.306597  0.190630  0.123175  0.102787
    C   C29  0.345302  0.254112  0.929091  -0.013167
    H   H21  0.305681  0.191502  0.873817  0.093165
    C   C30  0.395395  0.334362  0.860078  -0.189403
    H   H22  0.391302  0.328962  0.752581  0.149056
    C   C31  0.447348  0.416409  0.927360  0.189851
    C   C32  0.447576  0.416319  0.068836  0.174625
    N   N1   0.496965  0.495355  0.138845  -0.082554
    C   C33  0.545764  0.573202  0.068446  -0.084191
    H   H23  0.585483  0.636161  0.872945  0.128080
    C   C34  0.545777  0.572964  0.927204  0.023163
    N   N2   0.496855  0.495079  0.857085  -0.086289
    C   C35  0.919419  0.708167  0.377540  0.649578
    O   O9   0.876677  0.796861  0.404355  -0.555216
    N   N3   0.932524  0.676054  0.238163  -0.646647
    H   H24  0.896149  0.734846  0.179227  0.293213
    H   H25  0.995064  0.692453  0.213336  0.251815
