# Generated by REPEAT Assigner based on pymatgen
data_DB0-m3_o14_o29_f0_pcu.sym.48_sqe
_audit_creation_date              2022-05-24
_audit_creation_method            REPEAT_Assigner
_cell_length_a                    27.607336
_cell_length_b                    11.036988
_cell_length_c                    9.815694
_cell_angle_alpha                 90.000179
_cell_angle_beta                  90.007612
_cell_angle_gamma                 89.994666
_cell_volume                      2990.860115
_symmetry_space_group_name_H-M    P1
_symmetry_Int_Tables_number       1
loop_
    _symmetry_equiv_pos_site_id
    _symmetry_equiv_pos_as_xyz
    1  x,y,z
loop_
    _atom_site_type_symbol
    _atom_site_label
    _atom_site_fract_x
    _atom_site_fract_y
    _atom_site_fract_z
    _atom_type_partial_charge
    O   O1   0.504492  0.323445  0.615114  -0.563201
    O   O2   0.505477  0.320753  0.383976  -0.684295
    C   C1   0.506701  0.263528  0.501389  0.743032
    O   O3   0.428895  0.498435  0.614760  -0.681339
    O   O4   0.429061  0.494683  0.382434  -0.693650
    C   C2   0.406132  0.494549  0.498479  0.764384
    Zn  Zn1  0.500947  0.503239  0.653835  0.986118
    Zn  Zn2  0.501187  0.501180  0.344446  1.069450
    O   O5   0.498762  0.683475  0.616495  -0.564763
    O   O6   0.498064  0.682257  0.380597  -0.653753
    O   O7   0.573187  0.511515  0.617878  -0.659388
    O   O8   0.573287  0.511056  0.381513  -0.643453
    C   C3   0.496335  0.740405  0.498828  0.725390
    C   C4   0.595816  0.513396  0.499769  0.687221
    C   C5   0.177531  0.383484  0.526572  0.412593
    O   O9   0.204113  0.286851  0.562779  -0.435535
    N   N1   0.201076  0.486729  0.495972  -0.150033
    C   C6   0.176745  0.588317  0.464939  0.458534
    C   C7   0.277722  0.475150  0.617690  -0.213056
    C   C8   0.327673  0.477605  0.618516  -0.013225
    C   C9   0.327831  0.504687  0.377042  -0.033548
    C   C10  0.277891  0.503830  0.376807  -0.216377
    C   C11  0.252704  0.488497  0.496911  0.238208
    C   C12  0.101509  0.484424  0.494662  0.108793
    C   C13  0.126869  0.378481  0.519894  -0.160462
    C   C14  0.100626  0.272224  0.541195  0.126774
    C   C15  0.126811  0.589559  0.468542  -0.146851
    C   C16  0.353018  0.491936  0.498028  -0.119425
    H   H1   0.346733  0.516533  0.281579  0.104985
    H   H2   0.258509  0.513933  0.281772  0.135574
    C   C17  0.648950  0.515352  0.499903  -0.039013
    C   C18  0.974938  0.381437  0.494220  0.116946
    C   C19  0.976603  0.597957  0.505345  0.069361
    C   C20  0.950646  0.490724  0.501093  -0.036675
    C   C21  0.948117  0.276890  0.472569  -0.269137
    C   C22  0.898357  0.279901  0.463798  0.154884
    C   C23  0.873539  0.388674  0.482207  -0.170730
    C   C24  0.900305  0.493188  0.502930  0.096149
    C   C25  0.876430  0.601233  0.524460  -0.113891
    C   C26  0.826514  0.604100  0.529069  0.440093
    N   N2   0.800827  0.503587  0.502882  -0.146376
    C   C27  0.822947  0.397442  0.476773  0.417432
    C   C28  0.724110  0.530073  0.620714  -0.173518
    C   C29  0.674156  0.532067  0.620286  -0.095398
    C   C30  0.674310  0.497253  0.380057  -0.084161
    C   C31  0.724228  0.493631  0.381180  -0.165233
    C   C32  0.749253  0.509563  0.501497  0.203606
    O   O10  0.795000  0.301466  0.447137  -0.425006
    C   C33  0.025416  0.379452  0.507337  0.124913
    C   C34  0.051161  0.486297  0.496157  -0.050334
    C   C35  0.026654  0.595435  0.486820  0.087614
    C   C36  0.050829  0.273279  0.532408  -0.260131
    H   H3   0.655264  0.546692  0.715279  0.119406
    H   H4   0.743505  0.542251  0.715419  0.130912
    H   H5   0.964886  0.190246  0.454766  0.119663
    H   H6   0.032890  0.188444  0.552023  0.122329
    O   O11  0.201465  0.689830  0.435574  -0.489589
    C   C37  0.102112  0.695715  0.444799  0.019398
    H   H7   0.346478  0.467393  0.714381  0.076069
    H   H8   0.258205  0.463945  0.712337  0.135700
    H   H9   0.120909  0.778044  0.418555  0.068907
    C   C38  0.951980  0.705442  0.529644  -0.188636
    C   C39  0.902524  0.706253  0.542120  0.001607
    O   O12  0.803158  0.708264  0.555079  -0.485747
    C   C40  0.052687  0.699638  0.457047  -0.200900
    H   H10  0.970178  0.790439  0.546605  0.125939
    H   H11  0.655568  0.483482  0.284661  0.109815
    H   H12  0.884815  0.791335  0.563187  0.070955
    H   H13  0.743725  0.478307  0.287231  0.125775
    H   H14  0.035635  0.785284  0.435384  0.124581
    H   H15  0.512623  0.111410  0.289064  0.095287
    C   C41  0.510698  0.111200  0.756581  -0.155986
    H   H16  0.531599  0.192215  0.771982  0.091653
    C   C42  0.495517  0.052769  0.872557  -0.165225
    H   H17  0.501566  0.093349  0.971333  0.127195
    C   C43  0.470895  0.945685  0.862096  -0.013812
    H   H18  0.455990  0.903079  0.951956  0.074688
    C   C44  0.467545  0.889408  0.737772  -0.298245
    H   H19  0.446855  0.806696  0.733801  0.141697
    C   C45  0.488121  0.940943  0.621871  0.222657
    C   C46  0.502196  0.061861  0.627894  0.151911
    C   C47  0.507567  0.128133  0.506293  -0.220506
    C   C48  0.507853  0.064413  0.384683  -0.055491
    H   H20  0.508440  0.892579  0.286991  0.101580
    C   C49  0.504226  0.939389  0.382939  -0.083544
    C   C50  0.494250  0.875436  0.500858  -0.212466
    H   H21  0.551781  0.637676  0.124488  0.136116
    C   C51  0.441392  0.338307  0.136846  -0.163149
    H   H22  0.439848  0.331117  0.244390  0.176822
    C   C52  0.411668  0.260180  0.067766  -0.131419
    H   H23  0.388830  0.197609  0.122998  0.111261
    C   C53  0.411205  0.261583  0.929140  0.035836
    H   H24  0.388003  0.200095  0.873553  0.078124
    C   C54  0.440535  0.340918  0.860439  -0.142050
    H   H25  0.438261  0.335573  0.752900  0.134428
    C   C55  0.470897  0.421715  0.928073  0.167895
    C   C56  0.471277  0.420389  0.069594  0.179365
    N   N3   0.500282  0.497702  0.140020  -0.135857
    C   C57  0.528593  0.575364  0.070056  -0.006292
    H   H26  0.551449  0.639321  0.874884  0.129988
    C   C58  0.528328  0.576487  0.928767  0.011135
    N   N4   0.499626  0.500209  0.858166  -0.115840
    C   C59  0.123448  0.155440  0.569905  0.241283
    C   C60  0.121516  0.107537  0.699683  -0.025281
    Cl  Cl1  0.091071  0.185290  0.829540  -0.109419
    C   C61  0.144656  0.999806  0.728241  -0.094890
    C   C62  0.169862  0.940120  0.627310  -0.150969
    C   C63  0.171264  0.987123  0.497175  0.094747
    C   C64  0.147425  0.093663  0.467899  -0.339730
    H   H27  0.143539  0.962909  0.830207  0.105073
    H   H28  0.188502  0.856488  0.650352  0.119810
    H   H29  0.191071  0.940593  0.417943  0.089063
    H   H30  0.148738  0.130665  0.365989  0.143050
    C   C65  0.874054  0.165184  0.434780  0.226493
    C   C66  0.873537  0.120611  0.303475  -0.020769
    Cl  Cl2  0.903241  0.199349  0.173056  -0.113289
    C   C67  0.848576  0.015688  0.274095  -0.105104
    C   C68  0.824012  0.955497  0.375866  -0.135347
    C   C69  0.825178  0.998938  0.507626  0.092527
    C   C70  0.850745  0.102815  0.537493  -0.330584
    H   H31  0.847708  0.981531  0.170909  0.108631
    H   H32  0.803791  0.874420  0.352001  0.115777
    H   H33  0.805846  0.952143  0.587558  0.086045
    H   H34  0.851253  0.137465  0.640498  0.138844
