# Generated by REPEAT Assigner based on pymatgen
data_DB0-m3_o25_o510_f0_fsc.sym.81
_audit_creation_date              2022-05-24
_audit_creation_method            REPEAT_Assigner
_cell_length_a                    8.548161
_cell_length_b                    13.077825
_cell_length_c                    14.222786
_cell_angle_alpha                 90.597798
_cell_angle_beta                  90.003169
_cell_angle_gamma                 95.312242
_cell_volume                      1583.068421
_symmetry_space_group_name_H-M    P1
_symmetry_Int_Tables_number       1
loop_
    _symmetry_equiv_pos_site_id
    _symmetry_equiv_pos_as_xyz
    1  x,y,z
loop_
    _atom_site_type_symbol
    _atom_site_label
    _atom_site_fract_x
    _atom_site_fract_y
    _atom_site_fract_z
    _atom_type_partial_charge
    C   C1   0.147978  0.723620  0.972971  -0.174265
    C   C2   0.807383  0.317154  0.011660  -0.114338
    C   C3   0.159378  0.828371  0.990064  0.267349
    C   C4   0.795795  0.211121  0.002608  0.222210
    C   C5   0.023859  0.879004  0.998781  0.056469
    C   C6   0.931627  0.160091  0.997898  0.133992
    C   C7   0.878731  0.822442  0.997443  -0.121231
    C   C8   0.076988  0.216560  0.997117  -0.322319
    H   H1   0.772436  0.857163  0.014206  0.074310
    H   H2   0.183913  0.180719  0.984754  0.172343
    C   C9   0.868529  0.719359  0.975684  -0.146757
    C   C10  0.086659  0.321255  0.009990  -0.035737
    C   C11  0.002564  0.671643  0.959291  -0.126218
    C   C12  0.952664  0.370168  0.021302  -0.207409
    C   C13  0.035981  0.991311  0.012300  -0.203034
    C   C14  0.919637  0.047523  0.986864  -0.212460
    H   H3   0.143034  0.027881  0.042779  0.173430
    H   H4   0.813103  0.010724  0.956166  0.172245
    H   H5   0.993725  0.590565  0.943822  0.129118
    H   H6   0.961449  0.452181  0.031250  0.163984
    O   O1   0.325425  0.615057  0.902651  -0.712351
    O   O2   0.629504  0.425062  0.082117  -0.751937
    O   O3   0.334005  0.641401  0.063226  -0.711676
    O   O4   0.621027  0.398800  0.921495  -0.735447
    C   C15  0.283054  0.662498  0.979008  0.871278
    C   C16  0.671768  0.377621  0.005680  0.917893
    O   O5   0.291912  0.429333  0.080813  -0.760401
    O   O6   0.663264  0.610880  0.904015  -0.722217
    O   O7   0.295339  0.402806  0.920111  -0.735987
    O   O8   0.659705  0.637375  0.064695  -0.707807
    C   C17  0.235995  0.383775  0.003875  0.911467
    C   C18  0.719366  0.656321  0.981074  0.867676
    Zn  Zn1  0.478629  0.533882  0.096540  1.093391
    Zn  Zn2  0.476437  0.506327  0.888245  1.089808
    C   C19  0.610301  0.563735  0.527916  -0.186231
    C   C20  0.344812  0.476530  0.456871  -0.195985
    C   C21  0.597161  0.476407  0.456055  -0.199972
    C   C22  0.357952  0.563859  0.528730  -0.185727
    H   H7   0.696805  0.440669  0.423324  0.104693
    H   H8   0.258309  0.599596  0.561463  0.098597
    H   H9   0.720739  0.599351  0.559953  0.098623
    H   H10  0.234374  0.440915  0.424835  0.100695
    H   H11  0.451965  0.338377  0.530036  0.096412
    H   H12  0.503148  0.701889  0.454749  0.096694
    N   N1   0.479549  0.547529  0.219566  0.065567
    N   N2   0.475513  0.492709  0.765217  0.065446
    C   C23  0.491551  0.619327  0.473107  -0.173230
    C   C24  0.463563  0.420938  0.511678  -0.170134
    C   C25  0.478398  0.531836  0.403056  0.786884
    C   C26  0.476714  0.508429  0.581729  0.788707
    C   C27  0.479172  0.542490  0.300738  -0.324432
    C   C28  0.475914  0.497764  0.684045  -0.329884
    O   O9   0.303909  0.882299  0.993849  -0.382746
    C   C29  0.327252  0.921644  0.903495  0.128231
    H   H13  0.340867  0.006744  0.907286  0.021691
    H   H14  0.224727  0.896187  0.858537  0.008814
    C   C30  0.473224  0.882806  0.860833  0.193647
    H   H15  0.576314  0.908931  0.904792  -0.030029
    H   H16  0.459654  0.797750  0.857843  -0.007872
    C   C31  0.497888  0.924213  0.762299  -0.305504
    H   H17  0.395466  0.897696  0.717608  0.056372
    H   H18  0.605384  0.895743  0.731904  0.064233
    H   H19  0.511845  0.009352  0.764799  0.055780
    O   O10  0.651181  0.156917  0.998271  -0.399569
    C   C32  0.598505  0.150011  0.091295  0.255409
    H   H20  0.477320  0.173604  0.094837  -0.025074
    H   H21  0.675433  0.201137  0.137894  -0.034349
    C   C33  0.599788  0.040561  0.125056  0.180081
    H   H22  0.537598  0.987374  0.073481  0.030968
    H   H23  0.722757  0.021448  0.132452  -0.006348
    C   C34  0.518751  0.029192  0.219633  -0.385630
    H   H24  0.578830  0.083852  0.271015  0.074639
    H   H25  0.523973  0.949640  0.244899  0.086185
    H   H26  0.394078  0.045048  0.212650  0.068981
