# Generated by REPEAT Assigner based on pymatgen
data_DB0-m3_o104_o25_f0_fsc.sym.47
_audit_creation_date              2022-05-24
_audit_creation_method            REPEAT_Assigner
_cell_length_a                    6.520761
_cell_length_b                    12.328502
_cell_length_c                    14.193410
_cell_angle_alpha                 89.898315
_cell_angle_beta                  89.931364
_cell_angle_gamma                 80.404988
_cell_volume                      1125.060992
_symmetry_space_group_name_H-M    P1
_symmetry_Int_Tables_number       1
loop_
    _symmetry_equiv_pos_site_id
    _symmetry_equiv_pos_as_xyz
    1  x,y,z
loop_
    _atom_site_type_symbol
    _atom_site_label
    _atom_site_fract_x
    _atom_site_fract_y
    _atom_site_fract_z
    _atom_type_partial_charge
    C   C1   0.172036  0.250109  0.966090  -0.081583
    C   C2   0.827964  0.749890  0.033910  -0.081567
    C   C3   0.289559  0.153996  0.933694  -0.236905
    C   C4   0.710440  0.846004  0.066307  -0.236924
    C   C5   0.221069  0.054750  0.945983  0.056039
    C   C6   0.778930  0.945250  0.054017  0.056059
    C   C7   0.364974  0.950739  0.923947  0.072150
    C   C8   0.635025  0.049261  0.076054  0.072142
    C   C9   0.249401  0.856606  0.903843  -0.200182
    C   C10  0.750599  0.143394  0.096158  -0.200192
    C   C11  0.984126  0.247213  0.009489  -0.224300
    C   C12  0.015873  0.752787  0.990511  -0.224317
    C   C13  0.922670  0.147591  0.027937  0.200898
    C   C14  0.077329  0.852409  0.972063  0.200915
    C   C15  0.036378  0.051984  0.992797  -0.102653
    C   C16  0.963622  0.948016  0.007203  -0.102675
    H   H1   0.439870  0.156258  0.902138  0.125900
    H   H2   0.560129  0.843742  0.097862  0.125904
    H   H3   0.461026  0.963967  0.861772  -0.005068
    H   H4   0.538973  0.036032  0.138229  -0.005064
    H   H5   0.182209  0.867543  0.832032  0.045813
    H   H6   0.817790  0.132456  0.167968  0.045821
    H   H7   0.640057  0.222137  0.093725  0.109302
    H   H8   0.359943  0.777863  0.906275  0.109298
    H   H9   0.530817  0.072515  0.015474  0.041939
    H   H10  0.469183  0.927485  0.984526  0.041939
    O   O1   0.353241  0.386977  0.902735  -0.655010
    O   O2   0.646758  0.613023  0.097265  -0.655003
    O   O3   0.298262  0.380620  0.063160  -0.736920
    O   O4   0.701737  0.619380  0.936840  -0.736922
    C   C17  0.271191  0.347251  0.976896  0.867973
    C   C18  0.728808  0.652749  0.023104  0.867965
    O   O5   0.722781  0.374812  0.087924  -0.736006
    O   O6   0.277218  0.625188  0.912076  -0.735999
    O   O7   0.774168  0.390805  0.927895  -0.707338
    O   O8   0.225832  0.609194  0.072105  -0.707338
    C   C19  0.826711  0.346143  0.010225  0.860192
    C   C20  0.173288  0.653857  0.989775  0.860187
    Zn  Zn1  0.471571  0.493067  0.103929  1.070554
    Zn  Zn2  0.528428  0.506932  0.896071  1.070566
    C   C21  0.395954  0.595255  0.531124  -0.254965
    C   C22  0.604045  0.404745  0.468876  -0.254879
    C   C23  0.568796  0.579950  0.458615  -0.037925
    C   C24  0.431203  0.420050  0.541385  -0.038011
    H   H11  0.314429  0.675512  0.557745  0.121640
    H   H12  0.685570  0.324488  0.442255  0.121623
    H   H13  0.869380  0.490955  0.534178  0.071687
    H   H14  0.130619  0.509044  0.465823  0.071664
    N   N1   0.438980  0.486449  0.226578  0.055379
    N   N2   0.561019  0.513551  0.773422  0.055376
    C   C25  0.297771  0.506389  0.481856  -0.163017
    C   C26  0.702229  0.493611  0.518144  -0.163110
    C   C27  0.472260  0.492669  0.410343  0.695635
    C   C28  0.527739  0.507330  0.589658  0.695702
    C   C29  0.449407  0.488359  0.307920  -0.286567
    C   C30  0.550593  0.511640  0.692081  -0.286570
    C   C31  0.645986  0.671324  0.408324  0.378729
    H   H15  0.713816  0.731696  0.447778  -0.001975
    O   O9   0.632802  0.678271  0.322791  -0.343384
    C   C32  0.354014  0.328676  0.591676  0.378734
    H   H16  0.286183  0.268303  0.552222  -0.001974
    O   O10  0.367198  0.321729  0.677209  -0.343379
