# Generated by REPEAT Assigner based on pymatgen
data_DB0-m3_o21_o27_f0_pcu.sym.4
_audit_creation_date              2022-05-24
_audit_creation_method            REPEAT_Assigner
_cell_length_a                    12.959951
_cell_length_b                    14.100547
_cell_length_c                    19.338906
_cell_angle_alpha                 90.010764
_cell_angle_beta                  93.521121
_cell_angle_gamma                 88.910118
_cell_volume                      3526.726752
_symmetry_space_group_name_H-M    P1
_symmetry_Int_Tables_number       1
loop_
    _symmetry_equiv_pos_site_id
    _symmetry_equiv_pos_as_xyz
    1  x,y,z
loop_
    _atom_site_type_symbol
    _atom_site_label
    _atom_site_fract_x
    _atom_site_fract_y
    _atom_site_fract_z
    _atom_type_partial_charge
    O   O1   0.405577  0.639384  0.502020  -0.710604
    O   O2   0.594981  0.360068  0.497906  -0.711760
    O   O3   0.584002  0.642055  0.511324  -0.671561
    O   O4   0.416556  0.357397  0.488601  -0.671635
    C   C1   0.493037  0.684678  0.508774  0.967603
    C   C2   0.507522  0.314774  0.491152  0.969066
    O   O5   0.408656  0.488856  0.597994  -0.588903
    O   O6   0.591902  0.510595  0.401932  -0.589953
    O   O7   0.586807  0.491549  0.607255  -0.631670
    O   O8   0.413752  0.507904  0.392671  -0.631833
    C   C3   0.497126  0.486487  0.635001  0.596862
    C   C4   0.503433  0.512965  0.364924  0.597316
    Zn  Zn1  0.382734  0.497992  0.493794  1.076596
    Zn  Zn2  0.617825  0.501460  0.506132  1.080422
    C   C5   0.417338  0.442102  0.745637  -0.094263
    C   C6   0.583227  0.557336  0.254287  -0.095079
    C   C7   0.418339  0.447595  0.817083  0.180380
    C   C8   0.582221  0.551845  0.182840  0.180670
    H   H1   0.356640  0.415151  0.843170  -0.007109
    H   H2   0.643928  0.584277  0.156754  -0.007410
    C   C9   0.498498  0.490663  0.854850  -0.546642
    C   C10  0.502051  0.508793  0.145074  -0.546149
    C   C11  0.578514  0.528257  0.820442  0.174505
    C   C12  0.422028  0.471212  0.179482  0.172913
    H   H3   0.642440  0.562244  0.848330  0.020980
    H   H4   0.358094  0.437237  0.151595  0.021612
    C   C13  0.577560  0.524067  0.749286  -0.238878
    C   C14  0.422987  0.475401  0.250639  -0.239202
    H   H5   0.639901  0.556362  0.723726  0.140950
    H   H6   0.360639  0.443117  0.276198  0.141361
    C   C15  0.496920  0.482453  0.711047  0.096464
    C   C16  0.503637  0.516999  0.288878  0.097620
    N   N1   0.578301  0.536291  0.967253  -0.340081
    N   N2   0.422245  0.463166  0.032670  -0.339887
    N   N3   0.579193  0.540592  0.035573  -0.305180
    N   N4   0.421354  0.458865  0.964351  -0.305468
    C   C17  0.501160  0.504090  0.069154  0.891948
    C   C18  0.499386  0.495366  0.930770  0.891785
    C   C19  0.511644  0.213279  0.485924  -0.337676
    C   C20  0.488915  0.786173  0.514002  -0.335805
    C   C21  0.519853  0.026397  0.475851  -0.090672
    C   C22  0.480707  0.973055  0.524075  -0.087599
    C   C23  0.485241  0.871383  0.518548  0.044388
    C   C24  0.515318  0.128069  0.481378  0.046888
    H   H7   0.445320  0.006197  0.567565  0.154644
    H   H8   0.555239  0.993255  0.432360  0.155469
    N   N5   0.228212  0.495812  0.485436  -0.143617
    N   N6   0.772347  0.503639  0.514489  -0.145917
    C   C25  0.027780  0.493917  0.472339  -0.049475
    C   C26  0.972778  0.505535  0.527586  -0.049740
    C   C27  0.861714  0.504529  0.520231  0.182169
    C   C28  0.138845  0.494922  0.479695  0.180950
    H   H9   0.011654  0.515642  0.578223  0.175443
    H   H10  0.988909  0.483810  0.421700  0.175542
    C   C29  0.334430  0.388418  0.709544  0.094701
    C   C30  0.232267  0.412685  0.718245  -0.089441
    C   C31  0.154093  0.361114  0.685665  -0.131746
    C   C32  0.177644  0.284395  0.644964  -0.115908
    C   C33  0.279446  0.258891  0.637132  -0.112917
    C   C34  0.357712  0.310446  0.669599  -0.077653
    H   H11  0.213129  0.472925  0.749915  0.085897
    H   H12  0.074246  0.380868  0.692067  0.101328
    H   H13  0.116310  0.243968  0.619495  0.092230
    H   H14  0.297978  0.198265  0.605667  0.111326
    H   H15  0.437342  0.289291  0.663874  0.091677
    C   C35  0.666155  0.610997  0.290379  0.093079
    C   C36  0.642902  0.688974  0.330326  -0.075147
    C   C37  0.721187  0.740503  0.362796  -0.116299
    C   C38  0.822980  0.714968  0.354961  -0.112656
    C   C39  0.846503  0.638246  0.314256  -0.134589
    C   C40  0.768309  0.586700  0.281676  -0.086354
    H   H16  0.563278  0.710151  0.336053  0.091238
    H   H17  0.702678  0.801132  0.394264  0.112058
    H   H18  0.884330  0.755376  0.380431  0.091462
    H   H19  0.926343  0.618468  0.307853  0.101713
    H   H20  0.787425  0.526456  0.250002  0.085222
