# Generated by REPEAT Assigner based on pymatgen
data_DB0-m2_o19_o38_f0_fsc
_audit_creation_date              2022-05-24
_audit_creation_method            REPEAT_Assigner
_cell_length_a                    8.506707
_cell_length_b                    10.223042
_cell_length_c                    15.221388
_cell_angle_alpha                 90.000000
_cell_angle_beta                  90.000000
_cell_angle_gamma                 90.000000
_cell_volume                      1323.719163
_symmetry_space_group_name_H-M    P1
_symmetry_Int_Tables_number       1
loop_
    _symmetry_equiv_pos_site_id
    _symmetry_equiv_pos_as_xyz
    1  x,y,z
loop_
    _atom_site_type_symbol
    _atom_site_label
    _atom_site_fract_x
    _atom_site_fract_y
    _atom_site_fract_z
    _atom_type_partial_charge
    O   O1   0.166830  0.882806  0.084553  -0.679558
    O   O2   0.833170  0.117194  0.915447  -0.679561
    O   O3   0.835936  0.104208  0.094840  -0.665397
    O   O4   0.164064  0.895792  0.905160  -0.665399
    O   O5   0.165997  0.117941  0.915414  -0.681784
    O   O6   0.834003  0.882059  0.084586  -0.681786
    O   O7   0.836760  0.895069  0.905078  -0.663088
    O   O8   0.163240  0.104931  0.094922  -0.663081
    C   C1   0.217319  0.991082  0.121236  0.772871
    C   C2   0.782681  0.008918  0.878764  0.772882
    C   C3   0.782694  0.990102  0.121202  0.773777
    C   C4   0.217306  0.009898  0.878798  0.773776
    Cu  Cu1  0.000407  0.868748  0.995157  1.118794
    Cu  Cu2  0.999593  0.131253  0.004843  1.118741
    N   N1   0.999415  0.317700  0.007291  -0.172551
    N   N2   0.000585  0.682295  0.992709  -0.172587
    C   C5   0.999761  0.430881  0.003089  0.219532
    C   C6   0.000239  0.569124  0.996910  0.219632
    H   H1   0.499877  0.953933  0.062394  0.147993
    H   H2   0.500123  0.046067  0.937606  0.147995
    C   C7   0.359932  0.986818  0.174884  0.047904
    C   C8   0.640068  0.013182  0.825116  0.047903
    C   C9   0.640169  0.985178  0.174895  0.053642
    C   C10  0.359831  0.014822  0.825105  0.053639
    C   C11  0.358896  0.001606  0.265152  -0.278739
    C   C12  0.641104  0.998394  0.734848  -0.278738
    C   C13  0.641268  0.999402  0.265168  -0.280020
    C   C14  0.358732  0.000598  0.734832  -0.280011
    H   H3   0.247449  0.006360  0.298925  0.134775
    H   H4   0.752551  0.993640  0.701075  0.134776
    H   H5   0.752309  0.008965  0.298983  0.133171
    H   H6   0.247691  0.991035  0.701017  0.133168
    C   C15  0.500156  0.002004  0.311367  0.201049
    C   C16  0.499844  0.997996  0.688633  0.201041
    C   C17  0.499959  0.971234  0.131824  -0.180828
    C   C18  0.500041  0.028766  0.868176  -0.180828
    C   C19  0.616876  0.936926  0.454103  -0.121705
    C   C20  0.383124  0.063074  0.545897  -0.121716
    C   C21  0.383847  0.065996  0.455100  -0.151248
    C   C22  0.616153  0.934004  0.544900  -0.151267
    H   H7   0.706829  0.883126  0.419443  0.104416
    H   H8   0.293171  0.116874  0.580557  0.104418
    H   H9   0.294011  0.121380  0.421523  0.116681
    H   H10  0.705989  0.878620  0.578477  0.116685
    C   C23  0.499112  0.996978  0.591672  0.050322
    C   C24  0.500888  0.003022  0.408328  0.050309
