# Generated by REPEAT Assigner based on pymatgen
data_DB0-m9_o22_o24_f0_sra.sym.81_sqe
_audit_creation_date              2022-05-24
_audit_creation_method            REPEAT_Assigner
_cell_length_a                    6.329592
_cell_length_b                    13.030231
_cell_length_c                    15.428268
_cell_angle_alpha                 90.105395
_cell_angle_beta                  89.996897
_cell_angle_gamma                 90.003715
_cell_volume                      1272.460385
_symmetry_space_group_name_H-M    P1
_symmetry_Int_Tables_number       1
loop_
    _symmetry_equiv_pos_site_id
    _symmetry_equiv_pos_as_xyz
    1  x,y,z
loop_
    _atom_site_type_symbol
    _atom_site_label
    _atom_site_fract_x
    _atom_site_fract_y
    _atom_site_fract_z
    _atom_type_partial_charge
    O  O1   0.455010  0.453361  0.386097  -0.607795
    O  O2   0.828994  0.443355  0.621767  -0.627233
    O  O3   0.037366  0.608258  0.555513  -0.474167
    C  C1   0.655749  0.389650  0.623681  0.462535
    O  O4   0.738015  0.373624  0.452403  -0.525144
    O  O5   0.953918  0.539405  0.386394  -0.541705
    C  C2   0.623430  0.393706  0.382272  0.417132
    O  O6   0.536646  0.381966  0.554540  -0.422324
    O  O7   0.641534  0.574554  0.503013  -0.689345
    V  V1   0.915746  0.483074  0.503584  1.553987
    O  O8   0.238973  0.618247  0.453725  -0.533901
    C  C3   0.119416  0.601291  0.384075  0.476222
    O  O9   0.327851  0.545908  0.622533  -0.608365
    C  C4   0.153661  0.598662  0.624904  0.560407
    V  V2   0.415749  0.507954  0.503957  1.604632
    O  O10  0.141304  0.416512  0.501423  -0.693634
    C  C5   0.957542  0.682309  0.760866  -0.179762
    C  C6   0.122786  0.696957  0.831560  -0.003720
    H  H1   0.121769  0.660170  0.896322  0.025691
    H  H2   0.820081  0.629634  0.763649  0.101572
    C  C7   0.114167  0.810996  0.815961  0.180855
    C  C8   0.948738  0.797915  0.746587  -0.156995
    C  C9   0.124597  0.790014  0.679616  -0.036760
    C  C10  0.289454  0.804370  0.750115  -0.064064
    C  C11  0.298269  0.689267  0.764650  -0.054748
    C  C12  0.133258  0.675981  0.695171  0.173706
    H  H3   0.803278  0.844839  0.740714  0.077672
    H  H4   0.125944  0.826789  0.614848  0.038740
    H  H5   0.427082  0.856937  0.747372  0.052639
    H  H6   0.443779  0.642384  0.770487  0.036404
    C  C13  0.326517  0.788334  0.215237  -0.129277
    H  H7   0.409654  0.769961  0.153870  0.035559
    H  H8   0.405007  0.854270  0.247423  0.028165
    C  C14  0.332005  0.695469  0.274753  0.030191
    H  H9   0.451107  0.707961  0.326416  -0.006642
    H  H10  0.373824  0.626022  0.236805  -0.060344
    H  H11  0.073859  0.681643  0.115843  0.019348
    H  H12  0.996919  0.568681  0.223872  0.028475
    C  C15  0.982586  0.719919  0.168050  -0.042492
    C  C16  0.997103  0.856108  0.278832  -0.234604
    C  C17  0.098308  0.815798  0.196546  0.190841
    H  H13  0.823947  0.862082  0.269062  0.081611
    H  H14  0.062373  0.932810  0.294885  0.067799
    C  C18  0.115336  0.681050  0.314785  0.298799
    C  C19  0.961662  0.648347  0.244747  -0.167525
    C  C20  0.042734  0.782434  0.352388  -0.070990
    H  H15  0.169299  0.814280  0.394224  0.026889
    H  H16  0.897304  0.770879  0.391259  0.060367
    H  H17  0.823201  0.740307  0.143693  0.044291
    H  H18  0.798420  0.652265  0.270658  0.060462
    C  C21  0.432718  0.252137  0.687624  -0.164952
    H  H19  0.298492  0.306569  0.683162  -0.019367
    H  H20  0.435429  0.202150  0.629383  0.019968
    C  C22  0.408650  0.186608  0.768519  0.034923
    H  H21  0.349697  0.109435  0.750127  -0.000823
    H  H22  0.295379  0.223573  0.813658  0.009839
    H  H23  0.502677  0.404239  0.793886  0.065358
    H  H24  0.584771  0.298536  0.907211  -0.068737
    C  C23  0.651886  0.362189  0.781259  -0.346545
    C  C24  0.820738  0.235835  0.684770  -0.147154
    C  C25  0.639025  0.310771  0.693357  0.446793
    H  H25  0.970143  0.275228  0.702244  0.085188
    H  H26  0.830584  0.207242  0.617142  0.037897
    C  C26  0.621914  0.177240  0.812600  0.092356
    C  C27  0.683542  0.280587  0.849871  0.256223
    C  C28  0.784357  0.146432  0.745504  -0.132240
    H  H27  0.724486  0.079566  0.708339  0.044019
    H  H28  0.935027  0.125880  0.777797  0.037733
    H  H29  0.786686  0.416551  0.782707  0.055666
    H  H30  0.852166  0.278397  0.869288  -0.026480
    C  C29  0.504183  0.360991  0.235202  -0.210717
    H  H31  0.354051  0.396056  0.257546  0.080439
    H  H32  0.608972  0.420196  0.208032  0.002187
    C  C30  0.455973  0.275873  0.170887  0.058286
    H  H33  0.289683  0.251739  0.180762  -0.028577
    H  H34  0.330230  0.241530  0.351359  0.041057
    H  H35  0.368949  0.098685  0.267634  0.099955
    C  C31  0.499684  0.222030  0.343389  -0.144163
    C  C32  0.838500  0.284622  0.284107  -0.298370
    C  C33  0.618071  0.315642  0.312111  0.480397
    H  H36  0.913599  0.239123  0.336384  0.052013
    H  H37  0.934632  0.353954  0.270688  0.020559
    C  C34  0.595781  0.184100  0.192031  0.127786
    C  C35  0.523120  0.137670  0.276811  -0.209475
    C  C36  0.821779  0.219850  0.202335  0.222254
    H  H38  0.864825  0.266107  0.144903  -0.155140
    H  H39  0.928654  0.152696  0.207466  -0.025803
    H  H40  0.565497  0.196006  0.406230  0.058542
    H  H41  0.642340  0.081278  0.299230  0.035180
    O  O11  0.780970  0.036323  0.886433  -0.629848
    O  O12  0.406432  0.050102  0.122155  -0.625383
    O  O13  0.198377  0.884085  0.057219  -0.394081
    C  C37  0.579212  0.104019  0.123387  0.455090
    O  O14  0.497054  0.117430  0.952170  -0.738278
    O  O15  0.281701  0.950423  0.887591  -0.559178
    C  C38  0.616844  0.098833  0.883003  0.640880
    O  O16  0.698591  0.110294  0.054372  -0.458421
    O  O17  0.594085  0.917041  0.004309  -0.664435
    V  V3   0.319861  0.008547  0.004305  1.522613
    O  O18  0.996986  0.872648  0.955478  -0.575073
    C  C39  0.114218  0.889934  0.885468  0.562381
    O  O19  0.907871  0.947015  0.123572  -0.598528
    C  C40  0.083276  0.894949  0.127015  0.515733
    V  V4   0.819807  0.983511  0.004768  1.576248
    O  O20  0.094165  0.074972  0.001694  -0.639658
    C  C41  0.480668  0.307688  0.075768  0.451357
    C  C42  0.270756  0.292969  0.030191  0.065134
    C  C43  0.114146  0.371937  0.062431  -0.064761
    C  C44  0.192892  0.477802  0.039408  -0.113679
    C  C45  0.397145  0.496844  0.087454  0.172021
    C  C46  0.558928  0.416905  0.060284  -0.535069
    H  H42  0.596563  0.256029  0.044936  0.037617
    H  H43  0.209937  0.214811  0.043747  -0.015025
    H  H44  0.291924  0.302413  0.959348  0.007996
    H  H45  0.100338  0.366550  0.133880  0.073967
    H  H46  0.958572  0.358298  0.031491  -0.022520
    H  H47  0.074111  0.535934  0.059059  0.012872
    H  H48  0.220727  0.482558  0.968561  0.026586
    H  H49  0.365455  0.493719  0.157835  0.006796
    H  H50  0.457258  0.574286  0.070816  -0.004377
    H  H51  0.714930  0.430594  0.090667  0.135493
    H  H52  0.583158  0.425521  0.989487  0.085996
