# Generated by REPEAT Assigner based on pymatgen
data_DB0-m29_o93_o1470_f0_pts.sym.29
_audit_creation_date              2022-05-24
_audit_creation_method            REPEAT_Assigner
_cell_length_a                    15.062065
_cell_length_b                    11.766339
_cell_length_c                    13.679223
_cell_angle_alpha                 88.806135
_cell_angle_beta                  101.461568
_cell_angle_gamma                 105.988951
_cell_volume                      2282.566691
_symmetry_space_group_name_H-M    P1
_symmetry_Int_Tables_number       1
loop_
    _symmetry_equiv_pos_site_id
    _symmetry_equiv_pos_as_xyz
    1  x,y,z
loop_
    _atom_site_type_symbol
    _atom_site_label
    _atom_site_fract_x
    _atom_site_fract_y
    _atom_site_fract_z
    _atom_type_partial_charge
    C   C1   0.813720  0.021441  0.177758  -0.041923
    C   C2   0.900447  0.026073  0.157299  -0.177813
    H   H1   0.960571  0.036517  0.218000  0.104652
    C   C3   0.910630  0.012574  0.060907  0.349997
    C   C4   0.833242  0.999860  0.983484  -0.146842
    H   H2   0.840166  0.993968  0.906884  0.104108
    C   C5   0.745511  0.996415  0.002813  -0.038195
    C   C6   0.735186  0.004187  0.101299  0.102670
    N   N1   0.000373  0.011869  0.044323  -0.145710
    N   N2   0.999736  0.988263  0.955894  -0.146037
    C   C7   0.099667  0.974005  0.842937  -0.178477
    H   H3   0.039555  0.963594  0.782227  0.104780
    C   C8   0.186388  0.978579  0.822495  -0.041889
    C   C9   0.264906  0.995784  0.898961  0.102666
    C   C10  0.254568  0.003570  0.997439  -0.038839
    C   C11  0.166846  0.000187  0.016758  -0.147075
    H   H4   0.159918  0.006065  0.093358  0.104002
    C   C12  0.089476  0.987526  0.939323  0.351025
    O   O1   0.542831  0.169406  0.738200  -0.522464
    C   C13  0.479671  0.172520  0.657564  0.472191
    O   O2   0.419884  0.122500  0.898452  -0.490911
    O   O3   0.408335  0.078360  0.631141  -0.419008
    O   O4   0.379759  0.940496  0.822862  -0.461909
    C   C14  0.358189  0.019370  0.873396  0.509139
    Fe  Fe1  0.506050  0.009347  0.791549  1.374599
    O   O5   0.589383  0.013644  0.926305  -0.463184
    O   O6   0.678866  0.968058  0.827064  -0.482224
    C   C15  0.667258  0.989011  0.916791  0.507462
    O   O7   0.516712  0.910048  0.679238  -0.513204
    O   O8   0.432548  0.748274  0.748050  -0.472886
    C   C16  0.479429  0.794994  0.679063  0.590981
    O   O9   0.483316  0.089765  0.321095  -0.512871
    O   O10  0.567504  0.251570  0.252333  -0.472205
    C   C17  0.520593  0.204820  0.321290  0.590087
    O   O11  0.410618  0.986144  0.073936  -0.463617
    O   O12  0.321241  0.032000  0.173178  -0.482052
    C   C18  0.332804  0.010926  0.083457  0.508124
    O   O13  0.591692  0.921331  0.369130  -0.419344
    O   O14  0.620322  0.059409  0.177420  -0.461921
    C   C19  0.641906  0.980560  0.126875  0.508487
    O   O15  0.457153  0.830339  0.262116  -0.522626
    C   C20  0.520312  0.827207  0.342745  0.473142
    O   O16  0.580218  0.877429  0.101795  -0.490717
    Fe  Fe2  0.494042  0.990460  0.208730  1.374246
    C   C21  0.481092  0.787798  0.503734  -0.054933
    C   C22  0.479297  0.725993  0.590214  -0.121795
    C   C23  0.488475  0.610905  0.589694  0.111862
    C   C24  0.510559  0.548636  0.684049  -0.010920
    C   C25  0.466099  0.417241  0.668163  -0.039885
    C   C26  0.496505  0.742399  0.419407  -0.048264
    C   C27  0.503094  0.627647  0.417083  0.062700
    C   C28  0.495479  0.560511  0.501152  -0.032459
    C   C29  0.504285  0.439180  0.499129  -0.029527
    C   C30  0.496675  0.372043  0.583191  0.061088
    C   C31  0.503455  0.257368  0.580925  -0.046387
    C   C32  0.533506  0.582388  0.332016  -0.041194
    C   C33  0.489118  0.450968  0.316241  -0.008397
    C   C34  0.511349  0.388812  0.410612  0.109676
    C   C35  0.520684  0.273803  0.410130  -0.120539
    C   C36  0.518993  0.212040  0.496634  -0.057012
    H   H5   0.588095  0.564966  0.705835  0.034827
    H   H6   0.487597  0.374585  0.738433  0.090874
    H   H7   0.611328  0.600266  0.348847  0.029879
    H   H8   0.514382  0.421560  0.253645  0.065893
    H   H9   0.476213  0.877708  0.502345  0.158414
    H   H10  0.524001  0.122185  0.498041  0.159238
    H   H11  0.485222  0.578001  0.746607  0.066912
    H   H12  0.388287  0.399482  0.651131  0.029389
    H   H13  0.511793  0.624933  0.261760  0.091167
    H   H14  0.411565  0.434548  0.294568  0.034387
    Br  Br1  0.803885  0.028674  0.314243  0.013345
    Br  Br2  0.196236  0.971259  0.686027  0.013242
