# Generated by REPEAT Assigner based on pymatgen
data_DB0-m2_o12_o25_f0_pcu.sym.22
_audit_creation_date              2022-05-24
_audit_creation_method            REPEAT_Assigner
_cell_length_a                    15.887476
_cell_length_b                    11.156956
_cell_length_c                    9.724758
_cell_angle_alpha                 111.756323
_cell_angle_beta                  99.541267
_cell_angle_gamma                 90.005284
_cell_volume                      1575.269824
_symmetry_space_group_name_H-M    P1
_symmetry_Int_Tables_number       1
loop_
    _symmetry_equiv_pos_site_id
    _symmetry_equiv_pos_as_xyz
    1  x,y,z
loop_
    _atom_site_type_symbol
    _atom_site_label
    _atom_site_fract_x
    _atom_site_fract_y
    _atom_site_fract_z
    _atom_type_partial_charge
    O   O1   0.506480  0.336083  0.582957  -0.674013
    O   O2   0.495585  0.666000  0.418514  -0.673955
    O   O3   0.487714  0.296275  0.329484  -0.580159
    O   O4   0.511784  0.705260  0.671272  -0.590116
    C   C1   0.495954  0.256454  0.441446  0.830383
    C   C2   0.504660  0.745368  0.559170  0.796038
    O   O5   0.389554  0.513240  0.622632  -0.612952
    O   O6   0.610666  0.478971  0.376186  -0.606837
    O   O7   0.365667  0.476402  0.370281  -0.634815
    O   O8   0.634596  0.519502  0.629513  -0.659799
    C   C3   0.338221  0.496716  0.496505  0.816803
    C   C4   0.662058  0.502772  0.504415  0.852266
    Cu  Cu1  0.514169  0.523457  0.648152  0.946486
    Cu  Cu2  0.486339  0.477850  0.353370  0.845028
    C   C5   0.976340  0.407116  0.543143  -0.120655
    C   C6   0.023985  0.590290  0.456278  -0.124224
    C   C7   0.017640  0.385289  0.405659  -0.136000
    C   C8   0.982772  0.612071  0.593716  -0.134145
    H   H1   0.038739  0.291618  0.333256  0.062390
    H   H2   0.963393  0.706335  0.667968  0.062747
    H   H3   0.950980  0.329986  0.574756  0.062959
    H   H4   0.050700  0.667726  0.426992  0.061951
    H   H5   0.929580  0.459887  0.244112  0.091062
    H   H6   0.072667  0.537333  0.754080  0.088910
    C   C9   0.248284  0.496195  0.494894  -0.161254
    C   C10  0.752840  0.502921  0.505409  -0.182577
    C   C11  0.041325  0.519382  0.637081  -0.237767
    C   C12  0.959214  0.477942  0.361828  -0.237934
    C   C13  0.080532  0.497524  0.499101  0.684699
    C   C14  0.919517  0.499796  0.499662  0.674779
    C   C15  0.172396  0.495931  0.493889  -0.370839
    C   C16  0.828545  0.501844  0.504704  -0.359723
    H   H7   0.484263  0.863158  0.366600  0.104178
    H   H8   0.507298  0.137010  0.631781  0.113888
    C   C17  0.494621  0.116679  0.407067  -0.384213
    C   C18  0.509095  0.884867  0.592816  -0.377446
    C   C19  0.501478  0.070308  0.516167  0.006583
    C   C20  0.498201  0.930276  0.482137  0.042558
    H   H9   0.522623  0.951414  0.709847  0.169513
    H   H10  0.488974  0.051456  0.289678  0.168330
    H   H11  0.465272  0.396116  0.842688  0.160005
    H   H12  0.530963  0.611895  0.161265  0.175491
    N   N1   0.465611  0.444047  0.133294  0.111233
    N   N2   0.535149  0.558093  0.869051  0.004226
    C   C21  0.499769  0.520054  0.082998  -0.050183
    C   C22  0.497536  0.485896  0.920238  0.015821
    O   O9   0.558600  0.678988  0.964194  -0.279616
    C   C23  0.647682  0.688827  0.981480  0.439216
    H   H13  0.666516  0.716081  0.890974  -0.020270
    H   H14  0.671673  0.593164  0.971070  -0.041033
    C   C24  0.686434  0.788897  0.135926  -0.389946
    H   H15  0.668146  0.759314  0.224459  0.094112
    H   H16  0.757311  0.796061  0.148538  0.088060
    H   H17  0.663429  0.886189  0.150927  0.105329
    O   O10  0.442081  0.322721  0.035049  -0.325664
    C   C25  0.353689  0.313322  0.025934  0.531143
    H   H18  0.330319  0.411817  0.058956  -0.072814
    H   H19  0.336625  0.268813  0.102706  -0.039444
    C   C26  0.312405  0.226166  0.868297  -0.428904
    H   H20  0.338181  0.128991  0.840956  0.109427
    H   H21  0.242416  0.217126  0.864445  0.092649
    H   H22  0.326032  0.269151  0.787982  0.099032
