data_DB0-m2_o11_o29_f0_pcu.sym.62_repeat
_audit_creation_date              2024-02-23
_audit_creation_method            'Materials Studio'
_symmetry_space_group_name_H-M    'P1'
_symmetry_Int_Tables_number       1
_symmetry_cell_setting            triclinic
loop_
_symmetry_equiv_pos_as_xyz
  x,y,z
_cell_length_a                    27.5533
_cell_length_b                    11.0298
_cell_length_c                    9.5286
_cell_angle_alpha                 90.0206
_cell_angle_beta                  90.0156
_cell_angle_gamma                 89.9936
loop_
_atom_site_label
_atom_site_type_symbol
_atom_site_fract_x
_atom_site_fract_y
_atom_site_fract_z
_atom_site_U_iso_or_equiv
_atom_site_adp_type
_atom_site_occupancy
O1     O     0.49947   0.33105   0.61270   0.00000  Uiso   1.00
O2     O     0.50164   0.33247   0.37083   0.00000  Uiso   1.00
C1     C     0.50013   0.27516   0.49165   0.00000  Uiso   1.00
O3     O     0.43252   0.50767   0.62079   0.00000  Uiso   1.00
O4     O     0.43028   0.50710   0.37922   0.00000  Uiso   1.00
C2     C     0.40863   0.51336   0.50174   0.00000  Uiso   1.00
Cu1    Cu    0.50327   0.50678   0.63453   0.00000  Uiso   1.00
Cu2    Cu    0.50066   0.50887   0.35385   0.00000  Uiso   1.00
O5     O     0.50315   0.68308   0.61727   0.00000  Uiso   1.00
O6     O     0.50326   0.68497   0.37618   0.00000  Uiso   1.00
O7     O     0.57349   0.49851   0.60845   0.00000  Uiso   1.00
O8     O     0.57128   0.50315   0.36813   0.00000  Uiso   1.00
C3     C     0.50357   0.74072   0.49731   0.00000  Uiso   1.00
C4     C     0.59520   0.50336   0.48660   0.00000  Uiso   1.00
C5     C     0.17865   0.40385   0.50288   0.00000  Uiso   1.00
O9     O     0.20389   0.30109   0.52323   0.00000  Uiso   1.00
N1     N     0.20251   0.50974   0.48891   0.00000  Uiso   1.00
C6     C     0.17776   0.61385   0.47046   0.00000  Uiso   1.00
C7     C     0.27807   0.57725   0.59621   0.00000  Uiso   1.00
C8     C     0.32830   0.57877   0.60273   0.00000  Uiso   1.00
C9     C     0.33092   0.44985   0.40037   0.00000  Uiso   1.00
C10    C     0.28089   0.44779   0.39602   0.00000  Uiso   1.00
C11    C     0.25429   0.51160   0.49375   0.00000  Uiso   1.00
C12    C     0.10241   0.50630   0.48135   0.00000  Uiso   1.00
C13    C     0.12841   0.40097   0.50006   0.00000  Uiso   1.00
C14    C     0.10411   0.29300   0.51528   0.00000  Uiso   1.00
C15    C     0.12754   0.61331   0.46568   0.00000  Uiso   1.00
C16    C     0.35516   0.51385   0.50390   0.00000  Uiso   1.00
H1     H     0.35110   0.39950   0.32244   0.00000  Uiso   1.00
H2     H     0.26258   0.39719   0.31448   0.00000  Uiso   1.00
H3     H     0.12354   0.20855   0.52759   0.00000  Uiso   1.00
C17    C     0.64836   0.50121   0.48242   0.00000  Uiso   1.00
C18    C     0.97642   0.39687   0.50795   0.00000  Uiso   1.00
C19    C     0.97575   0.60796   0.44266   0.00000  Uiso   1.00
C20    C     0.95104   0.50179   0.47466   0.00000  Uiso   1.00
C21    C     0.95010   0.29482   0.54850   0.00000  Uiso   1.00
C22    C     0.90028   0.29588   0.55067   0.00000  Uiso   1.00
C23    C     0.87523   0.39820   0.51179   0.00000  Uiso   1.00
C24    C     0.90051   0.50061   0.47347   0.00000  Uiso   1.00
C25    C     0.87467   0.60196   0.43442   0.00000  Uiso   1.00
C26    C     0.82447   0.59954   0.43353   0.00000  Uiso   1.00
N2     N     0.80051   0.49883   0.47287   0.00000  Uiso   1.00
C27    C     0.82500   0.39885   0.51228   0.00000  Uiso   1.00
C28    C     0.72459   0.48311   0.60098   0.00000  Uiso   1.00
C29    C     0.67462   0.48504   0.60458   0.00000  Uiso   1.00
C30    C     0.67268   0.51652   0.35676   0.00000  Uiso   1.00
C31    C     0.72270   0.51636   0.35359   0.00000  Uiso   1.00
C32    C     0.74880   0.49902   0.47562   0.00000  Uiso   1.00
O10    O     0.80032   0.29880   0.54951   0.00000  Uiso   1.00
C33    C     0.02723   0.39662   0.50133   0.00000  Uiso   1.00
C34    C     0.05188   0.50467   0.47854   0.00000  Uiso   1.00
C35    C     0.02645   0.61116   0.45323   0.00000  Uiso   1.00
C36    C     0.05427   0.29056   0.51603   0.00000  Uiso   1.00
H4     H     0.65648   0.47346   0.70408   0.00000  Uiso   1.00
H5     H     0.74470   0.47076   0.69741   0.00000  Uiso   1.00
H6     H     0.88150   0.21465   0.58334   0.00000  Uiso   1.00
H7     H     0.96663   0.21225   0.58430   0.00000  Uiso   1.00
H8     H     0.03831   0.20205   0.52468   0.00000  Uiso   1.00
O11    O     0.20219   0.71826   0.45368   0.00000  Uiso   1.00
C37    C     0.10236   0.71963   0.44689   0.00000  Uiso   1.00
H9     H     0.25703   0.62701   0.67298   0.00000  Uiso   1.00
H10    H     0.12100   0.80546   0.43753   0.00000  Uiso   1.00
C38    C     0.94891   0.70837   0.39948   0.00000  Uiso   1.00
C39    C     0.89912   0.70512   0.39556   0.00000  Uiso   1.00
O12    O     0.79925   0.69895   0.39699   0.00000  Uiso   1.00
C40    C     0.05257   0.71886   0.44075   0.00000  Uiso   1.00
H11    H     0.96501   0.79121   0.36286   0.00000  Uiso   1.00
H12    H     0.65296   0.53019   0.26000   0.00000  Uiso   1.00
H13    H     0.87991   0.78526   0.36136   0.00000  Uiso   1.00
H14    H     0.74126   0.52833   0.25457   0.00000  Uiso   1.00
H15    H     0.03581   0.80640   0.43127   0.00000  Uiso   1.00
C41    C     0.50089   0.93957   0.38355   0.00000  Uiso   1.00
C42    C     0.50443   0.87344   0.50115   0.00000  Uiso   1.00
H16    H     0.49793   0.89346   0.28349   0.00000  Uiso   1.00
H17    H     0.50828   0.91434   0.60352   0.00000  Uiso   1.00
C43    C     0.50136   0.07387   0.38051   0.00000  Uiso   1.00
C44    C     0.49913   0.14244   0.49611   0.00000  Uiso   1.00
H18    H     0.50300   0.11718   0.27849   0.00000  Uiso   1.00
H19    H     0.49619   0.10299   0.59935   0.00000  Uiso   1.00
C45    C     0.47504   0.43787   0.91514   0.00000  Uiso   1.00
N3     N     0.50506   0.50311   0.84440   0.00000  Uiso   1.00
H20    H     0.44676   0.38777   0.86121   0.00000  Uiso   1.00
H21    H     0.53617   0.52953   0.89555   0.00000  Uiso   1.00
C46    C     0.47878   0.42705   0.06976   0.00000  Uiso   1.00
N4     N     0.49865   0.51089   0.14405   0.00000  Uiso   1.00
H22    H     0.46289   0.34860   0.12061   0.00000  Uiso   1.00
H23    H     0.50716   0.59057   0.09389   0.00000  Uiso   1.00
C47    C     0.35159   0.65818   0.71074   0.00000  Uiso   1.00
C48    C     0.36374   0.58604   0.83823   0.00000  Uiso   1.00
C49    C     0.38353   0.64007   0.94906   0.00000  Uiso   1.00
H24    H     0.32579   0.73061   0.74141   0.00000  Uiso   1.00
H25    H     0.38440   0.70320   0.66818   0.00000  Uiso   1.00
H26    H     0.35596   0.48979   0.84125   0.00000  Uiso   1.00
H27    H     0.39114   0.73645   0.94648   0.00000  Uiso   1.00
H28    H     0.39199   0.58783   0.04224   0.00000  Uiso   1.00
