# Generated by REPEAT Assigner based on pymatgen
data_DB0-m3_o1490_o23_f0_fsc.sym.113_sqe
_audit_creation_date              2022-05-24
_audit_creation_method            REPEAT_Assigner
_cell_length_a                    8.524914
_cell_length_b                    10.694222
_cell_length_c                    14.248555
_cell_angle_alpha                 97.806895
_cell_angle_beta                  90.102728
_cell_angle_gamma                 90.008405
_cell_volume                      1286.960695
_symmetry_space_group_name_H-M    P1
_symmetry_Int_Tables_number       1
loop_
    _symmetry_equiv_pos_site_id
    _symmetry_equiv_pos_as_xyz
    1  x,y,z
loop_
    _atom_site_type_symbol
    _atom_site_label
    _atom_site_fract_x
    _atom_site_fract_y
    _atom_site_fract_z
    _atom_type_partial_charge
    C   C1   0.009564  0.680059  0.049564  0.032044
    C   C2   0.149921  0.737275  0.035598  -0.161622
    C   C3   0.153032  0.858396  0.014181  -0.102119
    C   C4   0.870959  0.740739  0.036363  -0.309494
    C   C5   0.872788  0.865400  0.019349  0.661980
    C   C6   0.014715  0.926748  0.011343  -0.323796
    C   C7   0.014572  0.052626  0.995585  0.420768
    C   C8   0.152737  0.121280  0.992950  -0.357025
    C   C9   0.149414  0.242182  0.971127  -0.059076
    N   N1   0.736582  0.926485  0.010673  -0.626462
    C   C10  0.733875  0.048061  0.995477  0.229850
    C   C11  0.872280  0.113161  0.987137  -0.159653
    C   C12  0.870080  0.238172  0.970111  -0.147136
    C   C13  0.008741  0.298937  0.956928  -0.084946
    H   H1   0.007880  0.582034  0.060293  0.101694
    H   H2   0.006803  0.396914  0.946076  0.121293
    H   H3   0.266078  0.893471  0.997162  0.111358
    H   H4   0.265875  0.086485  0.010258  0.169430
    H   H5   0.621989  0.093401  0.988591  0.061700
    O   O1   0.341743  0.624066  0.939499  -0.698981
    O   O2   0.346440  0.616968  0.100981  -0.726092
    C   C14  0.291071  0.660403  0.025730  0.839575
    O   O3   0.342246  0.355609  0.067029  -0.715740
    O   O4   0.345584  0.362788  0.905585  -0.758510
    C   C15  0.290689  0.319313  0.980861  0.911026
    O   O5   0.679672  0.355238  0.066764  -0.727929
    O   O6   0.674645  0.362087  0.905771  -0.755684
    C   C16  0.728838  0.316588  0.980481  0.915090
    O   O7   0.679122  0.624550  0.939943  -0.669078
    O   O8   0.675439  0.617615  0.100928  -0.591774
    C   C17  0.728911  0.663297  0.026202  0.738484
    Zn  Zn1  0.511270  0.483344  0.107379  1.043740
    Zn  Zn2  0.510539  0.496372  0.899244  1.116789
    C   C18  0.557825  0.614600  0.460058  -0.366278
    C   C19  0.621415  0.384306  0.444338  -0.013673
    C   C20  0.598282  0.378035  0.548956  -0.168180
    H   H6   0.720679  0.602540  0.575308  0.026076
    H   H7   0.594306  0.290791  0.403757  0.028384
    H   H8   0.744906  0.407795  0.430929  -0.026521
    H   H9   0.714064  0.372556  0.583784  0.055103
    H   H10  0.528279  0.293208  0.558300  0.017071
    N   N2   0.510224  0.504582  0.777066  0.029323
    C   C21  0.511321  0.483153  0.414132  0.691102
    C   C22  0.592608  0.610157  0.563762  -0.190021
    C   C23  0.511326  0.495209  0.592389  0.803962
    C   C24  0.344281  0.489294  0.555014  -0.129205
    C   C25  0.347993  0.456566  0.448079  -0.209757
    C   C26  0.510635  0.501588  0.695596  -0.319785
    C   C27  0.511956  0.477604  0.310983  -0.264384
    N   N3   0.512220  0.475103  0.229552  0.020889
    H   H11  0.260310  0.514406  0.415723  0.089383
    H   H12  0.320070  0.355147  0.428139  0.036199
    H   H13  0.287097  0.582324  0.574434  0.020171
    H   H14  0.456705  0.678467  0.454778  0.101537
    H   H15  0.547619  0.697101  0.606539  0.077402
    H   H16  0.277135  0.416147  0.586061  0.052627
    C   C28  0.694426  0.665049  0.411642  0.322402
    C   C29  0.685817  0.768796  0.364693  -0.273503
    C   C30  0.832984  0.784871  0.332212  -0.122499
    C   C31  0.921218  0.690047  0.361788  -0.195145
    O   O9   0.837525  0.616702  0.410470  -0.052207
    H   H17  0.583745  0.825917  0.355514  0.158427
    H   H18  0.872542  0.857291  0.291715  0.147237
    H   H19  0.044946  0.676150  0.347548  0.154157
