# Generated by REPEAT Assigner based on pymatgen
data_DB0-m3_o1_o29_f0_nbo.sym.5_sqe
_audit_creation_date              2022-05-24
_audit_creation_method            REPEAT_Assigner
_cell_length_a                    21.808879
_cell_length_b                    21.808879
_cell_length_c                    55.331961
_cell_angle_alpha                 90.000000
_cell_angle_beta                  90.000000
_cell_angle_gamma                 90.000000
_cell_volume                      26317.385856
_symmetry_space_group_name_H-M    P1
_symmetry_Int_Tables_number       1
loop_
    _symmetry_equiv_pos_site_id
    _symmetry_equiv_pos_as_xyz
    1  x,y,z
loop_
    _atom_site_type_symbol
    _atom_site_label
    _atom_site_fract_x
    _atom_site_fract_y
    _atom_site_fract_z
    _atom_type_partial_charge
    O   O1    0.499488  0.408438  0.021347  -0.688051
    O   O2    0.591544  0.497056  0.021319  -0.689499
    O   O3    0.502965  0.591163  0.020384  -0.702390
    O   O4    0.408815  0.500490  0.020415  -0.698945
    O   O5    0.497056  0.591545  0.978681  -0.689491
    O   O6    0.591163  0.502965  0.979616  -0.702402
    O   O7    0.500490  0.408815  0.979585  -0.698948
    O   O8    0.408438  0.499488  0.978653  -0.688063
    O   O9    0.997088  0.908835  0.520373  -0.701226
    O   O10   0.091226  0.999500  0.520403  -0.700136
    O   O11   0.000556  0.091562  0.521360  -0.687579
    O   O12   0.908501  0.002948  0.521331  -0.690529
    O   O13   0.999500  0.091226  0.479597  -0.700268
    O   O14   0.091562  0.000556  0.478641  -0.687441
    O   O15   0.002948  0.908501  0.478669  -0.690527
    O   O16   0.908835  0.997088  0.479627  -0.701293
    C   C1    0.000528  0.501019  0.123957  0.122447
    C   C2    0.499240  0.999404  0.123885  0.119529
    C   C3    0.999404  0.499240  0.876116  0.119537
    C   C4    0.501019  0.000528  0.876044  0.122532
    C   C5    0.499825  0.999069  0.623885  0.122571
    C   C6    0.000657  0.500263  0.623957  0.122655
    C   C7    0.500263  0.000657  0.376043  0.122598
    C   C8    0.999069  0.499825  0.376116  0.122572
    C   C9    0.499990  0.380145  0.000432  0.692052
    C   C10   0.619827  0.500099  0.000435  0.698117
    C   C11   0.500099  0.619827  0.999565  0.698080
    C   C12   0.380145  0.499990  0.999568  0.692079
    C   C13   0.999958  0.880195  0.499548  0.698005
    C   C14   0.119875  0.999996  0.499551  0.692594
    C   C15   0.999996  0.119875  0.500449  0.692798
    C   C16   0.880195  0.999958  0.500452  0.698068
    Zn  Zn1   0.500007  0.500033  0.027406  1.303449
    Zn  Zn2   0.500033  0.500007  0.972594  1.303472
    Zn  Zn3   0.000042  0.999961  0.527406  1.303589
    Zn  Zn4   0.999961  0.000042  0.472594  1.303670
    C   C17   0.281601  0.461972  0.984050  -0.152637
    C   C18   0.537332  0.281593  0.984637  -0.151992
    C   C19   0.718095  0.540148  0.985443  -0.139806
    C   C20   0.460795  0.718643  0.984817  -0.153166
    C   C21   0.281593  0.537332  0.015363  -0.151750
    C   C22   0.540148  0.718095  0.014557  -0.139771
    C   C23   0.718643  0.460795  0.015183  -0.153154
    C   C24   0.461972  0.281601  0.015950  -0.152736
    C   C25   0.781640  0.960575  0.485452  -0.145316
    C   C26   0.039922  0.781666  0.484804  -0.147438
    C   C27   0.218704  0.037298  0.484011  -0.157312
    C   C28   0.961931  0.218145  0.484679  -0.148422
    C   C29   0.781666  0.039922  0.515196  -0.147469
    C   C30   0.037298  0.218704  0.515989  -0.157345
    C   C31   0.218145  0.961931  0.515321  -0.148299
    C   C32   0.960575  0.781640  0.514548  -0.145280
    H   H1    0.306172  0.432131  0.971824  0.129735
    H   H2    0.567360  0.306156  0.972479  0.128698
    H   H3    0.693305  0.571536  0.973906  0.128006
    H   H4    0.429212  0.694287  0.973219  0.131366
    H   H5    0.306156  0.567360  0.027521  0.128652
    H   H6    0.571536  0.693305  0.026094  0.127994
    H   H7    0.694287  0.429212  0.026781  0.131362
    H   H8    0.432131  0.306172  0.028176  0.129747
    H   H9    0.806202  0.929008  0.473915  0.129027
    H   H10   0.071322  0.806250  0.473204  0.130615
    H   H11   0.194357  0.067339  0.471791  0.130249
    H   H12   0.932097  0.193358  0.472518  0.128334
    H   H13   0.806250  0.071322  0.526796  0.130632
    H   H14   0.067339  0.194357  0.528209  0.130271
    H   H15   0.193358  0.932097  0.527482  0.128295
    H   H16   0.929008  0.806202  0.526085  0.129016
    C   C33   0.218431  0.460450  0.984630  -0.195656
    C   C34   0.538316  0.218397  0.985023  -0.191658
    C   C35   0.781276  0.541613  0.985883  -0.208148
    C   C36   0.459882  0.781828  0.985393  -0.191799
    C   C37   0.218397  0.538316  0.014977  -0.191971
    C   C38   0.541613  0.781276  0.014117  -0.208184
    C   C39   0.781828  0.459882  0.014607  -0.191743
    C   C40   0.460450  0.218431  0.015370  -0.195540
    C   C41   0.718443  0.959644  0.485864  -0.199225
    C   C42   0.041370  0.718496  0.485409  -0.200884
    C   C43   0.281892  0.038249  0.484559  -0.186988
    C   C44   0.960377  0.281323  0.485097  -0.198159
    C   C45   0.718496  0.041370  0.514591  -0.200863
    C   C46   0.038249  0.281892  0.515441  -0.187013
    C   C47   0.281323  0.960377  0.514903  -0.198200
    C   C48   0.959644  0.718443  0.514136  -0.199264
    H   H17   0.193882  0.430040  0.972616  0.152308
    H   H18   0.568518  0.193821  0.972937  0.150589
    H   H19   0.805621  0.573566  0.974441  0.153556
    H   H20   0.428151  0.806607  0.973999  0.148339
    H   H21   0.193821  0.568518  0.027063  0.150664
    H   H22   0.573566  0.805621  0.025560  0.153559
    H   H23   0.806607  0.428151  0.026001  0.148306
    H   H24   0.430040  0.193882  0.027384  0.152294
    H   H25   0.693861  0.927910  0.474406  0.150474
    H   H26   0.073316  0.693954  0.474029  0.151378
    H   H27   0.306679  0.068438  0.472535  0.149485
    H   H28   0.929949  0.305660  0.473024  0.152828
    H   H29   0.693954  0.073316  0.525971  0.151375
    H   H30   0.068438  0.306679  0.527465  0.149504
    H   H31   0.305660  0.929949  0.526976  0.152828
    H   H32   0.927910  0.693861  0.525594  0.150486
    C   C49   0.186743  0.499241  0.999853  0.128404
    C   C50   0.499241  0.186743  0.000147  0.128168
    C   C51   0.813224  0.500889  0.000213  0.136925
    C   C52   0.500889  0.813224  0.999788  0.136924
    C   C53   0.686798  0.000646  0.500177  0.137403
    C   C54   0.000646  0.686798  0.499823  0.137455
    C   C55   0.313279  0.999157  0.499762  0.127145
    C   C56   0.999157  0.313279  0.500238  0.127205
    C   C57   0.313267  0.499787  0.999657  0.098714
    C   C58   0.499787  0.313267  0.000343  0.098857
    C   C59   0.686702  0.500334  0.000347  0.089369
    C   C60   0.500334  0.686702  0.999653  0.089404
    C   C61   0.813320  0.000123  0.500372  0.088875
    C   C62   0.000123  0.813320  0.499628  0.088851
    C   C63   0.186754  0.999765  0.499634  0.098903
    C   C64   0.999765  0.186754  0.500366  0.098965
    O   O17   0.002172  0.448642  0.036067  -0.706692
    O   O18   0.551518  0.998808  0.035991  -0.708183
    O   O19   0.998290  0.554405  0.036187  -0.692187
    O   O20   0.445726  0.000674  0.036109  -0.694070
    O   O21   0.998808  0.551518  0.964009  -0.708162
    O   O22   0.554405  0.998290  0.963813  -0.692132
    O   O23   0.000674  0.445726  0.963891  -0.694027
    O   O24   0.448642  0.002172  0.963933  -0.706661
    O   O25   0.498900  0.945576  0.536114  -0.693652
    O   O26   0.054201  0.502181  0.536192  -0.693638
    O   O27   0.500812  0.051367  0.535985  -0.707560
    O   O28   0.948440  0.498253  0.536064  -0.706724
    O   O29   0.502181  0.054201  0.463808  -0.693602
    O   O30   0.051367  0.500812  0.464015  -0.707483
    O   O31   0.498253  0.948440  0.463936  -0.706686
    O   O32   0.945576  0.498900  0.463886  -0.693644
    C   C65   0.000357  0.501463  0.047419  0.657054
    C   C66   0.498683  0.999642  0.047346  0.659804
    C   C67   0.999642  0.498683  0.952654  0.659786
    C   C68   0.501463  0.000357  0.952581  0.656927
    C   C69   0.499828  0.998542  0.547345  0.659181
    C   C70   0.001250  0.500218  0.547420  0.657849
    C   C71   0.500219  0.001250  0.452580  0.657692
    C   C72   0.998543  0.499828  0.452655  0.659221
    O   O33   0.091597  0.445926  0.999203  -0.701086
    O   O34   0.551768  0.091137  0.999302  -0.716849
    O   O35   0.908366  0.554253  0.000469  -0.701287
    O   O36   0.448342  0.908833  0.000212  -0.716975
    O   O37   0.091137  0.551768  0.000698  -0.716859
    O   O38   0.554253  0.908366  0.999531  -0.701288
    O   O39   0.908833  0.448342  0.999788  -0.716998
    O   O40   0.445926  0.091597  0.000797  -0.701059
    O   O41   0.591164  0.948120  0.500386  -0.717390
    O   O42   0.054031  0.591682  0.500309  -0.701326
    O   O43   0.408917  0.051634  0.499126  -0.717227
    O   O44   0.945794  0.408393  0.499365  -0.701401
    O   O45   0.591682  0.054031  0.499691  -0.701317
    O   O46   0.051634  0.408917  0.500875  -0.717249
    O   O47   0.408393  0.945793  0.500635  -0.701384
    O   O48   0.948121  0.591164  0.499614  -0.717410
    C   C73   0.119862  0.498955  0.999942  0.695261
    C   C74   0.498954  0.119862  0.000058  0.695315
    C   C75   0.880105  0.501187  0.000148  0.695055
    C   C76   0.501187  0.880105  0.999852  0.695097
    C   C77   0.619917  0.000954  0.500074  0.694929
    C   C78   0.000955  0.619917  0.499926  0.694897
    C   C79   0.380160  0.998835  0.499834  0.695990
    C   C80   0.998835  0.380160  0.500166  0.695920
    Zn  Zn5   0.000020  0.430601  0.000082  1.344886
    Zn  Zn6   0.569543  0.999968  0.999998  1.344627
    Zn  Zn7   0.999968  0.569544  0.000002  1.344650
    Zn  Zn8   0.430601  0.000020  0.999918  1.344869
    Zn  Zn9   0.499972  0.930424  0.499926  1.345060
    Zn  Zn10  0.069367  0.500085  0.500012  1.345413
    Zn  Zn11  0.500085  0.069366  0.499988  1.345427
    Zn  Zn12  0.930424  0.499972  0.500074  1.345079
    C   C81   0.961706  0.539921  0.237400  0.123609
    C   C82   0.459163  0.962929  0.237382  0.117833
    C   C83   0.038108  0.461021  0.237410  0.122659
    C   C84   0.540683  0.036529  0.237271  0.117096
    C   C85   0.962929  0.459163  0.762618  0.117832
    C   C86   0.461020  0.038107  0.762590  0.122325
    C   C87   0.036529  0.540683  0.762729  0.117090
    C   C88   0.539921  0.961706  0.762600  0.123391
    C   C89   0.463538  0.040508  0.737317  0.121424
    C   C90   0.960415  0.461821  0.737349  0.122923
    C   C91   0.537138  0.958987  0.737337  0.119438
    C   C92   0.039315  0.538223  0.737461  0.124060
    C   C93   0.461821  0.960415  0.262651  0.122926
    C   C94   0.958987  0.537138  0.262663  0.119320
    C   C95   0.538223  0.039315  0.262539  0.124074
    C   C96   0.040508  0.463538  0.262683  0.121278
    C   C97   0.999984  0.500536  0.224838  -0.057498
    C   C98   0.499864  0.999673  0.224759  -0.051601
    C   C99   0.999673  0.499864  0.775241  -0.051606
    C   C100  0.500536  0.999983  0.775162  -0.056945
    C   C101  0.500275  0.999669  0.724760  -0.055348
    C   C102  0.999942  0.500061  0.724838  -0.055987
    C   C103  0.500061  0.999942  0.275162  -0.056004
    C   C104  0.999670  0.500275  0.275240  -0.055189
    C   C105  0.927484  0.582148  0.224344  -0.379543
    C   C106  0.415790  0.930038  0.224377  -0.374308
    C   C107  0.072501  0.418940  0.224349  -0.379978
    C   C108  0.583957  0.069275  0.224160  -0.375865
    C   C109  0.930038  0.415790  0.775623  -0.374269
    C   C110  0.418940  0.072500  0.775651  -0.379829
    C   C111  0.069274  0.583958  0.775840  -0.375828
    C   C112  0.582148  0.927484  0.775656  -0.379560
    C   C113  0.430647  0.083745  0.724242  -0.376906
    C   C114  0.918333  0.427565  0.724235  -0.377931
    C   C115  0.569882  0.915575  0.724296  -0.375563
    C   C116  0.081538  0.572583  0.724459  -0.377631
    C   C117  0.427565  0.918332  0.275766  -0.377983
    C   C118  0.915575  0.569882  0.275704  -0.375547
    C   C119  0.572582  0.081538  0.275541  -0.377627
    C   C120  0.083746  0.430648  0.275759  -0.376921
    C   C121  0.926534  0.581647  0.199566  0.377946
    C   C122  0.416242  0.928835  0.199601  0.373613
    C   C123  0.073744  0.419693  0.199574  0.376246
    C   C124  0.583261  0.070276  0.199383  0.377028
    C   C125  0.928836  0.416242  0.800399  0.373524
    C   C126  0.419692  0.073743  0.800426  0.376157
    C   C127  0.070276  0.583261  0.800617  0.376977
    C   C128  0.581648  0.926534  0.800434  0.378172
    C   C129  0.429427  0.083019  0.699466  0.373815
    C   C130  0.919116  0.426537  0.699459  0.374959
    C   C131  0.570863  0.915996  0.699519  0.377405
    C   C132  0.081067  0.573750  0.699682  0.372230
    C   C133  0.426537  0.919116  0.300542  0.375025
    C   C134  0.915996  0.570863  0.300481  0.377389
    C   C135  0.573750  0.081068  0.300318  0.372217
    C   C136  0.083020  0.429428  0.300534  0.373822
    C   C137  0.962985  0.540728  0.186899  -0.065447
    C   C138  0.458381  0.963736  0.186878  -0.058313
    C   C139  0.037435  0.460732  0.186904  -0.063454
    C   C140  0.540969  0.035304  0.186769  -0.060329
    C   C141  0.963736  0.458381  0.813122  -0.058190
    C   C142  0.460732  0.037434  0.813096  -0.063215
    C   C143  0.035304  0.540969  0.813231  -0.060222
    C   C144  0.540728  0.962985  0.813101  -0.065541
    C   C145  0.464308  0.040731  0.686811  -0.056735
    C   C146  0.960186  0.462941  0.686846  -0.059438
    C   C147  0.535872  0.958140  0.686836  -0.061510
    C   C148  0.040179  0.537393  0.686958  -0.056880
    C   C149  0.462941  0.960186  0.313154  -0.059434
    C   C150  0.958140  0.535872  0.313164  -0.061427
    C   C151  0.537393  0.040180  0.313043  -0.056869
    C   C152  0.040732  0.464308  0.313189  -0.056595
    C   C153  0.000136  0.500666  0.199616  -0.040289
    C   C154  0.499741  0.999568  0.199538  -0.046011
    C   C155  0.999568  0.499741  0.800463  -0.046083
    C   C156  0.500666  0.000135  0.800384  -0.040717
    C   C157  0.500151  0.999513  0.699538  -0.044727
    C   C158  0.000100  0.500134  0.699616  -0.046191
    C   C159  0.500134  0.000100  0.300384  -0.046188
    C   C160  0.999514  0.500151  0.300462  -0.044840
    C   C161  0.963393  0.539750  0.161761  0.379053
    C   C162  0.459312  0.963926  0.161739  0.371339
    C   C163  0.037306  0.461953  0.161766  0.378148
    C   C164  0.539740  0.034966  0.161632  0.369932
    C   C165  0.963927  0.459311  0.838261  0.371268
    C   C166  0.461952  0.037306  0.838234  0.378045
    C   C167  0.034966  0.539740  0.838368  0.369843
    C   C168  0.539750  0.963393  0.838239  0.379059
    C   C169  0.464459  0.039504  0.661674  0.370228
    C   C170  0.961463  0.463260  0.661710  0.373669
    C   C171  0.535494  0.959070  0.661698  0.372404
    C   C172  0.039256  0.537177  0.661818  0.373208
    C   C173  0.463261  0.961463  0.338290  0.373619
    C   C174  0.959070  0.535494  0.338302  0.372293
    C   C175  0.537177  0.039256  0.338182  0.373173
    C   C176  0.039504  0.464459  0.338326  0.370104
    N   N1    0.000418  0.500911  0.149776  -0.110281
    N   N2    0.499447  0.999419  0.149701  -0.100236
    N   N3    0.999419  0.499447  0.850299  -0.100215
    N   N4    0.500911  0.000418  0.850224  -0.110246
    N   N5    0.499922  0.999215  0.649701  -0.103031
    N   N6    0.000449  0.500238  0.649776  -0.105349
    N   N7    0.500238  0.000449  0.350224  -0.105284
    N   N8    0.999216  0.499922  0.350299  -0.102954
    H   H33   0.901545  0.618334  0.232653  0.192090
    H   H34   0.378742  0.905428  0.232725  0.189589
    H   H35   0.098357  0.382680  0.232649  0.191231
    H   H36   0.621100  0.093930  0.232421  0.188727
    H   H37   0.905428  0.378742  0.767276  0.189585
    H   H38   0.382680  0.098356  0.767352  0.191207
    H   H39   0.093929  0.621100  0.767579  0.188713
    H   H40   0.618334  0.901545  0.767347  0.192067
    H   H41   0.406046  0.120885  0.732529  0.189400
    H   H42   0.882052  0.401652  0.732493  0.190926
    H   H43   0.594546  0.878525  0.732618  0.189342
    H   H44   0.117703  0.598465  0.732809  0.191992
    H   H45   0.401652  0.882052  0.267507  0.190929
    H   H46   0.878525  0.594546  0.267383  0.189340
    H   H47   0.598464  0.117704  0.267191  0.191989
    H   H48   0.120886  0.406047  0.267471  0.189384
    O   O49   0.925935  0.576382  0.148993  -0.453017
    O   O50   0.421282  0.927775  0.149020  -0.452830
    O   O51   0.074888  0.425428  0.149006  -0.454796
    O   O52   0.577608  0.071055  0.148812  -0.451935
    O   O53   0.927775  0.421282  0.850980  -0.452809
    O   O54   0.425427  0.074887  0.850994  -0.454765
    O   O55   0.071055  0.577609  0.851188  -0.451921
    O   O56   0.576382  0.925935  0.851007  -0.453020
    O   O57   0.428290  0.077385  0.648894  -0.453129
    O   O58   0.924980  0.425761  0.648894  -0.453204
    O   O59   0.571560  0.921048  0.648939  -0.452297
    O   O60   0.075923  0.574724  0.649106  -0.453367
    O   O61   0.425762  0.924979  0.351106  -0.453198
    O   O62   0.921048  0.571559  0.351062  -0.452264
    O   O63   0.574723  0.075924  0.350894  -0.453362
    O   O64   0.077386  0.428291  0.351106  -0.453110
    C   C177  0.986534  0.448216  0.111322  -0.166124
    C   C178  0.551388  0.983252  0.111230  -0.164846
    C   C179  0.014557  0.553944  0.111408  -0.164866
    C   C180  0.446897  0.015582  0.111362  -0.157903
    C   C181  0.983252  0.551387  0.888770  -0.164843
    C   C182  0.553944  0.014558  0.888592  -0.164879
    C   C183  0.015582  0.446897  0.888638  -0.157894
    C   C184  0.448216  0.986533  0.888678  -0.166241
    C   C185  0.483629  0.946747  0.611352  -0.162480
    C   C186  0.053622  0.486260  0.611431  -0.166309
    C   C187  0.515972  0.051233  0.611241  -0.164651
    C   C188  0.947891  0.514270  0.611301  -0.167468
    C   C189  0.486259  0.053622  0.388570  -0.166290
    C   C190  0.051234  0.515972  0.388759  -0.164690
    C   C191  0.514270  0.947891  0.388699  -0.167440
    C   C192  0.946748  0.483629  0.388648  -0.162461
    H   H49   0.974664  0.406677  0.120900  0.142225
    H   H50   0.592437  0.969723  0.120795  0.141453
    H   H51   0.026395  0.595391  0.121054  0.141031
    H   H52   0.406000  0.029097  0.121030  0.138884
    H   H53   0.969723  0.592437  0.879206  0.141463
    H   H54   0.595391  0.026395  0.878946  0.141032
    H   H55   0.029098  0.406000  0.878970  0.138888
    H   H56   0.406676  0.974664  0.879100  0.142268
    H   H57   0.470121  0.905835  0.621012  0.139635
    H   H58   0.095041  0.474408  0.621093  0.141339
    H   H59   0.529520  0.092265  0.620813  0.141383
    H   H60   0.906320  0.526115  0.620862  0.142136
    H   H61   0.474408  0.095041  0.378907  0.141337
    H   H62   0.092265  0.529520  0.379187  0.141406
    H   H63   0.526116  0.906320  0.379138  0.142131
    H   H64   0.905836  0.470121  0.378988  0.139631
    C   C193  0.987152  0.448143  0.086415  -0.060435
    C   C194  0.551425  0.983888  0.086323  -0.066505
    C   C195  0.013915  0.554285  0.086501  -0.060043
    C   C196  0.446484  0.015046  0.086456  -0.069165
    C   C197  0.983888  0.551424  0.913677  -0.066465
    C   C198  0.554285  0.013916  0.913499  -0.060044
    C   C199  0.015046  0.446484  0.913544  -0.069136
    C   C200  0.448143  0.987152  0.913585  -0.060340
    C   C201  0.484193  0.946358  0.586445  -0.065149
    C   C202  0.054025  0.486885  0.586524  -0.056941
    C   C203  0.515366  0.051294  0.586333  -0.065372
    C   C204  0.947879  0.513634  0.586394  -0.058892
    C   C205  0.486885  0.054025  0.413476  -0.056951
    C   C206  0.051294  0.515366  0.413667  -0.065302
    C   C207  0.513634  0.947879  0.413606  -0.058918
    C   C208  0.946358  0.484193  0.413555  -0.065115
    H   H65   0.975917  0.406318  0.076930  0.105586
    H   H66   0.592746  0.970991  0.076824  0.108761
    H   H67   0.025102  0.596221  0.077084  0.105981
    H   H68   0.405027  0.028007  0.077063  0.109570
    H   H69   0.970991  0.592746  0.923176  0.108733
    H   H70   0.596221  0.025102  0.922916  0.105980
    H   H71   0.028007  0.405027  0.922937  0.109545
    H   H72   0.406318  0.975917  0.923070  0.105552
    H   H73   0.471260  0.904904  0.577044  0.109004
    H   H74   0.095979  0.475673  0.577124  0.105172
    H   H75   0.528303  0.092616  0.576844  0.108084
    H   H76   0.906071  0.524832  0.576892  0.105457
    H   H77   0.475673  0.095979  0.422876  0.105164
    H   H78   0.092616  0.528303  0.423156  0.108044
    H   H79   0.524832  0.906071  0.423108  0.105457
    H   H80   0.904904  0.471260  0.422956  0.108990
    C   C209  0.000505  0.501288  0.073881  0.033004
    C   C210  0.498862  0.999503  0.073810  0.037293
    C   C211  0.999503  0.498862  0.926190  0.037255
    C   C212  0.501287  0.000505  0.926119  0.033009
    C   C213  0.499781  0.998739  0.573810  0.035062
    C   C214  0.001050  0.500253  0.573882  0.031334
    C   C215  0.500253  0.001050  0.426118  0.031425
    C   C216  0.998739  0.499781  0.426190  0.034961
    O   O65   0.890862  0.624214  0.188048  -0.324872
    C   C217  0.831156  0.601091  0.189168  0.157617
    H   H81   0.806822  0.621175  0.204888  -0.006801
    H   H82   0.832213  0.550418  0.190838  -0.010157
    H   H83   0.806402  0.613331  0.172343  0.049281
    O   O66   0.372487  0.894514  0.188138  -0.324352
    C   C218  0.393605  0.834078  0.189328  0.164538
    H   H84   0.372738  0.810555  0.205081  -0.008790
    H   H85   0.444287  0.833454  0.190991  -0.011978
    H   H86   0.380527  0.809614  0.172535  0.047597
    O   O67   0.109564  0.377253  0.188054  -0.321845
    C   C219  0.169247  0.400388  0.189315  0.155848
    H   H87   0.193410  0.380154  0.205046  -0.006558
    H   H88   0.168151  0.451043  0.191064  -0.008977
    H   H89   0.194196  0.388329  0.172515  0.049427
    O   O68   0.626921  0.104479  0.187809  -0.324253
    C   C220  0.605868  0.164942  0.188967  0.163378
    H   H90   0.626920  0.188558  0.204660  -0.008316
    H   H91   0.555205  0.165623  0.190711  -0.012049
    H   H92   0.618793  0.189277  0.172127  0.047872
    O   O69   0.894514  0.372486  0.811862  -0.324339
    C   C221  0.834079  0.393604  0.810672  0.164520
    H   H93   0.810556  0.372736  0.794919  -0.008784
    H   H94   0.833454  0.444286  0.809009  -0.011980
    H   H95   0.809614  0.380526  0.827465  0.047596
    O   O70   0.377253  0.109563  0.811946  -0.321873
    C   C222  0.400387  0.169246  0.810685  0.155867
    H   H96   0.380153  0.193409  0.794954  -0.006559
    H   H97   0.451042  0.168151  0.808936  -0.008983
    H   H98   0.388328  0.194195  0.827485  0.049425
    O   O71   0.104479  0.626922  0.812191  -0.324246
    C   C223  0.164941  0.605869  0.811033  0.163404
    H   H99   0.188557  0.626921  0.795340  -0.008323
    H   H100  0.165622  0.555205  0.809289  -0.012065
    H   H101  0.189277  0.618794  0.827873  0.047861
    O   O72   0.624215  0.890862  0.811952  -0.324942
    C   C224  0.601092  0.831156  0.810832  0.157662
    H   H102  0.621176  0.806823  0.795113  -0.006804
    H   H103  0.550418  0.832212  0.809162  -0.010175
    H   H104  0.613332  0.806402  0.827657  0.049268
    O   O73   0.395102  0.126651  0.687932  -0.322834
    C   C225  0.334663  0.105559  0.689169  0.162829
    H   H105  0.311161  0.126610  0.704889  -0.008273
    H   H106  0.334030  0.054897  0.690921  -0.011193
    H   H107  0.310183  0.118452  0.672357  0.047750
    O   O74   0.876679  0.390831  0.687882  -0.322855
    C   C226  0.899783  0.331127  0.689073  0.156596
    H   H108  0.879513  0.306846  0.704769  -0.006696
    H   H109  0.950436  0.332183  0.690835  -0.009789
    H   H110  0.887735  0.306319  0.672239  0.049474
    O   O75   0.605060  0.872210  0.688016  -0.326000
    C   C227  0.665520  0.893286  0.689126  0.166784
    H   H111  0.689158  0.872417  0.704852  -0.009595
    H   H112  0.666194  0.943969  0.690780  -0.012926
    H   H113  0.689838  0.880174  0.672305  0.047303
    O   O76   0.123634  0.609539  0.688221  -0.322348
    C   C228  0.100478  0.669223  0.689411  0.154573
    H   H114  0.120527  0.693438  0.705166  -0.006140
    H   H115  0.049803  0.668126  0.691069  -0.008750
    H   H116  0.112728  0.694121  0.672620  0.049915
    O   O77   0.390832  0.876679  0.312118  -0.322872
    C   C229  0.331127  0.899782  0.310927  0.156625
    H   H117  0.306847  0.879512  0.295231  -0.006694
    H   H118  0.332183  0.950435  0.309165  -0.009796
    H   H119  0.306320  0.887735  0.327761  0.049463
    O   O78   0.872209  0.605060  0.311984  -0.325998
    C   C230  0.893286  0.665520  0.310874  0.166735
    H   H120  0.872417  0.689157  0.295148  -0.009576
    H   H121  0.943969  0.666194  0.309220  -0.012914
    H   H122  0.880174  0.689838  0.327696  0.047307
    O   O79   0.609539  0.123635  0.311779  -0.322344
    C   C231  0.669223  0.100479  0.310589  0.154594
    H   H123  0.693438  0.120528  0.294834  -0.006161
    H   H124  0.668126  0.049804  0.308931  -0.008752
    H   H125  0.694120  0.112729  0.327380  0.049913
    O   O80   0.126652  0.395102  0.312068  -0.322892
    C   C232  0.105560  0.334664  0.310831  0.163145
    H   H126  0.126611  0.311162  0.295111  -0.008346
    H   H127  0.054898  0.334030  0.309079  -0.011275
    H   H128  0.118454  0.310184  0.327643  0.047631
