# Generated by REPEAT Assigner based on pymatgen
data_DB0-m3_o11_o18_f0_pcu.sym.50
_audit_creation_date              2022-05-24
_audit_creation_method            REPEAT_Assigner
_cell_length_a                    9.940694
_cell_length_b                    11.128991
_cell_length_c                    15.936281
_cell_angle_alpha                 90.001615
_cell_angle_beta                  72.251227
_cell_angle_gamma                 89.997426
_cell_volume                      1679.112998
_symmetry_space_group_name_H-M    P1
_symmetry_Int_Tables_number       1
loop_
    _symmetry_equiv_pos_site_id
    _symmetry_equiv_pos_as_xyz
    1  x,y,z
loop_
    _atom_site_type_symbol
    _atom_site_label
    _atom_site_fract_x
    _atom_site_fract_y
    _atom_site_fract_z
    _atom_type_partial_charge
    O   O1   0.384168  0.670896  0.509804  -0.694244
    O   O2   0.616242  0.673388  0.508728  -0.601541
    C   C1   0.498936  0.728345  0.510566  0.731715
    O   O3   0.321307  0.486714  0.636590  -0.641812
    O   O4   0.553365  0.488713  0.636808  -0.703758
    C   C2   0.417393  0.485979  0.678053  0.743467
    Zn  Zn1  0.355924  0.491076  0.504469  1.073805
    Zn  Zn2  0.660718  0.495586  0.506638  1.085464
    O   O5   0.400120  0.313383  0.501621  -0.704283
    O   O6   0.632974  0.315430  0.501365  -0.675950
    O   O7   0.463479  0.498252  0.374355  -0.665941
    O   O8   0.695075  0.499252  0.374533  -0.729149
    C   C3   0.516965  0.258505  0.500724  0.793695
    C   C4   0.599222  0.500536  0.333021  0.809266
    C   C5   0.372770  0.478734  0.774766  -0.081740
    C   C6   0.643880  0.505930  0.236222  -0.090284
    C   C7   0.196577  0.441383  0.911003  -0.232461
    C   C8   0.234710  0.453250  0.821041  -0.083170
    C   C9   0.471393  0.493965  0.819529  -0.146295
    C   C10  0.434210  0.482827  0.911164  0.020666
    C   C11  0.294862  0.455916  0.955568  0.224254
    C   C12  0.531407  0.496826  0.959412  0.080429
    C   C13  0.486021  0.484331  0.051371  0.024237
    C   C14  0.344800  0.455814  0.092631  -0.182184
    C   C15  0.251726  0.442200  0.045229  -0.206241
    C   C16  0.673380  0.522473  0.917962  -0.216186
    C   C17  0.766735  0.534788  0.965268  -0.251800
    C   C18  0.722991  0.523397  0.055083  0.222548
    C   C19  0.582949  0.499389  0.099689  0.081147
    C   C20  0.821543  0.536773  0.099540  -0.213978
    C   C21  0.782924  0.526900  0.189618  -0.152757
    C   C22  0.544779  0.492413  0.191578  -0.168377
    H   H1   0.143063  0.419897  0.079653  0.105113
    H   H2   0.438005  0.477149  0.231191  0.102018
    H   H3   0.862016  0.538228  0.222772  0.195803
    H   H4   0.876121  0.554244  0.930631  0.141754
    H   H5   0.088406  0.419304  0.946669  0.126408
    H   H6   0.156145  0.440065  0.787662  0.088971
    H   H7   0.576714  0.515152  0.780180  0.097856
    H   H8   0.300352  0.441472  0.162180  0.141363
    H   H9   0.718887  0.533354  0.848168  0.154694
    H   H10  0.930459  0.555888  0.063658  0.116108
    C   C23  0.616812  0.057806  0.507729  -0.019389
    C   C24  0.512586  0.127047  0.498514  -0.310155
    H   H11  0.711307  0.099669  0.514606  0.089653
    H   H12  0.417990  0.088714  0.489870  0.162983
    C   C25  0.611298  0.924809  0.507769  -0.071390
    C   C26  0.495362  0.860166  0.512068  -0.286236
    H   H13  0.707969  0.878531  0.505311  0.132673
    H   H14  0.395088  0.901733  0.517059  0.164159
    C   C27  0.060276  0.418907  0.548201  0.053999
    N   N1   0.158206  0.484775  0.498106  -0.196047
    H   H15  0.082936  0.363522  0.598196  0.138400
    H   H16  0.138094  0.518561  0.443157  0.200567
    C   C28  0.920109  0.409962  0.533894  -0.012493
    N   N2   0.860001  0.501154  0.510439  -0.160304
    H   H17  0.867559  0.323539  0.543455  0.161676
    C   C29  0.899493  0.614885  0.535162  0.368881
    C   C30  0.947136  0.703588  0.472451  -0.014056
    Cl  Cl1  0.960526  0.675402  0.362129  -0.080650
    C   C31  0.987332  0.813941  0.496136  -0.078996
    C   C32  0.976142  0.837363  0.582917  -0.098241
    C   C33  0.924414  0.750478  0.646143  -0.111279
    C   C34  0.885746  0.639577  0.622492  -0.287199
    H   H18  0.026602  0.882500  0.446663  0.108272
    H   H19  0.006855  0.924145  0.601480  0.120055
    H   H20  0.914249  0.769244  0.714356  0.126060
    H   H21  0.844471  0.572477  0.672819  0.180427
