data_DB0-m3_o12_o29_f0_pcu.sym.58_repeat
_audit_creation_date              2024-02-23
_audit_creation_method            'Materials Studio'
_symmetry_space_group_name_H-M    'P1'
_symmetry_Int_Tables_number       1
_symmetry_cell_setting            triclinic
loop_
_symmetry_equiv_pos_as_xyz
  x,y,z
_cell_length_a                    10.0488
_cell_length_b                    11.2250
_cell_length_c                    27.6484
_cell_angle_alpha                 89.9848
_cell_angle_beta                  80.7395
_cell_angle_gamma                 92.4623
loop_
_atom_site_label
_atom_site_type_symbol
_atom_site_fract_x
_atom_site_fract_y
_atom_site_fract_z
_atom_site_U_iso_or_equiv
_atom_site_adp_type
_atom_site_occupancy
O1     O     0.46515   0.68839   0.50153   0.00000  Uiso   1.00
O2     O     0.60770   0.30680   0.49518   0.00000  Uiso   1.00
O3     O     0.69348   0.65692   0.48992   0.00000  Uiso   1.00
O4     O     0.37945   0.33826   0.50724   0.00000  Uiso   1.00
C1     C     0.59151   0.72766   0.49494   0.00000  Uiso   1.00
C2     C     0.48138   0.26751   0.50194   0.00000  Uiso   1.00
O5     O     0.42001   0.51427   0.57660   0.00000  Uiso   1.00
O6     O     0.65337   0.48180   0.42032   0.00000  Uiso   1.00
O7     O     0.64790   0.48309   0.56474   0.00000  Uiso   1.00
O8     O     0.42468   0.51174   0.43211   0.00000  Uiso   1.00
C3     C     0.53306   0.49934   0.59353   0.00000  Uiso   1.00
C4     C     0.54028   0.49617   0.40341   0.00000  Uiso   1.00
Zn1    Zn    0.38612   0.51897   0.50630   0.00000  Uiso   1.00
Zn2    Zn    0.68677   0.47621   0.49062   0.00000  Uiso   1.00
C5     C     0.55011   0.60465   0.82220   0.00000  Uiso   1.00
C6     C     0.55650   0.39347   0.17338   0.00000  Uiso   1.00
O9     O     0.54770   0.70795   0.79784   0.00000  Uiso   1.00
O10    O     0.53670   0.29106   0.19923   0.00000  Uiso   1.00
N1     N     0.54892   0.50088   0.79779   0.00000  Uiso   1.00
N2     N     0.57598   0.49668   0.19656   0.00000  Uiso   1.00
C7     C     0.55395   0.39658   0.82137   0.00000  Uiso   1.00
C8     C     0.59799   0.60006   0.17126   0.00000  Uiso   1.00
C9     C     0.64969   0.46022   0.71391   0.00000  Uiso   1.00
C10    C     0.67804   0.52708   0.26999   0.00000  Uiso   1.00
C11    C     0.64450   0.45973   0.66447   0.00000  Uiso   1.00
C12    C     0.66784   0.52657   0.32032   0.00000  Uiso   1.00
C13    C     0.42715   0.54485   0.67957   0.00000  Uiso   1.00
C14    C     0.43451   0.46418   0.32826   0.00000  Uiso   1.00
C15    C     0.43264   0.54312   0.72941   0.00000  Uiso   1.00
C16    C     0.44561   0.46594   0.27764   0.00000  Uiso   1.00
C17    C     0.54378   0.50153   0.74653   0.00000  Uiso   1.00
C18    C     0.56682   0.49672   0.24857   0.00000  Uiso   1.00
C19    C     0.56126   0.49973   0.89670   0.00000  Uiso   1.00
C20    C     0.57764   0.49725   0.09677   0.00000  Uiso   1.00
C21    C     0.55703   0.60534   0.87180   0.00000  Uiso   1.00
C22    C     0.55803   0.39240   0.12326   0.00000  Uiso   1.00
C23    C     0.55876   0.71124   0.89664   0.00000  Uiso   1.00
C24    C     0.53734   0.28708   0.09974   0.00000  Uiso   1.00
C25    C     0.55943   0.39474   0.87106   0.00000  Uiso   1.00
C26    C     0.59826   0.60166   0.12116   0.00000  Uiso   1.00
C27    C     0.53325   0.50062   0.64683   0.00000  Uiso   1.00
C28    C     0.54610   0.49683   0.34987   0.00000  Uiso   1.00
H1     H     0.34843   0.57063   0.75580   0.00000  Uiso   1.00
H2     H     0.35865   0.44636   0.26007   0.00000  Uiso   1.00
H3     H     0.55294   0.79547   0.87835   0.00000  Uiso   1.00
H4     H     0.51915   0.20361   0.11967   0.00000  Uiso   1.00
C29    C     0.58794   0.60528   0.02104   0.00000  Uiso   1.00
C30    C     0.56441   0.39131   0.97150   0.00000  Uiso   1.00
C31    C     0.56003   0.39087   0.02239   0.00000  Uiso   1.00
C32    C     0.57498   0.60625   0.97135   0.00000  Uiso   1.00
C33    C     0.57551   0.49778   0.04657   0.00000  Uiso   1.00
C34    C     0.56700   0.49911   0.94666   0.00000  Uiso   1.00
C35    C     0.61366   0.70940   0.04606   0.00000  Uiso   1.00
C36    C     0.56681   0.28627   0.94456   0.00000  Uiso   1.00
C37    C     0.61868   0.70730   0.09539   0.00000  Uiso   1.00
C38    C     0.56431   0.28828   0.89509   0.00000  Uiso   1.00
O11    O     0.61522   0.70232   0.19519   0.00000  Uiso   1.00
O12    O     0.55059   0.29384   0.79656   0.00000  Uiso   1.00
C39    C     0.56770   0.71202   0.94567   0.00000  Uiso   1.00
C40    C     0.53841   0.28598   0.05005   0.00000  Uiso   1.00
H5     H     0.75630   0.55148   0.33627   0.00000  Uiso   1.00
H6     H     0.72878   0.42568   0.63992   0.00000  Uiso   1.00
H7     H     0.77370   0.55077   0.24743   0.00000  Uiso   1.00
H8     H     0.73754   0.42820   0.72697   0.00000  Uiso   1.00
H9     H     0.63825   0.79036   0.11324   0.00000  Uiso   1.00
H10    H     0.56618   0.20455   0.87579   0.00000  Uiso   1.00
H11    H     0.63453   0.79517   0.02856   0.00000  Uiso   1.00
H12    H     0.57487   0.19956   0.96004   0.00000  Uiso   1.00
H13    H     0.56388   0.79837   0.96248   0.00000  Uiso   1.00
H14    H     0.51656   0.20040   0.03504   0.00000  Uiso   1.00
H15    H     0.65674   0.09395   0.49182   0.00000  Uiso   1.00
H16    H     0.41615   0.90122   0.50494   0.00000  Uiso   1.00
C41    C     0.62042   0.85686   0.49340   0.00000  Uiso   1.00
C42    C     0.45246   0.13831   0.50348   0.00000  Uiso   1.00
C43    C     0.52082   0.93314   0.49911   0.00000  Uiso   1.00
C44    C     0.55206   0.06204   0.49769   0.00000  Uiso   1.00
H17    H     0.34830   0.10480   0.50923   0.00000  Uiso   1.00
H18    H     0.72458   0.89037   0.48772   0.00000  Uiso   1.00
H19    H     0.14780   0.41275   0.47212   0.00000  Uiso   1.00
H20    H     0.92618   0.58565   0.52325   0.00000  Uiso   1.00
N3     N     0.88389   0.44546   0.48012   0.00000  Uiso   1.00
N4     N     0.18893   0.54966   0.51699   0.00000  Uiso   1.00
C45    C     0.96464   0.51113   0.50114   0.00000  Uiso   1.00
C46    C     0.10867   0.48541   0.49521   0.00000  Uiso   1.00
H21    H     0.14569   0.61812   0.53776   0.00000  Uiso   1.00
H22    H     0.92545   0.37304   0.46169   0.00000  Uiso   1.00
O13    O     0.31823   0.58546   0.66286   0.00000  Uiso   1.00
C47    C     0.24574   0.67707   0.68281   0.00000  Uiso   1.00
O14    O     0.29327   0.74893   0.70913   0.00000  Uiso   1.00
C48    C     0.11113   0.69661   0.66895   0.00000  Uiso   1.00
H23    H     0.12208   0.70901   0.62870   0.00000  Uiso   1.00
H24    H     0.06867   0.77733   0.68754   0.00000  Uiso   1.00
H25    H     0.04237   0.61813   0.68032   0.00000  Uiso   1.00
O15    O     0.31549   0.43289   0.35625   0.00000  Uiso   1.00
C49    C     0.22977   0.34774   0.34284   0.00000  Uiso   1.00
O16    O     0.27222   0.26649   0.31621   0.00000  Uiso   1.00
C50    C     0.08328   0.34960   0.36258   0.00000  Uiso   1.00
H26    H     0.06360   0.43144   0.38449   0.00000  Uiso   1.00
H27    H     0.05248   0.26941   0.38579   0.00000  Uiso   1.00
H28    H     0.02506   0.35000   0.33174   0.00000  Uiso   1.00
