# Generated by REPEAT Assigner based on pymatgen
data_DB0-m18_o17_o50_f0_fsc
_audit_creation_date              2022-05-24
_audit_creation_method            REPEAT_Assigner
_cell_length_a                    13.244888
_cell_length_b                    13.250683
_cell_length_c                    8.626857
_cell_angle_alpha                 90.000000
_cell_angle_beta                  93.390217
_cell_angle_gamma                 90.000000
_cell_volume                      1511.396573
_symmetry_space_group_name_H-M    P1
_symmetry_Int_Tables_number       1
loop_
    _symmetry_equiv_pos_site_id
    _symmetry_equiv_pos_as_xyz
    1  x,y,z
loop_
    _atom_site_type_symbol
    _atom_site_label
    _atom_site_fract_x
    _atom_site_fract_y
    _atom_site_fract_z
    _atom_type_partial_charge
    O   O1   0.885483  0.921070  0.825101  -0.682930
    O   O2   0.114517  0.078930  0.174900  -0.682852
    O   O3   0.100380  0.907553  0.175747  -0.697855
    O   O4   0.899620  0.092447  0.824254  -0.697953
    C   C1   0.856286  0.009564  0.770374  0.761543
    C   C2   0.143714  0.990436  0.229626  0.761347
    Fe  Fe1  0.007883  0.107730  0.000341  1.127495
    Fe  Fe2  0.992117  0.892270  0.999659  1.127490
    O   O5   0.903572  0.093971  0.166235  -0.715656
    O   O6   0.096428  0.906029  0.833765  -0.715734
    O   O7   0.110966  0.079197  0.837048  -0.707882
    O   O8   0.889034  0.920803  0.162952  -0.707821
    C   C3   0.862374  0.009999  0.214120  0.820677
    C   C4   0.137626  0.990001  0.785881  0.820771
    C   C5   0.001363  0.708327  0.135757  -0.213658
    C   C6   0.998637  0.291673  0.864244  -0.213624
    C   C7   0.972436  0.707691  0.865148  -0.234490
    C   C8   0.027564  0.292309  0.134852  -0.234558
    N   N1   0.984999  0.758402  0.000431  0.070798
    N   N2   0.015001  0.241598  0.999570  0.070824
    C   C9   0.977018  0.603528  0.863424  0.166881
    C   C10  0.022982  0.396472  0.136577  0.166959
    C   C11  0.008226  0.604382  0.137258  0.155438
    C   C12  0.991774  0.395618  0.862742  0.155452
    C   C13  0.996197  0.551834  0.000180  0.011883
    C   C14  0.003803  0.448166  0.999820  0.011808
    C   C15  0.964034  0.550966  0.725588  -0.192159
    C   C16  0.035966  0.449034  0.274412  -0.192185
    C   C17  0.028737  0.552985  0.274713  -0.198039
    C   C18  0.971263  0.447015  0.725287  -0.198052
    H   H1   0.011328  0.749625  0.243511  0.173687
    H   H2   0.988672  0.250375  0.756490  0.173641
    H   H3   0.961018  0.748709  0.757285  0.180283
    H   H4   0.038982  0.251291  0.242715  0.180303
    H   H5   0.947811  0.590883  0.617815  0.133883
    H   H6   0.052189  0.409117  0.382186  0.133892
    H   H7   0.039791  0.593892  0.382682  0.137501
    H   H8   0.960209  0.406108  0.617318  0.137509
    C   C19  0.200139  0.985776  0.652433  0.026574
    C   C20  0.799861  0.014224  0.347568  0.026552
    C   C21  0.303101  0.002186  0.665815  -0.344097
    C   C22  0.696899  0.997814  0.334185  -0.344093
    C   C23  0.358240  0.004402  0.534220  0.376179
    C   C24  0.641760  0.995598  0.465780  0.376162
    C   C25  0.307388  0.001115  0.388396  -0.349066
    C   C26  0.692612  0.998885  0.611605  -0.349003
    H   H9   0.346579  0.012204  0.283575  0.150069
    H   H10  0.653419  0.987796  0.716425  0.150076
    C   C27  0.203919  0.985875  0.376844  0.052849
    C   C28  0.796080  0.014125  0.623157  0.052732
    C   C29  0.152504  0.972650  0.508600  -0.189034
    C   C30  0.847496  0.027350  0.491400  -0.189030
    C   C31  0.469124  0.014455  0.554514  -0.250513
    C   C32  0.530876  0.985545  0.445486  -0.250505
    H   H11  0.500151  0.044261  0.663871  0.149622
    H   H12  0.499849  0.955739  0.336130  0.149609
    H   H13  0.340853  0.010934  0.779571  0.139814
    H   H14  0.659146  0.989066  0.220428  0.139823
    H   H15  0.072285  0.959145  0.498524  0.140319
    H   H16  0.927715  0.040855  0.501475  0.140345
