# Generated by REPEAT Assigner based on pymatgen
data_DB0-m3_o2_o5_f0_nbo.sym.65
_audit_creation_date              2022-05-24
_audit_creation_method            REPEAT_Assigner
_cell_length_a                    30.145574
_cell_length_b                    30.145570
_cell_length_c                    18.602377
_cell_angle_alpha                 90.000000
_cell_angle_beta                  90.000000
_cell_angle_gamma                 90.000000
_cell_volume                      16905.012257
_symmetry_space_group_name_H-M    P1
_symmetry_Int_Tables_number       1
loop_
    _symmetry_equiv_pos_site_id
    _symmetry_equiv_pos_as_xyz
    1  x,y,z
loop_
    _atom_site_type_symbol
    _atom_site_label
    _atom_site_fract_x
    _atom_site_fract_y
    _atom_site_fract_z
    _atom_type_partial_charge
    O   O1    0.433973  0.039452  0.502317  -0.686138
    O   O2    0.962164  0.433790  0.497368  -0.708641
    O   O3    0.566672  0.961182  0.498758  -0.692023
    O   O4    0.037165  0.565550  0.503351  -0.701781
    O   O5    0.566207  0.037840  0.502545  -0.708651
    O   O6    0.038820  0.433322  0.501262  -0.692428
    O   O7    0.434444  0.962841  0.496657  -0.701954
    O   O8    0.960557  0.566025  0.497587  -0.686506
    O   O9    0.933679  0.536998  0.998573  -0.707162
    O   O10   0.463002  0.934360  0.003488  -0.702661
    O   O11   0.065671  0.462380  0.002151  -0.701762
    O   O12   0.537665  0.066302  0.997603  -0.708324
    O   O13   0.065902  0.538993  0.996509  -0.686625
    O   O14   0.539614  0.934072  0.997832  -0.686799
    O   O15   0.933442  0.460339  0.002342  -0.691544
    O   O16   0.461005  0.066583  0.001384  -0.691792
    C   C1    0.224952  0.000051  0.498646  0.357181
    C   C2    0.999981  0.224306  0.498570  0.357427
    C   C3    0.775691  0.000016  0.501430  0.358130
    C   C4    0.999958  0.775044  0.501311  0.357631
    C   C5    0.724309  0.499520  0.001188  0.359988
    C   C6    0.500413  0.724958  0.001441  0.361688
    C   C7    0.275047  0.500372  0.998884  0.355819
    C   C8    0.499653  0.275696  0.998677  0.350307
    C   C9    0.413642  0.001041  0.499214  0.576876
    C   C10   0.000384  0.412992  0.499069  0.598331
    C   C11   0.587004  0.999619  0.500899  0.598364
    C   C12   0.998967  0.586354  0.500740  0.576679
    C   C13   0.912995  0.498722  0.000608  0.592864
    C   C14   0.501252  0.913649  0.000933  0.577097
    C   C15   0.086354  0.500634  0.999209  0.574871
    C   C16   0.499393  0.087008  0.999246  0.596012
    O   O17   0.499306  0.038137  0.393696  -0.662618
    O   O18   0.960916  0.500899  0.391911  -0.646024
    O   O19   0.502044  0.961518  0.392149  -0.647813
    O   O20   0.037558  0.499147  0.393567  -0.662319
    O   O21   0.499096  0.039150  0.607999  -0.645866
    O   O22   0.038425  0.497954  0.607863  -0.647962
    O   O23   0.500845  0.962507  0.606444  -0.662346
    O   O24   0.961808  0.500693  0.606215  -0.663025
    O   O25   0.000087  0.538508  0.891961  -0.646583
    O   O26   0.462500  0.000759  0.893700  -0.662869
    O   O27   0.998554  0.461861  0.893520  -0.661754
    O   O28   0.539146  0.999194  0.892148  -0.646113
    O   O29   0.001293  0.537483  0.106256  -0.664531
    O   O30   0.538131  0.999402  0.106451  -0.662401
    O   O31   0.998770  0.460857  0.107823  -0.647654
    O   O32   0.461506  0.001957  0.107995  -0.648082
    C   C17   0.500759  0.000065  0.359560  0.802983
    C   C18   0.999492  0.500118  0.359374  0.801686
    C   C19   0.499875  0.000590  0.640587  0.801708
    C   C20   0.999863  0.499240  0.640402  0.803469
    C   C21   0.999171  0.499951  0.859375  0.803292
    C   C22   0.500586  0.999881  0.859559  0.804405
    C   C23   0.000191  0.499403  0.140402  0.807425
    C   C24   0.500055  0.000764  0.140586  0.805093
    Zn  Zn1   0.500227  0.050605  0.500726  1.313002
    Zn  Zn2   0.949401  0.499771  0.499166  1.313491
    Zn  Zn3   0.500408  0.950052  0.499402  1.313538
    Zn  Zn4   0.049952  0.499586  0.500628  1.313679
    Zn  Zn5   0.999630  0.549954  0.999250  1.314538
    Zn  Zn6   0.450046  0.000291  0.000742  1.314126
    Zn  Zn7   0.999730  0.449401  0.000547  1.312692
    Zn  Zn8   0.550597  0.000355  0.999421  1.312774
    O   O33   0.978601  0.936974  0.450504  -0.490969
    O   O34   0.062773  0.977901  0.449505  -0.490645
    O   O35   0.021846  0.062084  0.449236  -0.489505
    O   O36   0.937663  0.021150  0.450237  -0.489374
    O   O37   0.022099  0.937221  0.550469  -0.490401
    O   O38   0.937914  0.978145  0.550755  -0.489693
    O   O39   0.978845  0.062330  0.549758  -0.488596
    O   O40   0.063023  0.021395  0.549474  -0.490721
    O   O41   0.478035  0.437950  0.949299  -0.488900
    O   O42   0.562280  0.478758  0.950190  -0.488039
    O   O43   0.521469  0.562995  0.950517  -0.490842
    O   O44   0.437234  0.522194  0.949628  -0.491721
    O   O45   0.521086  0.437638  0.049765  -0.489090
    O   O46   0.436970  0.478699  0.049595  -0.491079
    O   O47   0.478021  0.562813  0.050538  -0.490131
    O   O48   0.562144  0.521761  0.050710  -0.488670
    C   C25   0.000344  0.915539  0.500634  0.328217
    C   C26   0.084457  0.999655  0.499339  0.329141
    C   C27   0.000326  0.083772  0.499336  0.327712
    C   C28   0.916223  0.999666  0.500659  0.329371
    C   C29   0.499548  0.416229  0.999369  0.327722
    C   C30   0.583777  0.500213  0.000580  0.325841
    C   C31   0.499782  0.584463  0.000674  0.330037
    C   C32   0.415543  0.500465  0.999482  0.330864
    C   C33   0.500742  0.000563  0.282454  -0.129183
    C   C34   0.000028  0.500101  0.282269  -0.129160
    C   C35   0.499891  0.000087  0.717691  -0.129574
    C   C36   0.999331  0.499259  0.717507  -0.129438
    C   C37   0.999145  0.499449  0.782270  -0.132256
    C   C38   0.500083  0.999895  0.782454  -0.132761
    C   C39   0.000218  0.499909  0.217506  -0.133559
    C   C40   0.500553  0.000750  0.217691  -0.132587
    C   C41   0.296708  0.010474  0.561399  -0.116963
    C   C42   0.992489  0.296145  0.562188  -0.112262
    C   C43   0.703765  0.992642  0.564914  -0.107172
    C   C44   0.009728  0.703063  0.563716  -0.121498
    C   C45   0.703856  0.007553  0.437814  -0.113178
    C   C46   0.007316  0.296227  0.435063  -0.106450
    C   C47   0.296932  0.990305  0.436229  -0.121148
    C   C48   0.989516  0.703289  0.438564  -0.117502
    C   C49   0.796287  0.506587  0.064590  -0.107980
    C   C50   0.490722  0.796924  0.063927  -0.118605
    C   C51   0.203197  0.490276  0.061500  -0.119387
    C   C52   0.507164  0.203869  0.062332  -0.111590
    C   C53   0.203159  0.510463  0.936337  -0.122979
    C   C54   0.510860  0.796728  0.938744  -0.112243
    C   C55   0.796090  0.491691  0.937486  -0.109564
    C   C56   0.492208  0.203760  0.935247  -0.112220
    C   C57   0.342442  0.010157  0.561028  -0.349146
    C   C58   0.993542  0.341869  0.561875  -0.349272
    C   C59   0.658027  0.993446  0.564345  -0.353749
    C   C60   0.008931  0.657323  0.563106  -0.346245
    C   C61   0.658131  0.006506  0.438119  -0.348314
    C   C62   0.006508  0.341965  0.435623  -0.353627
    C   C63   0.342672  0.991104  0.436837  -0.346272
    C   C64   0.989829  0.657555  0.438935  -0.348934
    C   C65   0.842019  0.505480  0.064015  -0.352420
    C   C66   0.491477  0.842664  0.063327  -0.347560
    C   C67   0.157464  0.490910  0.061087  -0.349555
    C   C68   0.506160  0.158144  0.062031  -0.349369
    C   C69   0.157416  0.509981  0.936903  -0.349401
    C   C70   0.510497  0.842462  0.939123  -0.351508
    C   C71   0.841821  0.492435  0.937785  -0.354681
    C   C72   0.493052  0.158023  0.935818  -0.353397
    H   H1    0.360594  0.017987  0.609501  0.175890
    H   H2    0.988053  0.360092  0.611116  0.170635
    H   H3    0.639730  0.987763  0.613457  0.171812
    H   H4    0.016610  0.638990  0.611463  0.175009
    H   H5    0.639912  0.012028  0.388884  0.170345
    H   H6    0.012157  0.360258  0.386498  0.171521
    H   H7    0.361005  0.983441  0.388472  0.174949
    H   H8    0.981981  0.639404  0.390468  0.175771
    H   H9    0.860355  0.511021  0.113130  0.171293
    H   H10   0.483800  0.860986  0.111697  0.174892
    H   H11   0.139239  0.483208  0.109542  0.175730
    H   H12   0.511728  0.139932  0.111260  0.170291
    H   H13   0.139157  0.517786  0.888525  0.175993
    H   H14   0.518288  0.860625  0.890644  0.176305
    H   H15   0.860001  0.486782  0.888550  0.172272
    H   H16   0.487379  0.139719  0.886711  0.171974
    C   C73   0.365326  0.000764  0.498997  0.378995
    C   C74   0.000106  0.364680  0.498824  0.379817
    C   C75   0.635316  0.999895  0.501152  0.379203
    C   C76   0.999245  0.634670  0.500955  0.379250
    C   C77   0.864683  0.498869  0.000823  0.384818
    C   C78   0.501087  0.865332  0.001160  0.380925
    C   C79   0.134671  0.500489  0.999042  0.383228
    C   C80   0.499558  0.135320  0.999003  0.381218
    Zn  Zn9   0.000158  0.999474  0.430261  1.115334
    Zn  Zn10  0.000524  0.999835  0.569723  1.115067
    Zn  Zn11  0.499807  0.500528  0.930299  1.114767
    Zn  Zn12  0.499511  0.500166  0.069761  1.115069
    C   C81   0.273518  0.000297  0.498742  0.038233
    C   C82   0.999851  0.272883  0.498569  0.020944
    C   C83   0.727113  0.000149  0.501424  0.021908
    C   C84   0.999715  0.726478  0.501212  0.038513
    C   C85   0.772886  0.499221  0.001110  0.020165
    C   C86   0.500708  0.773524  0.001397  0.033280
    C   C87   0.226480  0.500322  0.998878  0.042840
    C   C88   0.499729  0.227117  0.998723  0.026984
    C   C89   0.201852  0.031712  0.460647  -0.206643
    C   C90   0.967574  0.201209  0.462274  -0.204875
    C   C91   0.798485  0.967468  0.465005  -0.208640
    C   C92   0.031806  0.797825  0.463246  -0.204357
    C   C93   0.798788  0.032410  0.537754  -0.205524
    C   C94   0.032538  0.201510  0.534971  -0.207789
    C   C95   0.202175  0.968195  0.536699  -0.204589
    C   C96   0.968302  0.798140  0.539326  -0.207123
    C   C97   0.701584  0.532136  0.964806  -0.208660
    C   C98   0.468512  0.702242  0.963394  -0.206131
    C   C99   0.298065  0.468650  0.960888  -0.206030
    C   C100  0.532074  0.298729  0.962308  -0.203891
    C   C101  0.297906  0.532159  0.036958  -0.204861
    C   C102  0.532050  0.701798  0.039396  -0.208896
    C   C103  0.701143  0.467190  0.037544  -0.207932
    C   C104  0.467155  0.298554  0.035115  -0.201774
    H   H17   0.219726  0.056706  0.430716  0.086178
    H   H18   0.942063  0.219088  0.433517  0.085740
    H   H19   0.780359  0.942078  0.436372  0.088746
    H   H20   0.056646  0.779695  0.433381  0.085813
    H   H21   0.780911  0.057915  0.566529  0.085734
    H   H22   0.057937  0.219634  0.563584  0.088342
    H   H23   0.220307  0.943352  0.566552  0.085854
    H   H24   0.943313  0.780263  0.569265  0.086191
    H   H25   0.719763  0.557479  0.936153  0.088225
    H   H26   0.443687  0.720425  0.933581  0.086392
    H   H27   0.280127  0.443712  0.930934  0.085706
    H   H28   0.557539  0.280800  0.933528  0.085883
    H   H29   0.279837  0.557053  0.066801  0.085732
    H   H30   0.557080  0.719622  0.069327  0.086266
    H   H31   0.718966  0.441635  0.066289  0.086974
    H   H32   0.441745  0.280481  0.063788  0.086441
    C   C105  0.156153  0.031295  0.459547  -0.300510
    C   C106  0.968049  0.155515  0.460920  -0.291999
    C   C107  0.844159  0.967663  0.463238  -0.290019
    C   C108  0.031713  0.843513  0.461818  -0.301048
    C   C109  0.844483  0.031934  0.539103  -0.291973
    C   C110  0.032339  0.155835  0.536743  -0.291087
    C   C111  0.156487  0.968285  0.538134  -0.299827
    C   C112  0.968715  0.843839  0.540429  -0.301077
    C   C113  0.655906  0.532063  0.963105  -0.290182
    C   C114  0.468524  0.656555  0.961925  -0.300120
    C   C115  0.343766  0.468956  0.959778  -0.300197
    C   C116  0.531678  0.344423  0.960926  -0.291960
    C   C117  0.343593  0.531958  0.038381  -0.299259
    C   C118  0.531557  0.656098  0.040461  -0.298007
    C   C119  0.655453  0.467787  0.038959  -0.291880
    C   C120  0.467432  0.344230  0.036847  -0.293043
    C   C121  0.133039  0.999725  0.498967  0.281236
    C   C122  0.000252  0.132367  0.498968  0.268026
    C   C123  0.867629  0.999739  0.501033  0.266903
    C   C124  0.000277  0.866957  0.501000  0.282863
    C   C125  0.632371  0.500040  0.000918  0.268596
    C   C126  0.499936  0.633045  0.001055  0.279447
    C   C127  0.366961  0.500475  0.999184  0.280611
    C   C128  0.499537  0.367635  0.999011  0.268660
    C   C129  0.274500  0.021770  0.629190  0.379310
    C   C130  0.239825  0.051084  0.636691  -0.245722
    C   C131  0.231547  0.053007  0.708278  -0.214725
    C   C132  0.262047  0.025294  0.739682  -0.066627
    O   O49   0.288635  0.006496  0.691897  -0.158155
    H   H33   0.223420  0.069967  0.595185  0.119998
    H   H34   0.206684  0.072854  0.735088  0.137889
    H   H35   0.264731  0.019663  0.796901  0.134151
    C   C133  0.983167  0.273999  0.630829  0.378192
    C   C134  0.953667  0.239700  0.640689  -0.240516
    C   C135  0.953954  0.231313  0.712300  -0.216412
    C   C136  0.983052  0.261393  0.741418  -0.070866
    O   O50   0.000634  0.287823  0.692198  -0.154080
    H   H36   0.933279  0.223590  0.600770  0.117839
    H   H37   0.934674  0.206646  0.740632  0.141256
    H   H38   0.990565  0.263894  0.798088  0.134579
    C   C137  0.725824  0.983312  0.633629  0.377237
    C   C138  0.760125  0.953822  0.643619  -0.243777
    C   C139  0.768385  0.954091  0.715269  -0.214236
    C   C140  0.738239  0.983162  0.744275  -0.070456
    O   O51   0.711883  0.000746  0.694953  -0.153549
    H   H39   0.776326  0.933435  0.603788  0.118263
    H   H40   0.793013  0.934812  0.743695  0.140868
    H   H41   0.735634  0.990652  0.800942  0.134118
    C   C141  0.021366  0.725046  0.631555  0.384173
    C   C142  0.051047  0.759414  0.639087  -0.245137
    C   C143  0.053163  0.767550  0.710702  -0.217025
    C   C144  0.025192  0.737278  0.742087  -0.063260
    O   O52   0.006049  0.710962  0.694265  -0.160927
    H   H42   0.070055  0.775714  0.597610  0.117860
    H   H43   0.073304  0.792167  0.737535  0.138412
    H   H44   0.019624  0.734555  0.799318  0.133373
    C   C145  0.726007  0.016908  0.369189  0.377648
    C   C146  0.760310  0.046408  0.359374  -0.240246
    C   C147  0.768700  0.046158  0.287764  -0.216254
    C   C148  0.738618  0.017079  0.258603  -0.072394
    O   O53   0.712183  0.999475  0.307795  -0.153313
    H   H45   0.776419  0.066774  0.399324  0.117925
    H   H46   0.793371  0.065450  0.259462  0.141386
    H   H47   0.736119  0.009596  0.201922  0.135177
    C   C149  0.016610  0.274164  0.366338  0.376473
    C   C150  0.046097  0.239864  0.356313  -0.243411
    C   C151  0.045789  0.231598  0.284666  -0.214206
    C   C152  0.016700  0.261739  0.255694  -0.071720
    O   O54   0.999142  0.288098  0.305036  -0.152772
    H   H48   0.066506  0.223667  0.396120  0.118220
    H   H49   0.065054  0.206968  0.256218  0.140968
    H   H50   0.009179  0.264339  0.199038  0.134611
    C   C153  0.274948  0.978683  0.368383  0.383224
    C   C154  0.240582  0.949001  0.360834  -0.244793
    C   C155  0.232444  0.946904  0.289218  -0.217566
    C   C156  0.262712  0.974886  0.257849  -0.063685
    O   O55   0.289029  0.994018  0.305683  -0.160136
    H   H51   0.224285  0.929981  0.402298  0.118057
    H   H52   0.207827  0.926768  0.262374  0.138731
    H   H53   0.265432  0.980470  0.200623  0.133572
    C   C157  0.978203  0.725498  0.370780  0.379442
    C   C158  0.948890  0.760175  0.363298  -0.246397
    C   C159  0.946950  0.768453  0.291713  -0.213806
    C   C160  0.974652  0.737950  0.260290  -0.067860
    O   O56   0.993461  0.711361  0.308063  -0.157599
    H   H54   0.930018  0.776581  0.404816  0.120251
    H   H55   0.927097  0.793316  0.264915  0.137650
    H   H56   0.980269  0.735266  0.203067  0.134521
    C   C161  0.774290  0.516048  0.133311  0.376419
    C   C162  0.740142  0.545715  0.143298  -0.240437
    C   C163  0.731889  0.545501  0.214951  -0.217793
    C   C164  0.761889  0.516281  0.243961  -0.068678
    O   O57   0.788148  0.498552  0.194639  -0.154337
    H   H57   0.724039  0.566178  0.103462  0.117109
    H   H58   0.707363  0.564910  0.243376  0.142006
    H   H59   0.764462  0.508787  0.300630  0.133983
    C   C165  0.479133  0.774928  0.131776  0.382826
    C   C166  0.449450  0.740565  0.139348  -0.245036
    C   C167  0.447384  0.732416  0.210962  -0.216634
    C   C168  0.475385  0.762675  0.242309  -0.064882
    O   O58   0.494498  0.788997  0.194464  -0.159965
    H   H60   0.430408  0.724279  0.097898  0.117847
    H   H61   0.427257  0.707798  0.237821  0.138359
    H   H62   0.480995  0.765386  0.299530  0.134119
    C   C169  0.225309  0.478813  0.129301  0.380256
    C   C170  0.259820  0.449304  0.136792  -0.245053
    C   C171  0.268057  0.447292  0.208385  -0.215974
    C   C172  0.237696  0.475152  0.239801  -0.065929
    O   O59   0.211232  0.494126  0.192016  -0.158718
    H   H63   0.276139  0.430354  0.095276  0.119102
    H   H64   0.292799  0.427291  0.235190  0.138210
    H   H65   0.235019  0.480763  0.297026  0.134246
    C   C173  0.516530  0.226027  0.130946  0.378038
    C   C174  0.546041  0.260321  0.140742  -0.241842
    C   C175  0.545802  0.268718  0.212351  -0.216869
    C   C176  0.516719  0.238647  0.241530  -0.070854
    O   O60   0.499101  0.212213  0.192350  -0.153894
    H   H66   0.566405  0.276419  0.100780  0.118544
    H   H67   0.565106  0.293386  0.240641  0.141417
    H   H68   0.509244  0.236155  0.298214  0.134679
    C   C177  0.225240  0.521936  0.868509  0.382724
    C   C178  0.259769  0.551429  0.860971  -0.244028
    C   C179  0.267953  0.553453  0.789363  -0.216335
    C   C180  0.237549  0.525623  0.757987  -0.064473
    O   O61   0.211107  0.506652  0.805808  -0.159419
    H   H69   0.276148  0.570376  0.902438  0.118078
    H   H70   0.292690  0.573445  0.762527  0.137913
    H   H71   0.234826  0.520030  0.700763  0.133661
    C   C181  0.522157  0.774531  0.870942  0.375416
    C   C182  0.551468  0.739854  0.863427  -0.243870
    C   C183  0.553388  0.731586  0.791837  -0.213737
    C   C184  0.525677  0.762092  0.760445  -0.067435
    O   O62   0.506882  0.788676  0.808241  -0.157453
    H   H72   0.570352  0.723440  0.904923  0.119188
    H   H73   0.573233  0.706725  0.765016  0.137435
    H   H74   0.520043  0.764783  0.703228  0.134494
    C   C185  0.773879  0.482481  0.868862  0.376362
    C   C186  0.739422  0.453163  0.859027  -0.240646
    C   C187  0.731026  0.453484  0.787419  -0.214998
    C   C188  0.761256  0.482416  0.758278  -0.073048
    O   O63   0.787788  0.499864  0.807480  -0.152604
    H   H75   0.723212  0.432867  0.898961  0.117970
    H   H76   0.706253  0.434329  0.759105  0.141169
    H   H77   0.763790  0.489906  0.701603  0.134988
    C   C189  0.482844  0.225812  0.866536  0.378684
    C   C190  0.453361  0.260122  0.856577  -0.242458
    C   C191  0.453596  0.268375  0.784925  -0.213777
    C   C192  0.482642  0.238217  0.755887  -0.072873
    O   O64   0.500243  0.211861  0.805192  -0.152753
    H   H78   0.433000  0.276336  0.896431  0.117720
    H   H79   0.434311  0.293007  0.756518  0.140864
    H   H80   0.490103  0.235605  0.699211  0.134965
    C   C193  0.133560  0.065431  0.417418  0.622280
    C   C194  0.104571  0.057319  0.361940  -0.452692
    C   C195  0.094466  0.097799  0.334536  -0.111829
    C   C196  0.118556  0.127671  0.374299  -0.192882
    O   O65   0.142940  0.108122  0.424305  -0.164184
    H   H81   0.093156  0.025549  0.342442  0.182334
    H   H82   0.072680  0.104978  0.289873  0.138088
    H   H83   0.118604  0.163066  0.365326  0.189278
    C   C197  0.933431  0.133060  0.419631  0.619790
    C   C198  0.940913  0.103880  0.364180  -0.446447
    C   C199  0.900193  0.094318  0.337210  -0.121128
    C   C200  0.870828  0.118932  0.377111  -0.176627
    O   O66   0.890913  0.143116  0.426805  -0.170583
    H   H84   0.972436  0.092056  0.344278  0.179632
    H   H85   0.892539  0.072615  0.292648  0.140294
    H   H86   0.835422  0.119581  0.368362  0.182920
    C   C201  0.866180  0.932857  0.421777  0.621454
    C   C202  0.895289  0.940051  0.366126  -0.446766
    C   C203  0.904145  0.899266  0.338786  -0.120739
    C   C204  0.879196  0.870174  0.378662  -0.172660
    O   O67   0.855491  0.890481  0.428706  -0.175844
    H   H87   0.907457  0.971442  0.346231  0.179880
    H   H88   0.925536  0.891414  0.293920  0.139589
    H   H89   0.877871  0.834828  0.369570  0.184044
    C   C205  0.066053  0.865686  0.419561  0.623079
    C   C206  0.058242  0.894606  0.363874  -0.450188
    C   C207  0.098812  0.904098  0.336248  -0.113942
    C   C208  0.128417  0.879726  0.376082  -0.191997
    O   O68   0.108624  0.855760  0.426351  -0.167412
    H   H90   0.026599  0.906329  0.344316  0.182232
    H   H91   0.106210  0.925618  0.291341  0.138002
    H   H92   0.163781  0.879109  0.366923  0.192286
    C   C209  0.866943  0.066544  0.580402  0.620829
    C   C210  0.896120  0.059051  0.635854  -0.447959
    C   C211  0.905699  0.099768  0.662821  -0.120921
    C   C212  0.881098  0.129142  0.622917  -0.176742
    O   O69   0.856907  0.109066  0.573223  -0.170768
    H   H93   0.907933  0.027524  0.655754  0.180047
    H   H94   0.927406  0.107413  0.707381  0.140401
    H   H95   0.880468  0.164550  0.631659  0.183048
    C   C213  0.067149  0.133814  0.578194  0.622246
    C   C214  0.059960  0.104703  0.633844  -0.447667
    C   C215  0.100747  0.095849  0.661178  -0.120766
    C   C216  0.129835  0.120800  0.621299  -0.172329
    O   O70   0.109524  0.144505  0.571259  -0.175821
    H   H96   0.028571  0.092534  0.653745  0.180122
    H   H97   0.108602  0.074457  0.706042  0.139660
    H   H98   0.165182  0.122127  0.630387  0.183878
    C   C217  0.134319  0.933938  0.580385  0.622403
    C   C218  0.105398  0.941740  0.636073  -0.450211
    C   C219  0.095918  0.901167  0.663696  -0.113813
    C   C220  0.120297  0.871569  0.623859  -0.192241
    O   O71   0.144257  0.891371  0.573590  -0.167409
    H   H99   0.093669  0.973379  0.655637  0.182227
    H   H100  0.074401  0.893761  0.708604  0.138022
    H   H101  0.120924  0.836205  0.633015  0.192579
    C   C221  0.934580  0.866428  0.582567  0.622639
    C   C222  0.942694  0.895414  0.638047  -0.453371
    C   C223  0.902216  0.905516  0.665459  -0.111412
    C   C224  0.872342  0.881427  0.625697  -0.193428
    O   O72   0.891889  0.857047  0.575685  -0.163905
    H   H102  0.974466  0.906829  0.657542  0.182545
    H   H103  0.895038  0.927299  0.710126  0.138039
    H   H104  0.836948  0.881377  0.634676  0.189514
    C   C225  0.633950  0.566940  0.921709  0.621972
    C   C226  0.604774  0.559844  0.866118  -0.447297
    C   C227  0.595985  0.600664  0.838860  -0.119620
    C   C228  0.621033  0.629678  0.878722  -0.174113
    O   O73   0.644738  0.609289  0.928679  -0.175597
    H   H105  0.592511  0.528492  0.846213  0.179801
    H   H106  0.574566  0.608590  0.794063  0.139306
    H   H107  0.622421  0.665028  0.869690  0.184612
    C   C229  0.434117  0.634466  0.919694  0.622509
    C   C230  0.441834  0.605497  0.864040  -0.449855
    C   C231  0.401237  0.596149  0.836391  -0.115452
    C   C232  0.371714  0.620650  0.876173  -0.188220
    O   O74   0.391582  0.644559  0.926436  -0.168618
    H   H108  0.473437  0.593659  0.844496  0.182327
    H   H109  0.393772  0.574648  0.791489  0.138482
    H   H110  0.336357  0.621413  0.866970  0.190689
    C   C233  0.366273  0.434773  0.917627  0.621392
    C   C234  0.395264  0.442824  0.862129  -0.452322
    C   C235  0.405282  0.402323  0.834724  -0.111698
    C   C236  0.381143  0.372501  0.874507  -0.193995
    O   O75   0.356810  0.392101  0.924526  -0.163260
    H   H111  0.406739  0.474571  0.842620  0.182265
    H   H112  0.427044  0.395098  0.790049  0.137953
    H   H113  0.381026  0.337104  0.865544  0.189707
    C   C237  0.566317  0.366805  0.919579  0.618777
    C   C238  0.558865  0.396017  0.864161  -0.446371
    C   C239  0.599586  0.405474  0.837100  -0.121544
    C   C240  0.628920  0.380770  0.876915  -0.175649
    O   O76   0.608814  0.356632  0.926644  -0.170334
    H   H114  0.527357  0.407927  0.844330  0.179670
    H   H115  0.607258  0.427161  0.792526  0.140321
    H   H116  0.664315  0.380019  0.868073  0.182444
    C   C241  0.365846  0.566253  0.080624  0.620356
    C   C242  0.394766  0.558383  0.136289  -0.447473
    C   C243  0.404332  0.598931  0.163930  -0.115774
    C   C244  0.380000  0.628584  0.124127  -0.189966
    O   O77   0.355989  0.608841  0.073862  -0.167346
    H   H117  0.406436  0.526716  0.155829  0.181397
    H   H118  0.425872  0.606284  0.208831  0.138442
    H   H119  0.379439  0.663946  0.133311  0.191717
    C   C245  0.565665  0.633432  0.082546  0.620461
    C   C246  0.557516  0.604480  0.138059  -0.449481
    C   C247  0.597988  0.594266  0.165383  -0.112919
    C   C248  0.627898  0.618258  0.125537  -0.194286
    O   O78   0.608377  0.642686  0.075557  -0.163234
    H   H120  0.525727  0.593156  0.157623  0.180845
    H   H121  0.605142  0.572467  0.210039  0.138079
    H   H122  0.663301  0.618199  0.134423  0.190015
    C   C249  0.632930  0.433246  0.080315  0.621440
    C   C250  0.603819  0.440830  0.135826  -0.447743
    C   C251  0.594176  0.400148  0.162869  -0.122398
    C   C252  0.618680  0.370700  0.122948  -0.174767
    O   O79   0.642870  0.390699  0.073172  -0.171752
    H   H123  0.592099  0.472393  0.155721  0.180211
    H   H124  0.572498  0.392572  0.207497  0.140865
    H   H125  0.619251  0.335298  0.131747  0.182604
    C   C253  0.432686  0.366334  0.078325  0.622936
    C   C254  0.439964  0.395399  0.134006  -0.447009
    C   C255  0.399201  0.404394  0.161312  -0.120052
    C   C256  0.370034  0.379566  0.121382  -0.175365
    O   O80   0.390274  0.355803  0.071339  -0.175758
    H   H126  0.471393  0.407458  0.153921  0.179993
    H   H127  0.391409  0.425807  0.206178  0.139334
    H   H128  0.334677  0.378381  0.130422  0.185773
