# Generated by REPEAT Assigner based on pymatgen
data_DB0-m2_o11_o22_f0_nbo.sym.44_sqe
_audit_creation_date              2022-05-24
_audit_creation_method            REPEAT_Assigner
_cell_length_a                    18.868905
_cell_length_b                    18.621171
_cell_length_c                    18.846362
_cell_angle_alpha                 108.792832
_cell_angle_beta                  110.280501
_cell_angle_gamma                 109.107842
_cell_volume                      5111.377407
_symmetry_space_group_name_H-M    P1
_symmetry_Int_Tables_number       1
loop_
    _symmetry_equiv_pos_site_id
    _symmetry_equiv_pos_as_xyz
    1  x,y,z
loop_
    _atom_site_type_symbol
    _atom_site_label
    _atom_site_fract_x
    _atom_site_fract_y
    _atom_site_fract_z
    _atom_type_partial_charge
    O   O1   0.424351  0.356918  0.470096  -0.615022
    O   O2   0.388405  0.457757  0.535228  -0.632815
    C   C1   0.378813  0.378565  0.503808  0.791349
    O   O3   0.597493  0.464537  0.534962  -0.597199
    O   O4   0.565223  0.532093  0.637136  -0.546167
    C   C2   0.610843  0.498262  0.614920  0.493866
    Cu  Cu1  0.488927  0.434146  0.438493  0.963382
    Cu  Cu2  0.489733  0.555317  0.557306  0.950699
    O   O5   0.553209  0.530245  0.425171  -0.609332
    O   O6   0.590602  0.633977  0.560331  -0.592208
    O   O7   0.380331  0.422585  0.360684  -0.600565
    O   O8   0.414061  0.559502  0.458914  -0.567882
    C   C3   0.596151  0.611598  0.489128  0.783529
    C   C4   0.366917  0.489963  0.380930  0.756036
    C   C5   0.663423  0.404706  0.656434  -0.042813
    H   H1   0.655678  0.373561  0.591224  0.021322
    H   H2   0.602874  0.366428  0.654235  0.006399
    C   C6   0.738844  0.404794  0.721104  -0.100642
    H   H3   0.713122  0.357198  0.741283  0.022168
    H   H4   0.774284  0.384788  0.689804  0.038144
    H   H5   0.768364  0.521975  0.633900  0.022718
    H   H6   0.877141  0.533445  0.741541  0.023438
    C   C7   0.767802  0.551892  0.694839  -0.112941
    C   C8   0.683926  0.536519  0.769686  -0.399031
    C   C9   0.680757  0.497777  0.683415  0.371409
    H   H7   0.705414  0.606943  0.794284  0.102951
    H   H8   0.618753  0.502812  0.761474  0.071528
    C   C10  0.799771  0.495901  0.798944  0.167409
    C   C11  0.839203  0.555671  0.767509  -0.051467
    C   C12  0.745952  0.523354  0.834169  0.294883
    H   H9   0.706258  0.469179  0.840196  -0.023262
    H   H10  0.779532  0.618963  0.710872  0.028604
    H   H11  0.883313  0.624059  0.820629  0.031511
    C   C13  0.248174  0.170132  0.497915  -0.016192
    C   C14  0.165408  0.151587  0.461739  -0.288265
    H   H12  0.267648  0.132857  0.526357  0.119844
    H   H13  0.144196  0.183175  0.426296  0.169087
    C   C15  0.313422  0.237012  0.494941  0.002624
    C   C16  0.313245  0.311383  0.505606  -0.319741
    H   H14  0.365728  0.227694  0.490290  0.115114
    H   H15  0.266284  0.324770  0.519216  0.172055
    C   C17  0.164461  0.417571  0.174362  -0.028844
    C   C18  0.180323  0.483329  0.156914  -0.277339
    H   H16  0.100002  0.360932  0.136398  0.120410
    H   H17  0.246220  0.535927  0.188440  0.175918
    C   C19  0.234531  0.416754  0.239971  0.006896
    C   C20  0.298054  0.489882  0.313807  -0.330397
    H   H18  0.230256  0.354547  0.230330  0.114100
    H   H19  0.297553  0.550808  0.327498  0.172910
    C   C21  0.735716  0.825103  0.504713  -0.031551
    C   C22  0.808840  0.823513  0.513644  -0.229697
    H   H20  0.824632  0.780369  0.534826  0.155456
    C   C23  0.673887  0.762463  0.515279  0.001911
    C   C24  0.654883  0.678637  0.480460  -0.281128
    H   H21  0.680965  0.657054  0.440102  0.159503
    O   O9   0.935818  0.347621  0.889098  -0.602921
    O   O10  0.035858  0.454157  0.883745  -0.544197
    C   C25  0.982918  0.372060  0.855303  0.733052
    O   O11  0.848078  0.444423  0.899357  -0.637414
    O   O12  0.950801  0.543810  0.889906  -0.563216
    C   C26  0.869943  0.494970  0.866739  0.595362
    Cu  Cu3  0.930595  0.428442  0.981033  0.979430
    Cu  Cu4  0.049963  0.551516  0.978478  0.985106
    O   O13  0.946716  0.525712  0.077520  -0.588065
    O   O14  0.042656  0.632292  0.068512  -0.618376
    O   O15  0.029681  0.434052  0.067577  -0.585674
    O   O16  0.132741  0.537517  0.062064  -0.625297
    C   C27  0.996674  0.607724  0.103285  0.752861
    C   C28  0.110592  0.484278  0.091790  0.716156
    O   O17  0.057929  0.082199  0.625462  -0.599784
    O   O18  0.944416  0.081195  0.524696  -0.581306
    C   C29  0.006108  0.113963  0.604411  0.759385
    O   O19  0.127578  0.062123  0.523919  -0.583634
    O   O20  0.018695  0.061404  0.418039  -0.616918
    C   C30  0.100837  0.087651  0.467527  0.728944
    Cu  Cu5  0.048781  0.980132  0.541125  0.978705
    Cu  Cu6  0.923872  0.984956  0.423961  0.971493
    O   O21  0.027698  0.883325  0.440336  -0.601076
    O   O22  0.915468  0.883633  0.339553  -0.589060
    O   O23  0.954232  0.904809  0.548161  -0.602992
    O   O24  0.845336  0.902595  0.441105  -0.578803
    C   C31  0.967199  0.851956  0.360286  0.722497
    C   C32  0.872309  0.880496  0.500619  0.720201
    C   C33  0.979708  0.234846  0.652505  0.035962
    C   C34  0.016383  0.188730  0.673129  -0.339876
    H   H22  0.947592  0.220434  0.585636  0.098797
    H   H23  0.055368  0.206855  0.740307  0.175072
    C   C35  0.983936  0.308045  0.717826  0.047406
    C   C36  0.978365  0.303126  0.785400  -0.316406
    H   H24  0.966015  0.243158  0.787836  0.189451
    C   C37  0.990972  0.729721  0.303846  -0.014809
    C   C38  0.959059  0.780977  0.289526  -0.284960
    H   H25  0.017919  0.735470  0.367679  0.118740
    H   H26  0.924235  0.769237  0.223980  0.160724
    C   C39  0.983984  0.660387  0.231996  -0.014944
    C   C40  0.001045  0.675580  0.173632  -0.267488
    H   H27  0.971580  0.598839  0.230902  0.111685
    H   H28  0.023238  0.740257  0.180477  0.150879
    C   C41  0.800400  0.602399  0.922630  0.564006
    O   O25  0.847179  0.673315  0.934305  -0.531842
    O   O26  0.795264  0.595104  0.992068  -0.603516
    H   H29  0.834175  0.653987  0.046738  0.411051
    C   C42  0.717999  0.892868  0.492059  0.705345
    O   O27  0.643478  0.874679  0.447123  -0.525903
    O   O28  0.784470  0.979064  0.536591  -0.529203
    H   H30  0.760398  0.016931  0.522259  0.386544
    C   C43  0.629396  0.793674  0.557896  0.697812
    O   O29  0.669621  0.866598  0.620648  -0.530901
    O   O30  0.540255  0.744035  0.522641  -0.531522
    H   H31  0.520309  0.776514  0.558398  0.393405
    C   C44  0.981111  0.377550  0.697501  0.586528
    O   O31  0.944743  0.415871  0.719892  -0.450703
    O   O32  0.012622  0.393334  0.644278  -0.558956
    H   H32  0.003094  0.440120  0.633493  0.410488
