# Generated by REPEAT Assigner based on pymatgen
data_DB0-m29_o96_o1490_f0_pts.sym.6
_audit_creation_date              2022-05-24
_audit_creation_method            REPEAT_Assigner
_cell_length_a                    17.209089
_cell_length_b                    12.063602
_cell_length_c                    19.297754
_cell_angle_alpha                 88.779967
_cell_angle_beta                  90.604436
_cell_angle_gamma                 108.435063
_cell_volume                      3799.798944
_symmetry_space_group_name_H-M    P1
_symmetry_Int_Tables_number       1
loop_
    _symmetry_equiv_pos_site_id
    _symmetry_equiv_pos_as_xyz
    1  x,y,z
loop_
    _atom_site_type_symbol
    _atom_site_label
    _atom_site_fract_x
    _atom_site_fract_y
    _atom_site_fract_z
    _atom_type_partial_charge
    C   C1   0.216692  0.995074  0.113717  0.009790
    C   C2   0.158916  0.953757  0.163463  -0.020584
    C   C3   0.084569  0.950633  0.134844  0.442299
    N   N1   0.094619  0.985944  0.067830  -0.566351
    C   C4   0.175606  0.012704  0.054519  0.423564
    C   C5   0.014380  0.925194  0.169764  -0.452371
    C   C6   0.938006  0.938612  0.141593  0.228617
    C   C7   0.880483  0.965314  0.181000  0.092699
    C   C8   0.815244  0.961754  0.139680  -0.097568
    C   C9   0.835751  0.934799  0.073592  0.218530
    N   N2   0.910477  0.919636  0.075917  -0.210439
    C   C10  0.788254  0.931430  0.009171  -0.354539
    C   C11  0.823527  0.975000  0.948918  0.407013
    C   C12  0.782760  0.997101  0.890761  0.022042
    C   C13  0.841069  0.051719  0.843691  -0.004131
    C   C14  0.915795  0.057087  0.872366  0.408320
    N   N3   0.905275  0.011336  0.937402  -0.564185
    C   C15  0.986857  0.092758  0.838440  -0.405951
    C   C16  0.062308  0.073141  0.863795  0.213283
    C   C17  0.118500  0.048361  0.821747  0.064532
    C   C18  0.179892  0.036046  0.862822  -0.015143
    C   C19  0.159896  0.053018  0.930261  0.251861
    N   N4   0.088024  0.076950  0.930232  -0.229793
    C   C20  0.209020  0.045568  0.992196  -0.445588
    H   H1   0.014772  0.903741  0.224383  0.187255
    H   H2   0.722481  0.905513  0.012108  0.121566
    H   H3   0.986897  0.122562  0.785246  0.162374
    H   H4   0.273575  0.057924  0.985324  0.202464
    H   H5   0.939630  0.892541  0.035635  0.289114
    H   H6   0.059598  0.100715  0.972202  0.300464
    C   C21  0.117511  0.033151  0.751534  -0.155611
    C   C22  0.182363  0.006646  0.722776  -0.111197
    C   C23  0.246783  0.995733  0.763888  0.048141
    C   C24  0.245635  0.009701  0.835340  -0.136796
    C   C25  0.298952  0.015368  0.127802  -0.233664
    C   C26  0.320444  0.988990  0.194373  0.076683
    C   C27  0.259940  0.942008  0.243885  -0.042786
    C   C28  0.178629  0.925432  0.229070  -0.200206
    C   C29  0.885546  0.998710  0.248587  -0.138709
    C   C30  0.820286  0.025022  0.276689  -0.103403
    C   C31  0.748356  0.010260  0.237776  0.114508
    C   C32  0.746675  0.982688  0.167344  -0.126807
    C   C33  0.700473  0.974168  0.876404  -0.227994
    C   C34  0.679260  0.011489  0.812555  0.081228
    C   C35  0.739792  0.070429  0.765484  -0.065897
    C   C36  0.821456  0.089611  0.780320  -0.221512
    H   H7   0.067963  0.041186  0.719097  0.135331
    H   H8   0.294762  0.001085  0.868118  0.149861
    H   H9   0.345307  0.051847  0.089008  0.147026
    H   H10  0.275697  0.921949  0.295942  0.132633
    H   H11  0.133059  0.891674  0.268781  0.128455
    H   H12  0.940909  0.010138  0.278396  0.102533
    H   H13  0.653721  0.928799  0.913132  0.132807
    H   H14  0.723759  0.098630  0.715361  0.151186
    H   H15  0.867391  0.133751  0.742673  0.143125
    H   H16  0.182276  0.995822  0.667356  0.139476
    O   O1   0.614452  0.043229  0.246463  -0.539581
    C   C37  0.673228  0.009166  0.274956  0.425335
    O   O2   0.455764  0.776236  0.328148  -0.514690
    O   O3   0.664083  0.970482  0.339290  -0.437091
    O   O4   0.519002  0.924778  0.400310  -0.531617
    C   C38  0.486238  0.812246  0.389264  0.537288
    Fe  Fe1  0.530755  0.030405  0.318415  1.417918
    O   O5   0.420489  0.963971  0.273517  -0.540312
    O   O6   0.464640  0.098116  0.185629  -0.502004
    C   C39  0.406104  0.014549  0.216090  0.586763
    O   O7   0.565775  0.193858  0.354324  -0.554907
    O   O8   0.430210  0.168916  0.345750  -0.484045
    C   C40  0.502717  0.228259  0.369558  0.586842
    C   C41  0.504547  0.219415  0.494264  -0.047584
    C   C42  0.494740  0.260330  0.558352  -0.085449
    C   C43  0.488432  0.371087  0.564199  -0.088960
    C   C44  0.505230  0.285851  0.435816  -0.172649
    C   C45  0.498449  0.396492  0.441034  0.580228
    C   C46  0.491686  0.442135  0.505386  -0.257124
    C   C47  0.486126  0.555796  0.508664  0.344315
    C   C48  0.486406  0.610928  0.571824  -0.327852
    C   C49  0.480256  0.721629  0.573239  0.063796
    N   N5   0.499710  0.459819  0.382959  -0.548332
    C   C50  0.493695  0.567889  0.384481  0.217572
    C   C51  0.484870  0.618134  0.446863  -0.158094
    C   C52  0.479112  0.731593  0.449251  0.042048
    C   C53  0.475215  0.779552  0.512694  -0.144282
    H   H17  0.497776  0.613443  0.335647  0.120532
    H   H18  0.507726  0.132122  0.488336  0.121025
    H   H19  0.472537  0.867521  0.516130  0.140013
    H   H20  0.477798  0.396759  0.615234  0.141333
    H   H21  0.495530  0.573973  0.621205  0.162145
    O   O9   0.576928  0.048442  0.740688  -0.638447
    O   O10  0.537408  0.891580  0.814924  -0.532767
    C   C54  0.593654  0.985631  0.791468  0.618693
    O   O11  0.432613  0.809588  0.666538  -0.630984
    O   O12  0.567293  0.869971  0.641705  -0.555618
    C   C55  0.495174  0.790533  0.636195  0.694553
    O   O13  0.480847  0.217932  0.681579  -0.582785
    O   O14  0.382676  0.974682  0.764033  -0.610099
    C   C56  0.316584  0.975171  0.729560  0.611746
    O   O15  0.482015  0.072796  0.608614  -0.571654
    C   C57  0.486595  0.181895  0.618722  0.674040
    O   O16  0.316299  0.967977  0.661818  -0.564841
    Fe  Fe2  0.467609  0.977362  0.695042  1.514812
    C   C58  0.672123  0.966880  0.126430  0.457898
    C   C59  0.611954  0.859305  0.125750  -0.245387
    C   C60  0.541346  0.844670  0.087561  -0.058121
    C   C61  0.530713  0.937512  0.050144  -0.131776
    C   C62  0.590620  0.045099  0.050975  0.017302
    C   C63  0.661250  0.059895  0.089166  -0.243432
    H   H22  0.620199  0.786489  0.155106  0.102087
    H   H23  0.494308  0.760402  0.086973  0.106828
    H   H24  0.475344  0.925996  0.020227  0.097908
    H   H25  0.582183  0.117885  0.021723  0.079884
    H   H26  0.708131  0.144299  0.089870  0.093609
    C   C64  0.831196  0.074229  0.346517  0.214719
    C   C65  0.818638  0.180053  0.358133  -0.161290
    C   C66  0.831145  0.227712  0.423221  -0.103914
    C   C67  0.856834  0.170457  0.476903  -0.087283
    C   C68  0.870448  0.065772  0.465408  -0.105812
    C   C69  0.858115  0.018015  0.400332  -0.156927
    H   H27  0.799706  0.226549  0.316126  0.114195
    H   H28  0.821120  0.310321  0.432072  0.110995
    H   H29  0.866658  0.207889  0.527907  0.101093
    H   H30  0.890870  0.021045  0.507460  0.106918
    H   H31  0.868592  0.935542  0.392041  0.113718
