# Generated by REPEAT Assigner based on pymatgen
data_DB0-m9_o1_o13_f0_sra.sym.44
_audit_creation_date              2022-05-24
_audit_creation_method            REPEAT_Assigner
_cell_length_a                    6.323708
_cell_length_b                    15.552661
_cell_length_c                    16.510991
_cell_angle_alpha                 100.573958
_cell_angle_beta                  89.323310
_cell_angle_gamma                 90.724744
_cell_volume                      1596.086794
_symmetry_space_group_name_H-M    P1
_symmetry_Int_Tables_number       1
loop_
    _symmetry_equiv_pos_site_id
    _symmetry_equiv_pos_as_xyz
    1  x,y,z
loop_
    _atom_site_type_symbol
    _atom_site_label
    _atom_site_fract_x
    _atom_site_fract_y
    _atom_site_fract_z
    _atom_type_partial_charge
    O  O1   0.556433  0.398580  0.449780  -0.391333
    O  O2   0.755609  0.405310  0.545960  -0.358719
    O  O3   0.972503  0.554757  0.614673  -0.646604
    C  C1   0.629562  0.428223  0.611358  0.443225
    O  O4   0.852168  0.440510  0.387499  -0.555232
    O  O5   0.062394  0.589654  0.457129  -0.418492
    C  C2   0.676705  0.395370  0.384364  0.506948
    O  O6   0.472645  0.483162  0.612088  -0.428008
    O  O7   0.664767  0.568210  0.504879  -0.555659
    V  V1   0.936633  0.490792  0.501247  1.308932
    O  O8   0.352619  0.527290  0.390871  -0.579543
    C  C3   0.188196  0.576732  0.392870  0.582252
    O  O9   0.262106  0.612276  0.554225  -0.318873
    C  C4   0.140236  0.607053  0.619725  0.541699
    V  V2   0.437190  0.512127  0.502051  1.415287
    O  O10  0.160698  0.435054  0.501046  -0.608148
    C  C5   0.299246  0.742051  0.703405  -0.030113
    C  C6   0.279773  0.813401  0.765904  0.030271
    H  H1   0.409776  0.859561  0.778412  0.102428
    C  C7   0.103480  0.823920  0.816198  -0.065492
    C  C8   0.939657  0.763479  0.801979  -0.028690
    C  C9   0.957242  0.692624  0.738264  -0.090670
    H  H2   0.828323  0.645837  0.726536  0.139892
    C  C10  0.135759  0.681460  0.688482  -0.061336
    C  C11  0.186366  0.637422  0.334843  -0.034333
    C  C12  0.068671  0.875041  0.175149  -0.012431
    C  C13  0.923073  0.834670  0.297230  -0.166377
    C  C14  0.928993  0.889772  0.240740  -0.102534
    C  C15  0.203467  0.804890  0.166138  -0.269968
    C  C16  0.195988  0.748988  0.222228  0.270247
    C  C17  0.054403  0.763132  0.287579  0.113291
    C  C18  0.049141  0.707503  0.344298  -0.132581
    C  C19  0.326892  0.623829  0.269319  -0.042555
    C  C20  0.331428  0.679180  0.213062  -0.275264
    H  H3   0.434032  0.569273  0.262019  0.096736
    H  H4   0.815431  0.848688  0.348958  0.132632
    H  H5   0.442248  0.668097  0.161952  0.146007
    H  H6   0.823412  0.944838  0.247902  0.109684
    H  H7   0.312863  0.792915  0.114596  0.137185
    C  C21  0.608753  0.369923  0.670866  0.037844
    C  C22  0.614527  0.122306  0.824255  -0.168410
    C  C23  0.779353  0.154491  0.701388  -0.169313
    C  C24  0.741746  0.097224  0.755222  0.157872
    C  C25  0.509862  0.201226  0.835341  -0.047750
    C  C26  0.541722  0.256867  0.779821  0.112921
    C  C27  0.680259  0.234645  0.714129  0.177456
    C  C28  0.717832  0.292528  0.660936  -0.211421
    C  C29  0.464780  0.390225  0.734428  -0.118869
    C  C30  0.432527  0.334392  0.789148  -0.174871
    H  H8   0.829225  0.277343  0.610580  0.123443
    H  H9   0.375739  0.450033  0.741078  0.108350
    H  H10  0.316836  0.351095  0.837774  0.143537
    C  C31  0.793177  0.310233  0.251295  -0.061678
    H  H11  0.925167  0.355087  0.251273  0.092917
    C  C32  0.769044  0.240508  0.187038  -0.186214
    H  H12  0.881586  0.230921  0.136476  0.131080
    C  C33  0.601205  0.183068  0.187275  0.038326
    C  C34  0.457277  0.195464  0.251648  -0.056954
    H  H13  0.325400  0.150563  0.251723  0.111354
    C  C35  0.481387  0.265173  0.315878  -0.204595
    H  H14  0.368943  0.274695  0.366470  0.137175
    C  C36  0.649244  0.322593  0.315685  0.074710
    O  O11  0.777899  0.020227  0.891672  -0.362821
    O  O12  0.398575  0.064882  0.116113  -0.598800
    O  O13  0.187344  0.915660  0.049074  -0.452196
    C  C37  0.573682  0.109983  0.118895  0.582982
    O  O14  0.494952  0.097201  0.956611  -0.114006
    O  O15  0.275925  0.947525  0.890083  -0.559270
    C  C38  0.610269  0.069469  0.889203  0.405035
    O  O16  0.692939  0.106269  0.053290  -0.540735
    O  O17  0.585274  0.935948  0.999513  -0.579711
    V  V3   0.313177  0.013151  0.002823  1.347232
    O  O18  0.988726  0.891766  0.951893  -0.379750
    C  C39  0.104902  0.897304  0.885423  0.542525
    O  O19  0.895881  0.979039  0.114040  -0.562128
    C  C40  0.063835  0.931952  0.114096  0.605473
    V  V4   0.812643  0.992267  0.002181  1.437289
    O  O20  0.089415  0.069088  0.002532  -0.547359
    C  C41  0.502414  0.729933  0.660312  0.523952
    O  O21  0.628416  0.790772  0.667681  -0.518512
    O  O22  0.566001  0.647428  0.621689  -0.595474
    H  H15  0.723632  0.650239  0.610863  0.562368
    C  C42  0.921201  0.129996  0.630187  0.611034
    O  O23  0.084458  0.091327  0.637165  -0.481461
    O  O24  0.872539  0.152224  0.554762  -0.515610
    H  H16  0.987275  0.131106  0.512843  0.378497
    C  C43  0.820820  0.007261  0.735548  0.338949
    O  O25  0.756332  0.952554  0.774284  -0.282235
    O  O26  0.951777  0.981429  0.667501  -0.352781
    H  H17  0.983822  0.916940  0.661206  0.322558
    C  C44  0.367332  0.226557  0.906216  0.565520
    O  O27  0.253141  0.171932  0.929297  -0.502986
    O  O28  0.359161  0.313176  0.946715  -0.571453
    H  H18  0.252450  0.319222  0.993521  0.407236
    C  C45  0.744365  0.773905  0.851142  0.468002
    O  O29  0.712048  0.840906  0.900595  -0.311655
    O  O30  0.590879  0.708068  0.838877  -0.564176
    H  H19  0.465022  0.725642  0.876427  0.388761
    C  C46  0.901808  0.724570  0.414591  0.580032
    O  O31  0.723527  0.749777  0.405341  -0.438967
    O  O32  0.966821  0.715517  0.492720  -0.468105
    H  H20  0.847227  0.731026  0.533873  0.282069
