# Generated by REPEAT Assigner based on pymatgen
data_DB0-m2_o11_o23_f0_pcu.sym.92_sqe
_audit_creation_date              2022-05-24
_audit_creation_method            REPEAT_Assigner
_cell_length_a                    15.853477
_cell_length_b                    11.042358
_cell_length_c                    9.547836
_cell_angle_alpha                 90.020535
_cell_angle_beta                  89.997342
_cell_angle_gamma                 89.998264
_cell_volume                      1671.441920
_symmetry_space_group_name_H-M    P1
_symmetry_Int_Tables_number       1
loop_
    _symmetry_equiv_pos_site_id
    _symmetry_equiv_pos_as_xyz
    1  x,y,z
loop_
    _atom_site_type_symbol
    _atom_site_label
    _atom_site_fract_x
    _atom_site_fract_y
    _atom_site_fract_z
    _atom_type_partial_charge
    O   O1   0.507687  0.329316  0.626681  -0.579900
    O   O2   0.504611  0.327407  0.384763  -0.589464
    C   C1   0.505762  0.271789  0.506462  0.672729
    O   O3   0.382340  0.500742  0.618968  -0.602727
    O   O4   0.385440  0.508506  0.377138  -0.599024
    C   C2   0.344738  0.504578  0.496284  0.785383
    Cu  Cu1  0.504857  0.505255  0.643590  0.960470
    Cu  Cu2  0.507873  0.503568  0.363446  0.915682
    O   O5   0.507476  0.681032  0.621115  -0.633264
    O   O6   0.505317  0.679702  0.381247  -0.603600
    O   O7   0.627355  0.500963  0.628966  -0.591587
    O   O8   0.630496  0.507428  0.388672  -0.629345
    C   C3   0.505948  0.736962  0.501043  0.755340
    C   C4   0.668211  0.503804  0.510317  0.770416
    C   C5   0.058245  0.471234  0.645974  -0.245534
    C   C6   0.052289  0.415184  0.393627  -0.081457
    C   C7   0.956756  0.423045  0.388950  -0.146191
    H   H1   0.954914  0.357614  0.636576  0.013500
    H   H2   0.086578  0.382486  0.672320  0.045919
    H   H3   0.077940  0.435923  0.288177  0.009803
    H   H4   0.071375  0.322182  0.423809  0.003948
    H   H5   0.929118  0.331220  0.399629  0.023413
    H   H6   0.936792  0.460860  0.286642  0.008435
    C   C8   0.758746  0.503829  0.512867  -0.104473
    C   C9   0.086381  0.505976  0.499357  0.723221
    C   C10  0.963282  0.456859  0.643681  -0.056475
    C   C11  0.927071  0.505479  0.506193  0.709270
    C   C12  0.958301  0.631928  0.471529  -0.042146
    C   C13  0.053781  0.630896  0.462014  -0.214282
    C   C14  0.834779  0.504631  0.511060  -0.444416
    C   C15  0.178474  0.505969  0.494627  -0.376751
    C   C16  0.254424  0.505395  0.493696  -0.178211
    H   H7   0.080884  0.699623  0.533616  0.072335
    H   H8   0.073062  0.652540  0.352998  0.018603
    H   H9   0.936059  0.698863  0.548797  -0.015425
    H   H10  0.082339  0.535770  0.723872  0.039677
    H   H11  0.932413  0.659582  0.368405  0.010899
    C   C17  0.505929  0.937473  0.390642  -0.003806
    C   C18  0.505463  0.869097  0.505583  -0.311552
    H   H12  0.507282  0.893750  0.288910  0.103028
    H   H13  0.502749  0.908588  0.608594  0.170067
    C   C19  0.504065  0.071621  0.394496  -0.030972
    C   C20  0.507838  0.138720  0.511590  -0.271040
    H   H14  0.499593  0.117241  0.294568  0.110122
    H   H15  0.512774  0.098960  0.614658  0.159438
    C   C21  0.467265  0.424107  0.928442  0.078789
    N   N1   0.501113  0.507543  0.853053  -0.306291
    H   H16  0.440390  0.345657  0.877240  0.108418
    H   H17  0.517599  0.587116  0.900972  0.233096
    C   C22  0.462067  0.432430  0.083337  0.075214
    N   N2   0.511372  0.502024  0.154203  -0.294743
    H   H18  0.415917  0.376299  0.137290  0.118596
    H   H19  0.560002  0.543870  0.103291  0.256741
    C   C23  0.914841  0.495289  0.773267  0.113473
    C   C24  0.920301  0.607984  0.840658  -0.002636
    Cl  Cl1  0.995823  0.719639  0.803140  -0.088432
    C   C25  0.865499  0.635197  0.948770  -0.072692
    C   C26  0.806254  0.552915  0.993004  -0.106617
    C   C27  0.803373  0.440164  0.933059  -0.072937
    C   C28  0.857122  0.411684  0.824692  -0.167963
    H   H20  0.869610  0.722399  0.000022  0.087051
    H   H21  0.763290  0.575923  0.076521  0.107101
    H   H22  0.758766  0.373606  0.970833  0.092250
    H   H23  0.851991  0.322400  0.779132  0.111527
