# Generated by REPEAT Assigner based on pymatgen
data_DB0-m2_o3_o14_f0_pcu.sym.35_sqe
_audit_creation_date              2022-05-24
_audit_creation_method            REPEAT_Assigner
_cell_length_a                    19.325674
_cell_length_b                    17.896946
_cell_length_c                    10.860671
_cell_angle_alpha                 90.000000
_cell_angle_beta                  90.006498
_cell_angle_gamma                 90.000000
_cell_volume                      3756.386174
_symmetry_space_group_name_H-M    P1
_symmetry_Int_Tables_number       1
loop_
    _symmetry_equiv_pos_site_id
    _symmetry_equiv_pos_as_xyz
    1  x,y,z
loop_
    _atom_site_type_symbol
    _atom_site_label
    _atom_site_fract_x
    _atom_site_fract_y
    _atom_site_fract_z
    _atom_type_partial_charge
    O   O1   0.395660  0.563629  0.512829  -0.586188
    O   O2   0.596052  0.562961  0.482814  -0.561017
    O   O3   0.395762  0.436611  0.480960  -0.588048
    O   O4   0.595817  0.436145  0.517357  -0.570190
    C   C1   0.363277  0.500102  0.497001  0.634315
    C   C2   0.628481  0.499536  0.501045  0.604332
    O   O5   0.487441  0.562345  0.320201  -0.566792
    O   O6   0.504451  0.563704  0.676139  -0.553849
    O   O7   0.507044  0.435699  0.320774  -0.620498
    O   O8   0.486019  0.437181  0.676987  -0.626394
    C   C3   0.501876  0.499808  0.262689  0.744852
    C   C4   0.491532  0.501795  0.735208  0.744981
    Cu  Cu1  0.495549  0.574089  0.497522  0.830938
    Cu  Cu2  0.495717  0.425380  0.498729  0.905450
    H   H1   0.487195  0.383696  0.109848  0.108041
    H   H2   0.482004  0.384709  0.887922  0.102003
    C   C5   0.541772  0.631631  0.117049  -0.213725
    C   C6   0.482788  0.641302  0.889948  -0.239328
    H   H3   0.567438  0.628842  0.204740  0.167271
    H   H4   0.454818  0.647866  0.804616  0.151251
    C   C7   0.537322  0.700482  0.060992  -0.066298
    C   C8   0.503674  0.705785  0.948645  -0.035350
    C   C9   0.495455  0.571005  0.940195  0.226427
    C   C10  0.514096  0.567899  0.062859  0.180430
    C   C11  0.505854  0.501258  0.127403  -0.210633
    C   C12  0.489256  0.504154  0.872397  -0.247114
    C   C13  0.493057  0.436329  0.062837  -0.066269
    C   C14  0.488351  0.437223  0.936278  -0.034635
    C   C15  0.740144  0.432568  0.510168  -0.090726
    C   C16  0.251178  0.433853  0.491360  -0.097136
    H   H5   0.712821  0.380145  0.515838  0.101521
    H   H6   0.277706  0.380620  0.487720  0.102569
    C   C17  0.811489  0.432045  0.509960  -0.155256
    C   C18  0.179904  0.434184  0.491987  -0.149873
    H   H7   0.838524  0.379383  0.517442  0.106572
    H   H8   0.153338  0.381079  0.490983  0.108187
    C   C19  0.847857  0.498426  0.503519  0.096928
    C   C20  0.143687  0.500756  0.497160  0.103350
    C   C21  0.812175  0.565140  0.496747  -0.145172
    C   C22  0.180262  0.567241  0.501764  -0.161755
    H   H9   0.839730  0.617558  0.489324  0.110886
    H   H10  0.153689  0.620324  0.502479  0.111470
    C   C23  0.740905  0.565622  0.495640  -0.100321
    C   C24  0.251642  0.566980  0.502102  -0.086505
    H   H11  0.714454  0.618657  0.489811  0.118871
    H   H12  0.278704  0.619820  0.505296  0.107032
    C   C25  0.704434  0.499376  0.502313  -0.027576
    C   C26  0.287508  0.500186  0.496906  -0.035935
    C   C27  0.959950  0.550824  0.570239  -0.137419
    C   C28  0.031239  0.551624  0.568658  -0.135108
    H   H13  0.933063  0.590594  0.627717  0.105506
    H   H14  0.058180  0.591804  0.625372  0.110115
    C   C29  0.067455  0.500443  0.498267  0.056518
    C   C30  0.923724  0.498477  0.502583  0.066549
    C   C31  0.031019  0.448306  0.429878  -0.144273
    C   C32  0.959706  0.447125  0.432605  -0.132497
    H   H15  0.057564  0.409026  0.370820  0.108648
    H   H16  0.932385  0.406899  0.376594  0.108191
    C   C33  0.448067  0.723213  0.431576  0.073675
    C   C34  0.546045  0.723120  0.557845  0.159983
    H   H17  0.409906  0.692955  0.378560  0.102480
    H   H18  0.586183  0.692630  0.605648  0.072221
    C   C35  0.446393  0.800217  0.432816  -0.224161
    C   C36  0.546331  0.800107  0.560047  -0.231039
    H   H19  0.405627  0.828751  0.383435  0.103933
    H   H20  0.587587  0.828659  0.607828  0.121372
    C   C37  0.495725  0.839603  0.498142  0.179452
    N   N1   0.496420  0.685844  0.497091  -0.130738
    C   C38  0.513025  0.960870  0.604579  -0.054306
    C   C39  0.478036  0.961075  0.394367  -0.109687
    H   H21  0.525475  0.931874  0.688904  0.098658
    H   H22  0.465391  0.932278  0.309999  0.119853
    C   C40  0.513308  0.037917  0.604670  -0.201093
    C   C41  0.479788  0.037956  0.393545  -0.166892
    H   H23  0.524641  0.066679  0.689708  0.125847
    H   H24  0.468641  0.066246  0.307954  0.119511
    C   C42  0.497077  0.077278  0.498939  0.091459
    C   C43  0.495493  0.921789  0.499241  -0.001412
    C   C44  0.449929  0.198587  0.427536  -0.242472
    C   C45  0.542394  0.199840  0.571447  -0.247077
    H   H25  0.410940  0.169862  0.374451  0.120795
    H   H26  0.580169  0.172235  0.629158  0.129848
    C   C46  0.449700  0.275611  0.429613  0.063941
    C   C47  0.539822  0.276708  0.572764  0.076213
    H   H27  0.412230  0.305030  0.373592  0.120058
    H   H28  0.574332  0.307514  0.631477  0.113002
    N   N2   0.495463  0.313541  0.499934  -0.128558
    C   C48  0.496687  0.159615  0.499130  0.178174
    C   C49  0.562857  0.765970  0.129472  0.687134
    O   O9   0.612017  0.759419  0.199200  -0.546094
    O   O10  0.528035  0.833946  0.123380  -0.555385
    H   H29  0.552145  0.872290  0.176781  0.379124
    C   C50  0.493929  0.776704  0.882947  0.650046
    O   O11  0.539677  0.823563  0.881115  -0.494710
    O   O12  0.434244  0.788001  0.813817  -0.566258
    H   H30  0.435466  0.838987  0.773753  0.375779
