# Generated by REPEAT Assigner based on pymatgen
data_DB0-m29_o99_o500_f0_pts.sym.78
_audit_creation_date              2022-05-24
_audit_creation_method            REPEAT_Assigner
_cell_length_a                    16.039380
_cell_length_b                    12.692355
_cell_length_c                    13.619826
_cell_angle_alpha                 68.445521
_cell_angle_beta                  97.674477
_cell_angle_gamma                 109.353727
_cell_volume                      2432.846445
_symmetry_space_group_name_H-M    P1
_symmetry_Int_Tables_number       1
loop_
    _symmetry_equiv_pos_site_id
    _symmetry_equiv_pos_as_xyz
    1  x,y,z
loop_
    _atom_site_type_symbol
    _atom_site_label
    _atom_site_fract_x
    _atom_site_fract_y
    _atom_site_fract_z
    _atom_type_partial_charge
    C   C1   0.219300  0.021616  0.846802  -0.202804
    H   H1   0.237503  0.040448  0.767110  0.166374
    C   C2   0.138805  0.026927  0.865087  -0.026396
    C   C3   0.116580  0.004351  0.966994  0.290318
    C   C4   0.176804  0.982376  0.049323  -0.156612
    C   C5   0.261339  0.986495  0.029326  0.002441
    C   C6   0.280776  0.003594  0.926952  -0.012036
    C   C7   0.029159  0.997613  0.988719  -0.217128
    C   C8   0.956525  0.993133  0.007931  -0.052882
    C   C9   0.801285  0.981686  0.964061  -0.251431
    H   H2   0.812158  0.982232  0.887269  0.178882
    C   C10  0.718830  0.975060  0.991262  0.027881
    C   C11  0.707247  0.973934  0.091564  -0.020068
    C   C12  0.779623  0.985844  0.159942  0.080241
    C   C13  0.860560  0.991991  0.131174  -0.219298
    H   H3   0.916172  0.998990  0.185374  0.110846
    C   C14  0.871341  0.988415  0.034436  0.263975
    O   O1   0.536585  0.162572  0.686966  -0.600627
    C   C15  0.472983  0.171014  0.615607  0.563204
    O   O2   0.433000  0.114568  0.888981  -0.514718
    O   O3   0.398009  0.084286  0.634186  -0.548290
    O   O4   0.378342  0.938755  0.860080  -0.557547
    C   C16  0.368282  0.016188  0.896492  0.703161
    Fe  Fe1  0.495577  0.001419  0.793902  1.442993
    O   O5   0.576278  0.999262  0.920153  -0.521309
    O   O6   0.657994  0.957552  0.824347  -0.520755
    C   C17  0.647207  0.973661  0.911019  0.567801
    O   O7   0.494405  0.900895  0.709065  -0.513529
    O   O8   0.450199  0.735594  0.855882  -0.491557
    C   C18  0.470731  0.784845  0.755575  0.590762
    O   O9   0.478911  0.043273  0.317459  -0.533619
    O   O10  0.531648  0.208262  0.173144  -0.486875
    C   C19  0.507337  0.159605  0.272180  0.556942
    O   O11  0.396947  0.941862  0.108019  -0.544357
    O   O12  0.326800  0.009547  0.194038  -0.465426
    C   C20  0.329818  0.976856  0.114115  0.553569
    O   O13  0.581008  0.877096  0.393859  -0.468316
    O   O14  0.596497  0.020208  0.158274  -0.453237
    C   C21  0.618685  0.943573  0.131816  0.547984
    O   O15  0.448784  0.784323  0.337595  -0.594373
    C   C22  0.511032  0.783134  0.410711  0.568242
    O   O16  0.563093  0.836585  0.146938  -0.478594
    Fe  Fe2  0.481297  0.946390  0.230470  1.421052
    C   C23  0.487074  0.771082  0.585445  -0.146715
    C   C24  0.487769  0.710362  0.520476  0.008449
    C   C25  0.472929  0.588519  0.561784  0.160779
    C   C26  0.453046  0.529368  0.668370  -0.161597
    H   H4   0.437546  0.433807  0.702770  0.125823
    C   C27  0.451030  0.591263  0.732800  -0.122759
    C   C28  0.469190  0.713217  0.691402  0.032096
    C   C29  0.479192  0.524584  0.493174  -0.195827
    C   C30  0.506974  0.428299  0.530088  -0.190817
    H   H5   0.460961  0.557519  0.410714  0.178831
    H   H6   0.525414  0.395680  0.612508  0.198282
    C   C31  0.495984  0.240688  0.505400  0.074493
    C   C32  0.494112  0.177264  0.441822  -0.230851
    C   C33  0.510915  0.232935  0.335514  0.132689
    C   C34  0.530444  0.355111  0.292482  -0.172478
    C   C35  0.530343  0.419464  0.355468  -0.091734
    H   H7   0.546273  0.514982  0.319737  0.121283
    C   C36  0.511628  0.362550  0.462402  0.112061
    H   H8   0.500246  0.866227  0.550531  0.138162
    H   H9   0.435857  0.543468  0.815451  0.148955
    H   H10  0.479709  0.081989  0.477880  0.181207
    H   H11  0.544791  0.401181  0.209461  0.147543
    C   C37  0.079703  0.060003  0.775145  0.149931
    C   C38  0.051736  0.158095  0.755177  -0.120104
    C   C39  0.000951  0.193690  0.666786  0.035763
    Cl  Cl1  0.966191  0.318293  0.641837  -0.061965
    C   C40  0.978651  0.132366  0.597264  0.016966
    C   C41  0.007025  0.035266  0.616199  -0.142336
    C   C42  0.057906  0.999569  0.704558  -0.187572
    H   H12  0.071107  0.209085  0.807448  0.094865
    H   H13  0.939620  0.161158  0.527446  0.043623
    H   H14  0.989925  0.987555  0.561315  0.123668
    H   H15  0.080362  0.923798  0.718347  0.137525
    C   C43  0.147496  0.947911  0.157293  0.269677
    C   C44  0.133538  0.831950  0.225164  -0.212077
    C   C45  0.106081  0.798745  0.326857  0.117982
    Cl  Cl2  0.088215  0.651514  0.412420  -0.097286
    C   C46  0.092686  0.881390  0.361136  -0.147278
    C   C47  0.106759  0.997290  0.293708  -0.044040
    C   C48  0.134073  0.030603  0.191900  -0.125240
    H   H16  0.143833  0.766852  0.198506  0.119335
    H   H17  0.071207  0.855352  0.440885  0.124780
    H   H18  0.096364  0.062104  0.320664  0.088276
    H   H19  0.145378  0.121680  0.139421  0.101990
    C   C49  0.772529  0.986215  0.265754  0.153997
    C   C50  0.764070  0.085129  0.278727  -0.216358
    C   C51  0.764960  0.089256  0.378659  0.150550
    Cl  Cl3  0.753644  0.214468  0.394816  -0.114330
    C   C52  0.775503  0.995240  0.465814  -0.020948
    C   C53  0.786148  0.897676  0.452989  -0.128197
    C   C54  0.785308  0.893546  0.353084  -0.195597
    H   H20  0.757923  0.160223  0.210515  0.126263
    H   H21  0.776136  0.998436  0.544132  0.086415
    H   H22  0.795488  0.824589  0.521241  0.122571
    H   H23  0.794726  0.817478  0.343341  0.116388
