# Generated by REPEAT Assigner based on pymatgen
data_DB0-m29_o89_o86_f0_pts.sym.11
_audit_creation_date              2022-05-24
_audit_creation_method            REPEAT_Assigner
_cell_length_a                    14.151118
_cell_length_b                    14.603353
_cell_length_c                    11.162390
_cell_angle_alpha                 94.024690
_cell_angle_beta                  94.330453
_cell_angle_gamma                 109.017959
_cell_volume                      2163.592161
_symmetry_space_group_name_H-M    P1
_symmetry_Int_Tables_number       1
loop_
    _symmetry_equiv_pos_site_id
    _symmetry_equiv_pos_as_xyz
    1  x,y,z
loop_
    _atom_site_type_symbol
    _atom_site_label
    _atom_site_fract_x
    _atom_site_fract_y
    _atom_site_fract_z
    _atom_type_partial_charge
    C   C1   0.850982  0.999311  0.151634  -0.203849
    C   C2   0.758921  0.002059  0.103355  0.072584
    C   C3   0.744426  0.008859  0.979604  -0.058780
    C   C4   0.822325  0.016372  0.909519  -0.115725
    C   C5   0.912907  0.011467  0.957839  -0.107754
    C   C6   0.927378  0.001585  0.079107  0.250629
    C   C7   0.987985  0.014894  0.883904  0.298717
    C   C8   0.078578  0.008586  0.930795  -0.095488
    C   C9   0.093686  0.998405  0.051882  0.283477
    C   C10  0.018363  0.994997  0.126664  -0.344056
    C   C11  0.153810  0.012280  0.856352  -0.068301
    C   C12  0.246200  0.008447  0.902071  -0.100337
    C   C13  0.261335  0.000010  0.025154  0.139229
    C   C14  0.184812  0.992369  0.097274  -0.354058
    H   H1   0.861725  0.995196  0.247382  0.119793
    H   H2   0.809485  0.020984  0.813869  0.197157
    H   H3   0.140314  0.018768  0.761378  0.148622
    H   H4   0.200885  0.986415  0.191758  0.215815
    N   N1   0.089902  0.056639  0.338189  -0.261489
    C   C15  0.088183  0.019217  0.445043  -0.000253
    C   C16  0.031411  0.921534  0.429986  -0.178285
    C   C17  0.997337  0.898942  0.308855  -0.243432
    C   C18  0.034775  0.983891  0.255240  0.398690
    H   H5   0.126969  0.128539  0.322673  0.271997
    H   H6   0.126097  0.060609  0.529178  0.133583
    H   H7   0.016583  0.872315  0.499566  0.149668
    H   H8   0.950697  0.828691  0.264824  0.155457
    O   O1   0.596428  0.011252  0.146854  -0.519847
    C   C19  0.681059  0.999517  0.186091  0.527096
    O   O2   0.519814  0.813130  0.235552  -0.475157
    O   O3   0.696700  0.986502  0.300067  -0.484387
    O   O4   0.479300  0.900467  0.386292  -0.552851
    C   C20  0.490897  0.818954  0.343987  0.596534
    Fe  Fe1  0.497009  0.996472  0.265921  1.457492
    O   O5   0.360663  0.949238  0.172106  -0.621208
    O   O6   0.437554  0.082734  0.079005  -0.498346
    C   C21  0.358120  0.006738  0.087619  0.666429
    O   O7   0.546728  0.129055  0.358087  -0.632059
    O   O8   0.379906  0.087484  0.381052  -0.568996
    C   C22  0.471238  0.150797  0.399654  0.755591
    O   O9   0.457799  0.879050  0.645547  -0.640507
    O   O10  0.624665  0.920340  0.622878  -0.561170
    C   C23  0.533260  0.857170  0.604138  0.778652
    O   O11  0.643964  0.058746  0.831833  -0.657117
    O   O12  0.568302  0.924597  0.924557  -0.496377
    C   C24  0.647443  0.000793  0.915602  0.735227
    O   O13  0.307803  0.026136  0.705206  -0.521717
    O   O14  0.526003  0.107618  0.616861  -0.539687
    C   C25  0.516160  0.189536  0.660563  0.608130
    O   O15  0.407829  0.997366  0.856148  -0.526988
    C   C26  0.323681  0.011247  0.818414  0.589068
    O   O16  0.490667  0.195551  0.770729  -0.501686
    Fe  Fe2  0.507682  0.011792  0.737503  1.452046
    C   C27  0.488096  0.247915  0.460098  -0.011951
    C   C28  0.520254  0.269318  0.583073  -0.123980
    C   C29  0.545470  0.365486  0.634037  0.174698
    C   C30  0.594235  0.394499  0.749882  -0.336908
    C   C31  0.612587  0.487293  0.802110  0.356490
    C   C32  0.428228  0.294973  0.273825  -0.007710
    C   C33  0.467701  0.317819  0.394062  -0.058742
    C   C34  0.484088  0.410535  0.448686  0.139203
    C   C35  0.402678  0.362446  0.211197  -0.182818
    C   C36  0.418383  0.454037  0.266047  0.214283
    C   C37  0.524798  0.434859  0.567435  -0.102665
    C   C38  0.543451  0.528666  0.620256  0.052574
    C   C39  0.585202  0.553680  0.738643  -0.063427
    C   C40  0.601115  0.645576  0.793155  -0.085787
    C   C41  0.460783  0.479355  0.383886  -0.112895
    C   C42  0.479148  0.573137  0.436542  0.061567
    C   C43  0.520416  0.597573  0.555208  0.042917
    C   C44  0.536686  0.690172  0.609861  0.044439
    C   C45  0.576146  0.713071  0.730029  -0.086201
    C   C46  0.388346  0.519103  0.203545  -0.332954
    C   C47  0.404781  0.611648  0.255563  0.332509
    C   C48  0.456810  0.642065  0.370219  -0.088906
    C   C49  0.483398  0.738513  0.421176  -0.023996
    C   C50  0.516214  0.759985  0.543890  -0.075910
    H   H9   0.622269  0.347320  0.801382  0.186864
    H   H10  0.413698  0.224334  0.225936  0.062517
    H   H11  0.369658  0.342688  0.118541  0.127265
    H   H12  0.633287  0.666030  0.886005  0.127749
    H   H13  0.590672  0.783730  0.777803  0.081371
    H   H14  0.349308  0.497157  0.113745  0.174125
    F   F1   0.658577  0.512691  0.916323  -0.193615
    F   F2   0.360867  0.667450  0.195907  -0.179790
    F   F3   0.972619  0.024601  0.764758  -0.182092
