# Generated by REPEAT Assigner based on pymatgen
data_DB0-m3_o84_o159_f0_fsc.sym.8_sqe
_audit_creation_date              2022-05-24
_audit_creation_method            REPEAT_Assigner
_cell_length_a                    12.332390
_cell_length_b                    13.383214
_cell_length_c                    6.604713
_cell_angle_alpha                 90.000000
_cell_angle_beta                  80.226766
_cell_angle_gamma                 90.000000
_cell_volume                      1074.268058
_symmetry_space_group_name_H-M    P1
_symmetry_Int_Tables_number       1
loop_
    _symmetry_equiv_pos_site_id
    _symmetry_equiv_pos_as_xyz
    1  x,y,z
loop_
    _atom_site_type_symbol
    _atom_site_label
    _atom_site_fract_x
    _atom_site_fract_y
    _atom_site_fract_z
    _atom_type_partial_charge
    C   C1   0.248678  0.016044  0.174782  0.289189
    C   C2   0.150298  0.035209  0.302858  -0.598518
    C   C3   0.052203  0.029691  0.230131  0.471588
    C   C4   0.954227  0.047256  0.360160  -0.459873
    C   C5   0.856059  0.039519  0.287697  -0.015044
    C   C6   0.248708  0.996322  0.969000  -0.311692
    C   C7   0.149994  0.987788  0.898539  0.151729
    C   C8   0.051959  0.004700  0.028303  -0.177546
    C   C9   0.953878  0.998299  0.955275  0.071735
    C   C10  0.855854  0.015210  0.085047  -0.033006
    C   C11  0.757145  0.006668  0.014625  -0.064895
    C   C12  0.149772  0.963482  0.695882  -0.208103
    C   C13  0.051593  0.955743  0.623427  -0.232454
    C   C14  0.953612  0.973309  0.753456  0.188277
    C   C15  0.855495  0.967798  0.680756  -0.329011
    C   C16  0.757110  0.986958  0.808864  -0.043730
    H   H1   0.150067  0.053577  0.461964  0.240609
    H   H2   0.954294  0.066339  0.519177  0.215975
    H   H3   0.779161  0.052792  0.389827  0.113837
    H   H4   0.226664  0.950214  0.593734  0.189865
    H   H5   0.051522  0.936662  0.464408  0.150076
    H   H6   0.855718  0.949438  0.521650  0.205302
    O   O1   0.383547  0.921048  0.309861  -0.568772
    O   O2   0.386471  0.092707  0.333216  -0.587503
    C   C17  0.348242  0.009903  0.266873  0.582621
    O   O3   0.388483  0.085197  0.749557  -0.688241
    O   O4   0.383246  0.912938  0.726973  -0.637459
    C   C18  0.349159  0.997563  0.815971  0.831419
    O   O5   0.621977  0.082083  0.674458  -0.567651
    O   O6   0.619044  0.910155  0.651087  -0.641437
    C   C19  0.657504  0.993111  0.716786  0.657409
    O   O7   0.617677  0.917877  0.234606  -0.740599
    O   O8   0.622884  0.089874  0.257194  -0.573205
    C   C20  0.656746  0.005414  0.167666  0.798378
    Zn  Zn1  0.505328  0.113362  0.503593  0.885664
    Zn  Zn2  0.500490  0.889626  0.479286  0.993934
    C   C21  0.523457  0.710766  0.636625  -0.261492
    C   C22  0.524139  0.298797  0.674743  -0.540744
    N   N1   0.498618  0.758724  0.471261  0.094291
    N   N2   0.507192  0.244298  0.511969  0.274610
    C   C23  0.473328  0.707148  0.310889  0.107948
    C   C24  0.488725  0.289667  0.339286  0.021286
    C   C25  0.472727  0.603981  0.313979  -0.140198
    C   C26  0.480121  0.391900  0.329585  -0.097677
    C   C27  0.498120  0.553254  0.482797  0.014987
    C   C28  0.499689  0.449605  0.492018  0.052988
    C   C29  0.523520  0.607941  0.644991  0.161721
    C   C30  0.524586  0.402088  0.663997  0.235555
    C   C31  0.551024  0.457547  0.824258  -0.120512
    C   C32  0.550369  0.560370  0.814935  -0.239891
    H   H7   0.538989  0.261552  0.812302  0.327066
    H   H8   0.543656  0.753358  0.764229  0.227543
    H   H9   0.574943  0.420290  0.954704  0.145505
    H   H10  0.571599  0.603830  0.940520  0.117553
    H   H11  0.451776  0.565238  0.183108  0.133741
    H   H12  0.461275  0.424751  0.191292  0.027169
    S   S1   0.440183  0.772247  0.093357  -0.043064
    C   C33  0.295022  0.775662  0.202906  -0.214705
    H   H13  0.255330  0.838687  0.134557  0.144849
    H   H14  0.285552  0.787359  0.371221  0.065597
    H   H15  0.255526  0.704360  0.170289  0.027264
    S   S2   0.484502  0.217293  0.114263  -0.066981
    C   C34  0.633272  0.225442  0.042228  0.004352
    H   H16  0.664045  0.159762  0.947179  0.025641
    H   H17  0.671264  0.225869  0.182825  0.012282
    H   H18  0.656962  0.295312  0.955645  -0.055552
