data_DB0-m3_o11_o29_f0_pcu.sym.3_repeat
_audit_creation_date              2024-02-20
_audit_creation_method            'Materials Studio'
_symmetry_space_group_name_H-M    'P1'
_symmetry_Int_Tables_number       1
_symmetry_cell_setting            triclinic
loop_
_symmetry_equiv_pos_as_xyz
  x,y,z
_cell_length_a                    27.6507
_cell_length_b                    11.1394
_cell_length_c                    9.9072
_cell_angle_alpha                 89.9974
_cell_angle_beta                  89.9930
_cell_angle_gamma                 89.9936
loop_
_atom_site_label
_atom_site_type_symbol
_atom_site_fract_x
_atom_site_fract_y
_atom_site_fract_z
_atom_site_U_iso_or_equiv
_atom_site_adp_type
_atom_site_occupancy
O1     O     0.50031   0.32246   0.62654   0.00000  Uiso   1.00
O2     O     0.49857   0.32307   0.39406   0.00000  Uiso   1.00
C1     C     0.49939   0.26672   0.51049   0.00000  Uiso   1.00
O3     O     0.42778   0.50010   0.63667   0.00000  Uiso   1.00
O4     O     0.42605   0.50160   0.40427   0.00000  Uiso   1.00
C2     C     0.40424   0.50054   0.52171   0.00000  Uiso   1.00
Zn1    Zn    0.50024   0.50047   0.66738   0.00000  Uiso   1.00
Zn2    Zn    0.49760   0.50261   0.36036   0.00000  Uiso   1.00
O5     O     0.49968   0.67988   0.63399   0.00000  Uiso   1.00
O6     O     0.49811   0.68099   0.40059   0.00000  Uiso   1.00
O7     O     0.57181   0.50180   0.62386   0.00000  Uiso   1.00
O8     O     0.57009   0.50288   0.39068   0.00000  Uiso   1.00
C3     C     0.49868   0.73636   0.51765   0.00000  Uiso   1.00
C4     C     0.59358   0.50248   0.50607   0.00000  Uiso   1.00
C5     C     0.17539   0.40789   0.46081   0.00000  Uiso   1.00
O9     O     0.20045   0.31978   0.40001   0.00000  Uiso   1.00
N1     N     0.19923   0.49575   0.52652   0.00000  Uiso   1.00
C6     C     0.17456   0.58312   0.59067   0.00000  Uiso   1.00
C7     C     0.27570   0.50286   0.40528   0.00000  Uiso   1.00
C8     C     0.32553   0.50401   0.40405   0.00000  Uiso   1.00
C9     C     0.32630   0.49467   0.64485   0.00000  Uiso   1.00
C10    C     0.27639   0.49343   0.64578   0.00000  Uiso   1.00
C11    C     0.25088   0.49734   0.52599   0.00000  Uiso   1.00
C12    C     0.09947   0.49502   0.52275   0.00000  Uiso   1.00
C13    C     0.12535   0.40655   0.45813   0.00000  Uiso   1.00
C14    C     0.10113   0.31783   0.38948   0.00000  Uiso   1.00
C15    C     0.12449   0.58374   0.58950   0.00000  Uiso   1.00
C16    C     0.35118   0.49981   0.52383   0.00000  Uiso   1.00
H1     H     0.34542   0.49096   0.73987   0.00000  Uiso   1.00
H2     H     0.25740   0.48791   0.74097   0.00000  Uiso   1.00
H3     H     0.12040   0.24894   0.33469   0.00000  Uiso   1.00
C17    C     0.64665   0.50231   0.50428   0.00000  Uiso   1.00
C18    C     0.97407   0.39781   0.46290   0.00000  Uiso   1.00
C19    C     0.97319   0.59074   0.57161   0.00000  Uiso   1.00
C20    C     0.94856   0.49387   0.51584   0.00000  Uiso   1.00
C21    C     0.94834   0.29759   0.42064   0.00000  Uiso   1.00
C22    C     0.89866   0.29462   0.42219   0.00000  Uiso   1.00
C23    C     0.87273   0.39533   0.46319   0.00000  Uiso   1.00
C24    C     0.89814   0.49315   0.51287   0.00000  Uiso   1.00
C25    C     0.87265   0.59088   0.56014   0.00000  Uiso   1.00
C26    C     0.82276   0.59143   0.55672   0.00000  Uiso   1.00
N2     N     0.79852   0.49792   0.50432   0.00000  Uiso   1.00
C27    C     0.82224   0.40150   0.45585   0.00000  Uiso   1.00
C28    C     0.72190   0.50296   0.62390   0.00000  Uiso   1.00
C29    C     0.67209   0.50395   0.62450   0.00000  Uiso   1.00
C30    C     0.67174   0.49988   0.38346   0.00000  Uiso   1.00
C31    C     0.72167   0.49850   0.38321   0.00000  Uiso   1.00
C32    C     0.74691   0.49985   0.50351   0.00000  Uiso   1.00
O10    O     0.79618   0.31289   0.39968   0.00000  Uiso   1.00
C33    C     0.02464   0.40188   0.45730   0.00000  Uiso   1.00
C34    C     0.04915   0.49485   0.52049   0.00000  Uiso   1.00
C35    C     0.02374   0.58758   0.58142   0.00000  Uiso   1.00
C36    C     0.05150   0.31558   0.38839   0.00000  Uiso   1.00
H4     H     0.65356   0.50577   0.72050   0.00000  Uiso   1.00
H5     H     0.74131   0.50316   0.71862   0.00000  Uiso   1.00
H6     H     0.96567   0.21460   0.39374   0.00000  Uiso   1.00
H7     H     0.03548   0.24622   0.32757   0.00000  Uiso   1.00
O11    O     0.19882   0.67184   0.65283   0.00000  Uiso   1.00
C37    C     0.09937   0.67259   0.65533   0.00000  Uiso   1.00
H8     H     0.34393   0.50858   0.30797   0.00000  Uiso   1.00
H9     H     0.25618   0.50753   0.31088   0.00000  Uiso   1.00
H10    H     0.11792   0.74206   0.71110   0.00000  Uiso   1.00
C38    C     0.94651   0.68925   0.61537   0.00000  Uiso   1.00
C39    C     0.89702   0.68886   0.60978   0.00000  Uiso   1.00
O12    O     0.79811   0.68711   0.60251   0.00000  Uiso   1.00
C40    C     0.04975   0.67463   0.65180   0.00000  Uiso   1.00
H11    H     0.96247   0.77122   0.65114   0.00000  Uiso   1.00
H12    H     0.65278   0.49874   0.28810   0.00000  Uiso   1.00
H13    H     0.87795   0.76753   0.64491   0.00000  Uiso   1.00
H14    H     0.74093   0.49719   0.28825   0.00000  Uiso   1.00
H15    H     0.03313   0.74487   0.70987   0.00000  Uiso   1.00
C41    C     0.49829   0.93378   0.40754   0.00000  Uiso   1.00
C42    C     0.49857   0.86792   0.52093   0.00000  Uiso   1.00
H16    H     0.49798   0.88859   0.31072   0.00000  Uiso   1.00
H17    H     0.49861   0.90820   0.61993   0.00000  Uiso   1.00
C43    C     0.49815   0.06688   0.40474   0.00000  Uiso   1.00
C44    C     0.49979   0.13530   0.51561   0.00000  Uiso   1.00
H18    H     0.49671   0.10971   0.30663   0.00000  Uiso   1.00
H19    H     0.50148   0.09688   0.61539   0.00000  Uiso   1.00
C45    C     0.52018   0.58363   0.94099   0.00000  Uiso   1.00
N3     N     0.50303   0.49762   0.86910   0.00000  Uiso   1.00
H20    H     0.53401   0.66345   0.89180   0.00000  Uiso   1.00
H21    H     0.49616   0.41808   0.91785   0.00000  Uiso   1.00
C46    C     0.52413   0.57372   0.08959   0.00000  Uiso   1.00
N4     N     0.49549   0.50663   0.15860   0.00000  Uiso   1.00
H22    H     0.55067   0.62832   0.14164   0.00000  Uiso   1.00
H23    H     0.46678   0.46896   0.10832   0.00000  Uiso   1.00
C47    C     0.87623   0.17931   0.38842   0.00000  Uiso   1.00
C48    C     0.88096   0.13261   0.26000   0.00000  Uiso   1.00
C49    C     0.86116   0.02232   0.22931   0.00000  Uiso   1.00
C50    C     0.83709   0.95783   0.32726   0.00000  Uiso   1.00
C51    C     0.83306   0.00329   0.45619   0.00000  Uiso   1.00
C52    C     0.85285   0.11353   0.48703   0.00000  Uiso   1.00
H24    H     0.89990   0.18276   0.18297   0.00000  Uiso   1.00
H25    H     0.86459   0.98632   0.12844   0.00000  Uiso   1.00
H26    H     0.82161   0.87133   0.30316   0.00000  Uiso   1.00
H27    H     0.81451   0.95235   0.53327   0.00000  Uiso   1.00
H28    H     0.85003   0.14842   0.58855   0.00000  Uiso   1.00
