# Generated by REPEAT Assigner based on pymatgen
data_DB0-m3_o2_o8_f0_pcu.sym.41_sqe
_audit_creation_date              2022-05-24
_audit_creation_method            REPEAT_Assigner
_cell_length_a                    14.002558
_cell_length_b                    15.211495
_cell_length_c                    17.154991
_cell_angle_alpha                 89.640785
_cell_angle_beta                  93.573093
_cell_angle_gamma                 90.004848
_cell_volume                      3646.835767
_symmetry_space_group_name_H-M    P1
_symmetry_Int_Tables_number       1
loop_
    _symmetry_equiv_pos_site_id
    _symmetry_equiv_pos_as_xyz
    1  x,y,z
loop_
    _atom_site_type_symbol
    _atom_site_label
    _atom_site_fract_x
    _atom_site_fract_y
    _atom_site_fract_z
    _atom_type_partial_charge
    O   O1   0.589771  0.364169  0.502496  -0.664066
    O   O2   0.420629  0.623061  0.500163  -0.618718
    O   O3   0.424869  0.361303  0.494265  -0.687800
    O   O4   0.585217  0.625823  0.512144  -0.627226
    C   C1   0.508106  0.321790  0.496595  0.782942
    C   C2   0.501942  0.665787  0.509014  0.667185
    O   O5   0.590396  0.488545  0.623515  -0.676324
    O   O6   0.420210  0.495908  0.381190  -0.656067
    O   O7   0.425577  0.487720  0.613659  -0.663122
    O   O8   0.584579  0.501013  0.391215  -0.705586
    C   C3   0.507340  0.488189  0.655254  0.801039
    C   C4   0.503043  0.501230  0.349257  0.815326
    Zn  Zn1  0.613813  0.495394  0.508227  1.041399
    Zn  Zn2  0.396542  0.491801  0.496565  1.017645
    C   C5   0.503163  0.486644  0.740824  -0.258812
    C   C6   0.508158  0.501745  0.263286  -0.349953
    C   C7   0.428498  0.440145  0.770374  -0.038094
    C   C8   0.592688  0.471475  0.234990  0.109381
    C   C9   0.415589  0.436264  0.849513  -0.297810
    C   C10  0.606311  0.468349  0.156025  -0.393322
    C   C11  0.481429  0.477182  0.900893  0.337070
    C   C12  0.531152  0.490142  0.103306  0.347857
    C   C13  0.557083  0.523410  0.871814  -0.214792
    C   C14  0.445873  0.519861  0.130619  -0.223940
    C   C15  0.566522  0.532186  0.792124  0.035771
    C   C16  0.435024  0.530862  0.209921  0.075688
    N   N1   0.468122  0.475992  0.982054  -0.200324
    N   N2   0.544112  0.487295  0.022211  -0.161749
    H   H1   0.649889  0.449557  0.275436  0.086353
    H   H2   0.379175  0.406039  0.730297  0.112861
    H   H3   0.607041  0.557698  0.911164  0.088152
    H   H4   0.388385  0.539765  0.089554  0.090482
    C   C17  0.551567  0.086186  0.443481  -0.227696
    C   C18  0.427121  0.902254  0.533578  -0.182962
    H   H5   0.583442  0.048295  0.399001  0.123904
    H   H6   0.365941  0.939691  0.549209  0.115326
    C   C19  0.553693  0.177311  0.439283  0.144593
    C   C20  0.426015  0.811455  0.541525  0.027163
    C   C21  0.509189  0.225619  0.495490  -0.212491
    C   C22  0.501031  0.762639  0.513031  -0.137795
    C   C23  0.463268  0.182372  0.553199  -0.095720
    C   C24  0.578665  0.806842  0.485706  -0.117411
    H   H7   0.429287  0.219824  0.597117  0.112263
    H   H8   0.638322  0.770873  0.464690  0.121358
    C   C25  0.462956  0.092097  0.557495  -0.166473
    C   C26  0.581600  0.897229  0.483519  -0.157291
    H   H9   0.429823  0.061150  0.605786  0.104461
    H   H10  0.645029  0.928754  0.463978  0.100732
    C   C27  0.506621  0.042941  0.502316  0.080765
    C   C28  0.504933  0.945911  0.505966  0.080442
    C   C29  0.114211  0.441623  0.550721  -0.129360
    C   C30  0.901307  0.570481  0.487853  -0.097673
    H   H11  0.083705  0.404211  0.596756  0.114697
    H   H12  0.936484  0.630618  0.472030  0.110388
    C   C31  0.211966  0.440868  0.545930  -0.063532
    C   C32  0.803209  0.570579  0.491795  -0.039265
    H   H13  0.255729  0.402144  0.587345  0.164052
    H   H14  0.763482  0.629714  0.476545  0.134537
    N   N3   0.253471  0.489668  0.491781  -0.046213
    N   N4   0.756943  0.497411  0.512936  -0.051575
    C   C33  0.200002  0.539620  0.440892  0.014470
    C   C34  0.806035  0.423140  0.530806  0.042432
    H   H15  0.234159  0.579514  0.398390  0.161504
    H   H16  0.768660  0.364247  0.546730  0.121387
    C   C35  0.101651  0.541331  0.443517  -0.172410
    C   C36  0.903975  0.420486  0.526752  -0.153403
    H   H17  0.060324  0.580746  0.401071  0.121179
    H   H18  0.940611  0.358916  0.538617  0.120386
    C   C37  0.057570  0.492412  0.499339  0.142448
    C   C38  0.952954  0.494566  0.504677  0.062433
    C   C39  0.701533  0.439504  0.128679  0.714499
    C   C40  0.781041  0.499368  0.161150  -0.441593
    C   C41  0.722560  0.344838  0.152461  -0.382293
    H   H19  0.702674  0.442744  0.064359  -0.146419
    H   H20  0.794866  0.489311  0.224884  0.068134
    H   H21  0.760639  0.568837  0.149284  0.078100
    H   H22  0.847579  0.484674  0.131894  0.092319
    H   H23  0.734649  0.338505  0.216640  0.086374
    H   H24  0.787758  0.322494  0.124835  0.062255
    H   H25  0.661455  0.302797  0.132024  0.077725
    C   C42  0.331755  0.386378  0.878409  0.690854
    C   C43  0.238133  0.425898  0.845181  -0.466750
    C   C44  0.337344  0.289899  0.856811  -0.357968
    H   H26  0.330678  0.389169  0.942725  -0.139711
    H   H27  0.227869  0.414367  0.781487  0.084516
    H   H28  0.238219  0.497602  0.856467  0.083094
    H   H29  0.177914  0.395168  0.874357  0.097497
    H   H30  0.324453  0.280708  0.792999  0.060588
    H   H31  0.282281  0.252732  0.887066  0.068014
    H   H32  0.409091  0.263928  0.875870  0.064048
    C   C45  0.640425  0.595652  0.764624  0.509492
    C   C46  0.633150  0.684535  0.803929  -0.417475
    C   C47  0.740266  0.558058  0.780113  -0.345603
    H   H33  0.629402  0.610176  0.701719  -0.054792
    H   H34  0.667789  0.683447  0.863796  0.091654
    H   H35  0.556839  0.703520  0.805732  0.076060
    H   H36  0.670208  0.734390  0.769314  0.081746
    H   H37  0.756494  0.547726  0.843579  0.073558
    H   H38  0.793351  0.604286  0.757520  0.061211
    H   H39  0.745153  0.494268  0.749681  0.048080
    C   C48  0.347406  0.578851  0.234144  0.502054
    C   C49  0.329848  0.662830  0.186823  -0.401000
    C   C50  0.260183  0.519633  0.225373  -0.387122
    H   H40  0.356460  0.601335  0.295041  -0.054851
    H   H41  0.293856  0.648975  0.128833  0.092701
    H   H42  0.398735  0.697118  0.179841  0.066170
    H   H43  0.282553  0.706517  0.218735  0.077219
    H   H44  0.246854  0.499272  0.163719  0.086275
    H   H45  0.196705  0.555477  0.244195  0.060599
    H   H46  0.272197  0.460276  0.262531  0.064057
    C   C51  0.600753  0.220790  0.372447  0.321827
    C   C52  0.707555  0.202333  0.378282  -0.401207
    C   C53  0.556210  0.189256  0.294564  -0.398556
    H   H47  0.591353  0.292828  0.372397  0.023006
    H   H48  0.722070  0.131358  0.370861  0.096616
    H   H49  0.738248  0.223662  0.436258  0.063434
    H   H50  0.742193  0.239795  0.332183  0.083092
    H   H51  0.580650  0.122037  0.281228  0.091299
    H   H52  0.577547  0.234342  0.247727  0.096440
    H   H53  0.477144  0.190129  0.296006  0.068714
    C   C54  0.346427  0.770483  0.584809  0.476104
    C   C55  0.332654  0.818176  0.660965  -0.420996
    C   C56  0.253640  0.770964  0.534024  -0.335038
    H   H54  0.363539  0.702306  0.602850  -0.048810
    H   H55  0.292189  0.880230  0.650846  0.085688
    H   H56  0.403391  0.831974  0.691134  0.079011
    H   H57  0.291347  0.775252  0.699060  0.092110
    H   H58  0.230091  0.839305  0.520785  0.060312
    H   H59  0.197373  0.736368  0.565055  0.061484
    H   H60  0.264573  0.736614  0.478482  0.041056
