# Generated by REPEAT Assigner based on pymatgen
data_DB0-m29_o81_o1530_f0_pts.sym.10
_audit_creation_date              2022-05-24
_audit_creation_method            REPEAT_Assigner
_cell_length_a                    15.654506
_cell_length_b                    14.287730
_cell_length_c                    13.379256
_cell_angle_alpha                 86.791878
_cell_angle_beta                  87.107449
_cell_angle_gamma                 113.607996
_cell_volume                      2729.054062
_symmetry_space_group_name_H-M    P1
_symmetry_Int_Tables_number       1
loop_
    _symmetry_equiv_pos_site_id
    _symmetry_equiv_pos_as_xyz
    1  x,y,z
loop_
    _atom_site_type_symbol
    _atom_site_label
    _atom_site_fract_x
    _atom_site_fract_y
    _atom_site_fract_z
    _atom_type_partial_charge
    C   C1   0.884270  0.994574  0.867203  -0.251037
    C   C2   0.285179  0.977863  0.915281  0.081255
    C   C3   0.197684  0.966683  0.887968  -0.212514
    C   C4   0.130106  0.966495  0.958416  0.163463
    C   C5   0.046670  0.964714  0.927979  -0.227650
    C   C6   0.979877  0.971941  0.996597  -0.046194
    C   C7   0.804095  0.001622  0.839708  -0.094173
    C   C8   0.733316  0.991247  0.910003  -0.005102
    C   C9   0.897660  0.979503  0.967578  0.209549
    C   C10  0.829381  0.977127  0.040295  0.020363
    C   C11  0.744990  0.979577  0.011651  -0.019467
    C   C12  0.302675  0.984331  0.016617  -0.108499
    C   C13  0.232062  0.976938  0.087059  -0.235321
    C   C14  0.146878  0.970610  0.057854  0.223016
    C   C15  0.079138  0.970841  0.127548  -0.314686
    C   C16  0.996392  0.971855  0.097123  0.253693
    C   C17  0.931339  0.975328  0.168038  -0.230593
    C   C18  0.848627  0.977179  0.140524  -0.098171
    H   H1   0.935557  0.004917  0.806433  0.136838
    H   H2   0.182929  0.963026  0.809954  0.139130
    H   H3   0.036914  0.957303  0.849491  0.167069
    H   H4   0.796117  0.011665  0.760594  0.174661
    H   H5   0.245882  0.982549  0.165307  0.207295
    H   H6   0.091946  0.973157  0.206192  0.153410
    H   H7   0.944906  0.976831  0.246478  0.153552
    H   H8   0.802293  0.982862  0.199870  0.125980
    O   O1   0.626028  0.034282  0.075713  -0.557036
    C   C19  0.669620  0.972716  0.086829  0.478384
    O   O2   0.450449  0.779770  0.220851  -0.500050
    O   O3   0.642553  0.901535  0.161776  -0.432289
    O   O4   0.509257  0.923084  0.307472  -0.647311
    C   C20  0.472425  0.822762  0.305381  0.691036
    Fe  Fe1  0.527472  0.013825  0.183717  1.492978
    O   O5   0.403747  0.945684  0.125722  -0.581583
    O   O6   0.462986  0.096678  0.029580  -0.521277
    C   C21  0.394957  0.006129  0.053012  0.794105
    O   O7   0.567085  0.156612  0.226525  -0.669333
    O   O8   0.410884  0.097552  0.263112  -0.623680
    C   C22  0.494732  0.169802  0.266910  0.732659
    O   O9   0.456882  0.887130  0.677693  -0.590883
    O   O10  0.595403  0.871857  0.682879  -0.529124
    C   C23  0.509386  0.837404  0.656318  0.586045
    O   O11  0.654299  0.046327  0.787388  -0.658510
    O   O12  0.565226  0.924161  0.909749  -0.505901
    C   C24  0.647397  0.991031  0.871570  0.716712
    O   O13  0.329054  0.957067  0.745334  -0.476470
    O   O14  0.566525  0.128701  0.622568  -0.601116
    C   C25  0.517354  0.184677  0.620646  0.506082
    O   O15  0.444179  0.015248  0.851509  -0.548995
    C   C26  0.355266  0.981759  0.835239  0.572114
    O   O16  0.449174  0.166205  0.689977  -0.504158
    Fe  Fe2  0.529635  0.020559  0.734985  1.492290
    C   C27  0.485232  0.622472  0.493272  0.088378
    C   C28  0.493598  0.676015  0.579011  0.131943
    C   C29  0.510611  0.636768  0.668650  -0.217767
    C   C30  0.521066  0.546349  0.674445  -0.032172
    C   C31  0.512295  0.490799  0.591526  -0.131000
    C   C32  0.494314  0.527721  0.500224  0.147054
    C   C33  0.522245  0.398456  0.601550  0.421373
    C   C34  0.513511  0.339627  0.520134  -0.405790
    C   C35  0.499051  0.377869  0.427938  0.475200
    C   C36  0.487792  0.469174  0.418717  -0.398866
    C   C37  0.521557  0.245228  0.526692  0.280566
    C   C38  0.523144  0.197446  0.440498  -0.282969
    C   C39  0.509242  0.235637  0.349587  0.186749
    C   C40  0.494620  0.324509  0.343429  -0.393509
    C   C41  0.472388  0.668073  0.402769  -0.191643
    C   C42  0.466583  0.762342  0.399814  -0.039888
    C   C43  0.468871  0.809487  0.486743  -0.101608
    C   C44  0.484948  0.769067  0.575149  -0.034771
    H   H9   0.515490  0.674944  0.736813  0.165355
    H   H10  0.535151  0.520195  0.746498  0.105109
    H   H11  0.526753  0.123376  0.444895  0.171212
    H   H12  0.480214  0.352267  0.272158  0.164168
    H   H13  0.474052  0.491859  0.345507  0.190211
    H   H14  0.472060  0.636013  0.332014  0.147461
    H   H15  0.466476  0.884070  0.484904  0.156156
    O   O17  0.547813  0.370484  0.690849  -0.421932
    H   H16  0.490015  0.345007  0.736657  0.340423
