# Generated by REPEAT Assigner based on pymatgen
data_DB0-m3_o21_o29_f0_pcu.sym.29_sqe
_audit_creation_date              2022-05-24
_audit_creation_method            REPEAT_Assigner
_cell_length_a                    13.001455
_cell_length_b                    14.091164
_cell_length_c                    27.619240
_cell_angle_alpha                 90.001484
_cell_angle_beta                  93.551426
_cell_angle_gamma                 88.905899
_cell_volume                      5049.358889
_symmetry_space_group_name_H-M    P1
_symmetry_Int_Tables_number       1
loop_
    _symmetry_equiv_pos_site_id
    _symmetry_equiv_pos_as_xyz
    1  x,y,z
loop_
    _atom_site_type_symbol
    _atom_site_label
    _atom_site_fract_x
    _atom_site_fract_y
    _atom_site_fract_z
    _atom_type_partial_charge
    O   O1   0.396218  0.631517  0.489878  -0.657214
    O   O2   0.599312  0.359737  0.492994  -0.586957
    O   O3   0.573667  0.641978  0.493433  -0.666831
    O   O4   0.421918  0.349282  0.488948  -0.652100
    C   C1   0.480992  0.680736  0.491760  0.923654
    C   C2   0.514563  0.310509  0.490849  0.807758
    O   O5   0.412967  0.488883  0.561666  -0.602254
    O   O6   0.582709  0.501780  0.420968  -0.672921
    O   O7   0.590135  0.499974  0.565409  -0.653450
    O   O8   0.405359  0.491814  0.417219  -0.655067
    C   C3   0.502393  0.493985  0.586219  0.625842
    C   C4   0.493220  0.497154  0.396414  0.694089
    Zn  Zn1  0.380887  0.488703  0.488946  1.067438
    Zn  Zn2  0.614692  0.502543  0.493689  1.068224
    C   C5   0.506817  0.575740  0.815260  0.458328
    C   C6   0.507825  0.414193  0.168106  0.444927
    O   O9   0.507925  0.657457  0.790235  -0.510428
    O   O10  0.524079  0.333759  0.193815  -0.506545
    N   N1   0.506046  0.492644  0.791232  -0.156327
    N   N2   0.489266  0.496048  0.191389  -0.162872
    C   C7   0.503681  0.409931  0.815457  0.444889
    C   C8   0.472007  0.577396  0.166424  0.449261
    C   C9   0.417978  0.467702  0.712299  -0.128404
    C   C10  0.398999  0.508295  0.265745  -0.159489
    C   C11  0.416782  0.468596  0.662371  -0.107824
    C   C12  0.399697  0.507818  0.315720  -0.115257
    C   C13  0.592402  0.516451  0.666859  -0.151298
    C   C14  0.582827  0.486740  0.320286  -0.124065
    C   C15  0.592866  0.516871  0.716824  -0.153767
    C   C16  0.581655  0.485753  0.270361  -0.158826
    C   C17  0.505753  0.492282  0.739638  0.216349
    C   C18  0.489900  0.496801  0.242984  0.245577
    C   C19  0.502296  0.493430  0.890839  0.117833
    C   C20  0.492570  0.495056  0.091775  0.112707
    C   C21  0.504062  0.577176  0.865268  -0.140936
    C   C22  0.508742  0.412528  0.118043  -0.117852
    C   C23  0.503654  0.661992  0.889794  -0.025999
    C   C24  0.527117  0.328888  0.094236  -0.038943
    C   C25  0.502751  0.409280  0.865530  -0.119529
    C   C26  0.474339  0.578046  0.116391  -0.126133
    C   C27  0.504041  0.492894  0.639351  0.036915
    C   C28  0.491761  0.497339  0.343274  0.007599
    H   H1   0.661437  0.536036  0.649730  0.139275
    H   H2   0.655761  0.477989  0.340908  0.125268
    H   H3   0.661964  0.535949  0.738106  0.129225
    H   H4   0.653104  0.476990  0.252674  0.125603
    H   H5   0.507206  0.728814  0.870851  0.125071
    H   H6   0.542203  0.263328  0.113912  0.128401
    C   C29  0.484078  0.579431  0.015919  0.042370
    C   C30  0.503529  0.408551  0.966406  0.060706
    C   C31  0.508083  0.409425  0.017188  0.041295
    C   C32  0.493700  0.579503  0.965702  0.064199
    C   C33  0.494862  0.494630  0.041481  0.026171
    C   C34  0.499877  0.493830  0.941128  0.012686
    C   C35  0.462901  0.662196  0.041384  -0.186075
    C   C36  0.501544  0.324233  0.940022  -0.193326
    C   C37  0.457959  0.661232  0.090889  -0.032479
    C   C38  0.500944  0.324854  0.890307  -0.038415
    O   O11  0.454746  0.658414  0.190531  -0.507232
    O   O12  0.503754  0.327838  0.790698  -0.514232
    C   C39  0.498352  0.663398  0.939277  -0.195932
    C   C40  0.526624  0.327069  0.044534  -0.182580
    H   H7   0.327571  0.516593  0.332801  0.119319
    H   H8   0.346983  0.449295  0.641745  0.112067
    H   H9   0.326836  0.516726  0.244419  0.126220
    H   H10  0.349406  0.448692  0.729997  0.118892
    H   H11  0.441278  0.727126  0.109071  0.127508
    H   H12  0.499068  0.257734  0.871399  0.131959
    H   H13  0.446022  0.729604  0.024186  0.136183
    H   H14  0.496694  0.255352  0.956339  0.137897
    H   H15  0.501625  0.732527  0.955682  0.139778
    H   H16  0.544968  0.259363  0.029004  0.137167
    C   C41  0.523591  0.208863  0.490552  -0.262192
    C   C42  0.471937  0.782385  0.492005  -0.343766
    C   C43  0.539649  0.021611  0.490049  -0.050928
    C   C44  0.455876  0.969641  0.492459  -0.070163
    C   C45  0.464547  0.867755  0.492212  0.052678
    C   C46  0.530972  0.123494  0.490315  0.011388
    H   H17  0.381021  0.004057  0.494618  0.140751
    H   H18  0.614509  0.987203  0.487897  0.136736
    N   N3   0.227327  0.479407  0.486249  -0.177439
    N   N4   0.768274  0.511758  0.496455  -0.158889
    C   C47  0.029396  0.458304  0.487141  0.074875
    C   C48  0.967187  0.529520  0.500406  0.054260
    C   C49  0.856946  0.519053  0.498116  0.179222
    C   C50  0.139015  0.470803  0.486457  0.202525
    C   C51  0.008811  0.623913  0.515804  -0.179912
    C   C52  0.064195  0.617876  0.564757  0.191717
    C   C53  0.165551  0.645433  0.571202  -0.209269
    C   C54  0.215828  0.641298  0.616617  -0.059423
    C   C55  0.164981  0.610094  0.655767  -0.066158
    C   C56  0.063607  0.583407  0.649548  -0.109715
    C   C57  0.013143  0.587555  0.604172  -0.226161
    H   H19  0.942975  0.674586  0.518072  0.105349
    H   H20  0.059653  0.651283  0.488415  0.088334
    H   H21  0.206114  0.670447  0.540832  0.132237
    H   H22  0.295227  0.662592  0.621520  0.108349
    H   H23  0.204489  0.606864  0.691354  0.077381
    H   H24  0.023511  0.559479  0.680302  0.109895
    H   H25  0.933313  0.567420  0.599801  0.140310
    C   C58  0.987934  0.364074  0.471404  -0.258502
    C   C59  0.952157  0.310089  0.513554  0.220240
    C   C60  0.852481  0.277622  0.512729  -0.178242
    C   C61  0.820116  0.226659  0.551413  -0.079347
    C   C62  0.887333  0.207417  0.590889  -0.127593
    C   C63  0.987173  0.238728  0.591582  -0.081531
    C   C64  0.019696  0.289702  0.552941  -0.222886
    H   H26  0.051094  0.322305  0.455879  0.118353
    H   H27  0.925153  0.373504  0.442664  0.119348
    H   H28  0.799361  0.291657  0.481803  0.106245
    H   H29  0.742008  0.201555  0.550731  0.119528
    H   H30  0.861925  0.167362  0.621168  0.109001
    H   H31  0.040143  0.223064  0.622386  0.107063
    H   H32  0.098477  0.313024  0.553673  0.129242
