# Generated by REPEAT Assigner based on pymatgen
data_DB0-m2_o11_o22_f0_pcu.sym.95_sqe
_audit_creation_date              2022-05-24
_audit_creation_method            REPEAT_Assigner
_cell_length_a                    10.677835
_cell_length_b                    11.044030
_cell_length_c                    9.535468
_cell_angle_alpha                 90.020625
_cell_angle_beta                  90.011504
_cell_angle_gamma                 90.006240
_cell_volume                      1124.482626
_symmetry_space_group_name_H-M    P1
_symmetry_Int_Tables_number       1
loop_
    _symmetry_equiv_pos_site_id
    _symmetry_equiv_pos_as_xyz
    1  x,y,z
loop_
    _atom_site_type_symbol
    _atom_site_label
    _atom_site_fract_x
    _atom_site_fract_y
    _atom_site_fract_z
    _atom_type_partial_charge
    O   O1   0.501768  0.306660  0.616812  -0.638482
    O   O2   0.491025  0.308028  0.375411  -0.587951
    C   C1   0.496853  0.250841  0.496118  0.722126
    O   O3   0.313825  0.485109  0.619563  -0.590181
    O   O4   0.312863  0.479568  0.377867  -0.522567
    C   C2   0.254561  0.483480  0.498834  0.439420
    Cu  Cu1  0.495841  0.483157  0.638157  1.036058
    Cu  Cu2  0.494827  0.484039  0.357618  0.894151
    O   O5   0.498526  0.658318  0.619962  -0.678316
    O   O6   0.489981  0.660128  0.379479  -0.608074
    O   O7   0.677896  0.488355  0.617277  -0.596257
    O   O8   0.676699  0.480536  0.376993  -0.626413
    C   C3   0.494084  0.715951  0.500307  0.778755
    C   C4   0.736085  0.486825  0.496626  0.664669
    C   C5   0.063917  0.367153  0.554454  -0.223138
    H   H1   0.086809  0.358690  0.667558  0.046312
    H   H2   0.106518  0.290368  0.496620  0.037322
    C   C6   0.923059  0.364089  0.535207  0.098246
    H   H3   0.898556  0.298490  0.451473  -0.020560
    H   H4   0.878719  0.334065  0.634329  0.020484
    H   H5   0.107096  0.583040  0.696771  0.008889
    H   H6   0.901710  0.546608  0.709959  0.029070
    C   C7   0.066128  0.588641  0.590056  -0.119526
    C   C8   0.067591  0.503372  0.349061  -0.550793
    C   C9   0.114429  0.485883  0.498511  0.506896
    H   H7   0.112931  0.583578  0.300962  0.057830
    H   H8   0.089928  0.421949  0.285431  0.085035
    C   C10  0.876171  0.489198  0.495234  -0.341409
    C   C11  0.924820  0.579088  0.603034  0.098881
    C   C12  0.926616  0.520308  0.349248  0.769422
    H   H9   0.887308  0.456101  0.271377  -0.097601
    H   H10  0.091903  0.676854  0.542845  0.002696
    H   H11  0.880771  0.669121  0.589083  -0.045168
    C   C13  0.496350  0.915558  0.386916  -0.041500
    C   C14  0.494447  0.848621  0.504242  -0.310627
    H   H12  0.497233  0.870337  0.286155  0.108126
    H   H13  0.493682  0.888848  0.607113  0.172539
    C   C15  0.496680  0.049860  0.385051  0.007263
    C   C16  0.498269  0.118369  0.500738  -0.310015
    H   H14  0.495367  0.093617  0.283263  0.094882
    H   H15  0.501006  0.079357  0.604377  0.164748
    C   C17  0.414335  0.423676  0.920431  0.092321
    N   N1   0.497003  0.480218  0.847871  -0.339675
    H   H16  0.337396  0.378523  0.867695  0.096686
    H   H17  0.578446  0.503919  0.897773  0.246296
    C   C18  0.423115  0.414220  0.075457  0.070951
    N   N2   0.493567  0.485229  0.147855  -0.316645
    H   H18  0.366118  0.347065  0.128533  0.114364
    H   H19  0.526802  0.561486  0.098634  0.257630
    C   C19  0.893927  0.648906  0.301389  0.111768
    O   O9   0.918736  0.660049  0.158343  -0.636276
    H   H20  0.950331  0.717090  0.358485  -0.004379
    H   H21  0.793829  0.670057  0.319285  -0.006761
    H   H22  0.956622  0.741461  0.148594  0.378479
