# Generated by REPEAT Assigner based on pymatgen
data_DB0-m3_o14_o19_f0_nbo.sym.88
_audit_creation_date              2022-05-24
_audit_creation_method            REPEAT_Assigner
_cell_length_a                    23.760986
_cell_length_b                    30.781245
_cell_length_c                    19.540693
_cell_angle_alpha                 90.000000
_cell_angle_beta                  127.433569
_cell_angle_gamma                 90.000000
_cell_volume                      11348.623318
_symmetry_space_group_name_H-M    P1
_symmetry_Int_Tables_number       1
loop_
    _symmetry_equiv_pos_site_id
    _symmetry_equiv_pos_as_xyz
    1  x,y,z
loop_
    _atom_site_type_symbol
    _atom_site_label
    _atom_site_fract_x
    _atom_site_fract_y
    _atom_site_fract_z
    _atom_type_partial_charge
    O   O1    0.678290  0.765717  0.852985  -0.649565
    O   O2    0.321710  0.234283  0.147015  -0.649570
    O   O3    0.321710  0.765717  0.147015  -0.649565
    O   O4    0.678290  0.234283  0.852985  -0.649572
    O   O5    0.178290  0.265717  0.852985  -0.649570
    O   O6    0.821710  0.734283  0.147015  -0.649569
    O   O7    0.821709  0.265717  0.147015  -0.649569
    O   O8    0.178290  0.734283  0.852985  -0.649570
    O   O9    0.739905  0.819741  0.955130  -0.644761
    O   O10   0.260095  0.180259  0.044870  -0.644769
    O   O11   0.260095  0.819741  0.044870  -0.644764
    O   O12   0.739905  0.180259  0.955130  -0.644767
    O   O13   0.239905  0.319741  0.955130  -0.644767
    O   O14   0.760095  0.680259  0.044870  -0.644767
    O   O15   0.760095  0.319741  0.044870  -0.644774
    O   O16   0.239905  0.680259  0.955130  -0.644766
    C   C1    0.697293  0.806414  0.874796  0.579182
    C   C2    0.302707  0.193586  0.125204  0.579210
    C   C3    0.302707  0.806414  0.125204  0.579185
    C   C4    0.697293  0.193586  0.874796  0.579207
    C   C5    0.197293  0.306414  0.874796  0.579208
    C   C6    0.802707  0.693586  0.125204  0.579192
    C   C7    0.802707  0.306414  0.125204  0.579218
    C   C8    0.197293  0.693586  0.874796  0.579191
    O   O17   0.635077  0.729901  0.944544  -0.651481
    O   O18   0.364923  0.270099  0.055456  -0.651486
    O   O19   0.364923  0.729901  0.055456  -0.651490
    O   O20   0.635076  0.270099  0.944544  -0.651466
    O   O21   0.135076  0.229901  0.944544  -0.651467
    O   O22   0.864923  0.770099  0.055456  -0.651492
    O   O23   0.864923  0.229901  0.055456  -0.651489
    O   O24   0.135077  0.770099  0.944544  -0.651480
    O   O25   0.694917  0.782918  0.049350  -0.686549
    O   O26   0.305083  0.217082  0.950650  -0.686555
    O   O27   0.305083  0.782918  0.950650  -0.686559
    O   O28   0.694917  0.217082  0.049350  -0.686540
    O   O29   0.194917  0.282918  0.049350  -0.686543
    O   O30   0.805083  0.717082  0.950650  -0.686558
    O   O31   0.805083  0.282918  0.950650  -0.686554
    O   O32   0.194917  0.717082  0.049350  -0.686547
    C   C9    0.638887  0.758655  0.996677  0.777073
    C   C10   0.361113  0.241345  0.003323  0.777064
    C   C11   0.361113  0.758655  0.003323  0.777098
    C   C12   0.638887  0.241345  0.996677  0.777032
    C   C13   0.138887  0.258655  0.996677  0.777032
    C   C14   0.861113  0.741345  0.003323  0.777098
    C   C15   0.861113  0.258655  0.003323  0.777060
    C   C16   0.138887  0.741345  0.996677  0.777070
    Zn  Zn1   0.711992  0.714152  0.933512  1.299638
    Zn  Zn2   0.288008  0.285848  0.066488  1.299636
    Zn  Zn3   0.288008  0.714152  0.066488  1.299635
    Zn  Zn4   0.711992  0.285848  0.933512  1.299638
    Zn  Zn5   0.211992  0.214152  0.933512  1.299635
    Zn  Zn6   0.788008  0.785848  0.066488  1.299637
    Zn  Zn7   0.788008  0.214152  0.066488  1.299636
    Zn  Zn8   0.211992  0.785848  0.933512  1.299640
    C   C17   0.579521  0.762304  0.998305  -0.136691
    C   C18   0.420479  0.237696  0.001696  -0.136697
    C   C19   0.420479  0.762304  0.001696  -0.136750
    C   C20   0.579521  0.237696  0.998305  -0.136682
    C   C21   0.079521  0.262304  0.998305  -0.136677
    C   C22   0.920479  0.737696  0.001696  -0.136748
    C   C23   0.920479  0.262304  0.001696  -0.136693
    C   C24   0.079521  0.737696  0.998305  -0.136692
    C   C25   0.529410  0.763789  0.999411  0.038935
    C   C26   0.470590  0.236211  0.000589  0.038991
    C   C27   0.470590  0.763789  0.000589  0.039052
    C   C28   0.529409  0.236211  0.999411  0.038969
    C   C29   0.029409  0.263789  0.999411  0.038968
    C   C30   0.970590  0.736211  0.000589  0.039047
    C   C31   0.970590  0.263789  0.000589  0.038991
    C   C32   0.029410  0.736211  0.999411  0.038940
    H   H1    0.562330  0.825358  0.762710  0.169303
    H   H2    0.437670  0.174642  0.237290  0.169296
    H   H3    0.437670  0.825358  0.237290  0.169298
    H   H4    0.562330  0.174642  0.762710  0.169300
    H   H5    0.062330  0.325358  0.762710  0.169299
    H   H6    0.937670  0.674642  0.237290  0.169299
    H   H7    0.937670  0.325358  0.237290  0.169294
    H   H8    0.062330  0.674642  0.762710  0.169303
    C   C33   0.781120  0.855645  0.841490  -0.293923
    C   C34   0.218880  0.144355  0.158510  -0.293951
    C   C35   0.218880  0.855645  0.158510  -0.293922
    C   C36   0.781120  0.144355  0.841490  -0.293947
    C   C37   0.281120  0.355645  0.841490  -0.293959
    C   C38   0.718880  0.644355  0.158510  -0.293915
    C   C39   0.718880  0.355645  0.158510  -0.293969
    C   C40   0.281120  0.644355  0.841490  -0.293953
    H   H9    0.805039  0.827266  0.881983  0.210433
    H   H10   0.194961  0.172734  0.118018  0.210443
    H   H11   0.194961  0.827266  0.118018  0.210434
    H   H12   0.805038  0.172734  0.881983  0.210442
    H   H13   0.305038  0.327266  0.881982  0.210439
    H   H14   0.694961  0.672734  0.118017  0.210431
    H   H15   0.694961  0.327266  0.118017  0.210448
    H   H16   0.305038  0.672734  0.881982  0.210440
    C   C41   0.823229  0.881438  0.832076  0.157410
    C   C42   0.176771  0.118562  0.167924  0.157438
    C   C43   0.176771  0.881438  0.167924  0.157417
    C   C44   0.823229  0.118562  0.832076  0.157432
    C   C45   0.323229  0.381438  0.832076  0.157453
    C   C46   0.676771  0.618562  0.167924  0.157389
    C   C47   0.676771  0.381439  0.167924  0.157439
    C   C48   0.323229  0.618562  0.832076  0.157456
    C   C49   0.795874  0.918401  0.783041  -0.132955
    C   C50   0.204126  0.081599  0.216960  -0.132988
    C   C51   0.204126  0.918400  0.216960  -0.132985
    C   C52   0.795874  0.081599  0.783041  -0.132973
    C   C53   0.295874  0.418400  0.783040  -0.133001
    C   C54   0.704126  0.581599  0.216959  -0.132950
    C   C55   0.704126  0.418401  0.216959  -0.132979
    C   C56   0.295874  0.581600  0.783040  -0.132999
    H   H17   0.829740  0.939682  0.778628  0.125636
    H   H18   0.170260  0.060318  0.221372  0.125648
    H   H19   0.170260  0.939682  0.221372  0.125642
    H   H20   0.829740  0.060318  0.778628  0.125640
    H   H21   0.329740  0.439682  0.778628  0.125647
    H   H22   0.670260  0.560318  0.221372  0.125636
    H   H23   0.670260  0.439682  0.221372  0.125642
    H   H24   0.329740  0.560318  0.778628  0.125646
    C   C57   0.725116  0.927988  0.737926  -0.225132
    C   C58   0.274884  0.072012  0.262074  -0.225114
    C   C59   0.274884  0.927988  0.262074  -0.225113
    C   C60   0.725116  0.072012  0.737926  -0.225123
    C   C61   0.225116  0.427987  0.737926  -0.225094
    C   C62   0.774884  0.572012  0.262074  -0.225139
    C   C63   0.774884  0.427988  0.262074  -0.225115
    C   C64   0.225116  0.572013  0.737926  -0.225098
    H   H25   0.707563  0.958171  0.703150  0.162038
    H   H26   0.292437  0.041829  0.296850  0.162035
    H   H27   0.292437  0.958170  0.296850  0.162035
    H   H28   0.707563  0.041829  0.703150  0.162037
    H   H29   0.207563  0.458170  0.703150  0.162026
    H   H30   0.792437  0.541829  0.296850  0.162040
    H   H31   0.792437  0.458171  0.296850  0.162035
    H   H32   0.207563  0.541830  0.703150  0.162028
    C   C65   0.679902  0.899774  0.739035  0.133978
    C   C66   0.320098  0.100226  0.260965  0.133968
    C   C67   0.320098  0.899774  0.260966  0.133991
    C   C68   0.679902  0.100226  0.739035  0.133964
    C   C69   0.179902  0.399774  0.739035  0.133953
    C   C70   0.820098  0.600226  0.260965  0.133992
    C   C71   0.820098  0.399774  0.260965  0.133962
    C   C72   0.179902  0.600226  0.739035  0.133956
    C   C73   0.709558  0.864960  0.796363  0.081811
    C   C74   0.290442  0.135040  0.203637  0.081832
    C   C75   0.290442  0.864960  0.203638  0.081795
    C   C76   0.709558  0.135040  0.796363  0.081831
    C   C77   0.209558  0.364960  0.796363  0.081842
    C   C78   0.790442  0.635040  0.203637  0.081807
    C   C79   0.790442  0.364960  0.203637  0.081850
    C   C80   0.209558  0.635040  0.796363  0.081830
    C   C81   0.667241  0.838998  0.806447  0.090559
    C   C82   0.332759  0.161002  0.193553  0.090537
    C   C83   0.332759  0.838998  0.193553  0.090564
    C   C84   0.667241  0.161002  0.806447  0.090540
    C   C85   0.167241  0.338998  0.806447  0.090534
    C   C86   0.832759  0.661002  0.193553  0.090555
    C   C87   0.832759  0.338998  0.193553  0.090526
    C   C88   0.167241  0.661002  0.806447  0.090555
    C   C89   0.595324  0.845633  0.755078  -0.207796
    C   C90   0.404676  0.154367  0.244922  -0.207781
    C   C91   0.404676  0.845633  0.244922  -0.207790
    C   C92   0.595324  0.154367  0.755078  -0.207790
    C   C93   0.095324  0.345633  0.755078  -0.207786
    C   C94   0.904676  0.654367  0.244922  -0.207789
    C   C95   0.904676  0.345633  0.244922  -0.207779
    C   C96   0.095324  0.654367  0.755078  -0.207798
    H   H33   0.508304  0.882515  0.655460  0.150701
    H   H34   0.491696  0.117485  0.344540  0.150700
    H   H35   0.491696  0.882515  0.344540  0.150699
    H   H36   0.508304  0.117485  0.655460  0.150700
    H   H37   0.008304  0.382515  0.655460  0.150701
    H   H38   0.991696  0.617485  0.344540  0.150699
    H   H39   0.991696  0.382515  0.344540  0.150700
    H   H40   0.008304  0.617485  0.655460  0.150699
    C   C97   0.565171  0.878596  0.695497  -0.136147
    C   C98   0.434829  0.121404  0.304503  -0.136152
    C   C99   0.434829  0.878596  0.304503  -0.136141
    C   C100  0.565171  0.121404  0.695497  -0.136150
    C   C101  0.065171  0.378596  0.695497  -0.136150
    C   C102  0.934829  0.621404  0.304503  -0.136147
    C   C103  0.934829  0.378596  0.304503  -0.136151
    C   C104  0.065171  0.621404  0.695497  -0.136144
    C   C105  0.606329  0.906095  0.686541  -0.039187
    C   C106  0.393671  0.093905  0.313459  -0.039188
    C   C107  0.393671  0.906095  0.313459  -0.039208
    C   C108  0.606329  0.093905  0.686541  -0.039178
    C   C109  0.106329  0.406095  0.686541  -0.039180
    C   C110  0.893671  0.593905  0.313459  -0.039199
    C   C111  0.893671  0.406095  0.313459  -0.039189
    C   C112  0.106329  0.593905  0.686541  -0.039181
    O   O33   0.009263  0.544977  0.602271  -0.666560
    O   O34   0.990737  0.455023  0.397730  -0.666562
    O   O35   0.990737  0.544977  0.397730  -0.666558
    O   O36   0.009263  0.455023  0.602271  -0.666562
    O   O37   0.509263  0.044977  0.602271  -0.666562
    O   O38   0.490737  0.955023  0.397730  -0.666560
    O   O39   0.490737  0.044977  0.397730  -0.666561
    O   O40   0.509263  0.955023  0.602271  -0.666560
    O   O41   0.092894  0.546566  0.578615  -0.674393
    O   O42   0.907106  0.453434  0.421385  -0.674401
    O   O43   0.907106  0.546566  0.421385  -0.674400
    O   O44   0.092894  0.453434  0.578615  -0.674395
    O   O45   0.592894  0.046566  0.578615  -0.674395
    O   O46   0.407106  0.953434  0.421385  -0.674402
    O   O47   0.407106  0.046566  0.421385  -0.674400
    O   O48   0.592894  0.953434  0.578615  -0.674394
    C   C113  0.068556  0.559782  0.620051  0.674370
    C   C114  0.931444  0.440218  0.379949  0.674381
    C   C115  0.931444  0.559782  0.379949  0.674381
    C   C116  0.068556  0.440218  0.620051  0.674375
    C   C117  0.568556  0.059782  0.620051  0.674373
    C   C118  0.431444  0.940218  0.379949  0.674385
    C   C119  0.431444  0.059782  0.379949  0.674380
    C   C120  0.568556  0.940218  0.620051  0.674377
    Zn  Zn9   0.943423  0.500000  0.512629  1.277803
    Zn  Zn10  0.056577  0.500000  0.487371  1.277796
    Zn  Zn11  0.443423  0.000000  0.512629  1.277801
    Zn  Zn12  0.556577  0.000000  0.487371  1.277794
    C   C121  0.895408  0.869513  0.872269  0.205782
    N   N1    0.953438  0.859799  0.903784  -0.350639
    C   C122  0.104592  0.130487  0.127732  0.205772
    N   N2    0.046562  0.140202  0.096216  -0.350636
    C   C123  0.104592  0.869513  0.127732  0.205803
    N   N3    0.046563  0.859798  0.096217  -0.350652
    C   C124  0.895408  0.130487  0.872268  0.205781
    N   N4    0.953437  0.140202  0.903784  -0.350641
    C   C125  0.395408  0.369512  0.872268  0.205783
    N   N5    0.453437  0.359798  0.903783  -0.350646
    C   C126  0.604592  0.630487  0.127731  0.205805
    N   N6    0.546562  0.640201  0.096216  -0.350649
    C   C127  0.604592  0.369513  0.127731  0.205784
    N   N7    0.546562  0.359799  0.096216  -0.350644
    C   C128  0.395408  0.630487  0.872268  0.205775
    N   N8    0.453437  0.640202  0.903784  -0.350640
