data_DB0-m2_o11_o29_f0_pcu.sym.90_repeat
_audit_creation_date              2024-02-20
_audit_creation_method            'Materials Studio'
_symmetry_space_group_name_H-M    'P1'
_symmetry_Int_Tables_number       1
_symmetry_cell_setting            triclinic
loop_
_symmetry_equiv_pos_as_xyz
  x,y,z
_cell_length_a                    27.5452
_cell_length_b                    11.0384
_cell_length_c                    9.5631
_cell_angle_alpha                 90.0205
_cell_angle_beta                  90.0156
_cell_angle_gamma                 89.9936
loop_
_atom_site_label
_atom_site_type_symbol
_atom_site_fract_x
_atom_site_fract_y
_atom_site_fract_z
_atom_site_U_iso_or_equiv
_atom_site_adp_type
_atom_site_occupancy
O1     O     0.50100   0.32273   0.61671   0.00000  Uiso   1.00
O2     O     0.49839   0.32221   0.37592   0.00000  Uiso   1.00
C1     C     0.49970   0.26590   0.49660   0.00000  Uiso   1.00
O3     O     0.42873   0.49444   0.61197   0.00000  Uiso   1.00
O4     O     0.42969   0.50276   0.37129   0.00000  Uiso   1.00
C2     C     0.40646   0.49868   0.49090   0.00000  Uiso   1.00
Cu1    Cu    0.49914   0.49879   0.63536   0.00000  Uiso   1.00
Cu2    Cu    0.50036   0.49825   0.35555   0.00000  Uiso   1.00
O5     O     0.50091   0.67461   0.61460   0.00000  Uiso   1.00
O6     O     0.49871   0.67448   0.37430   0.00000  Uiso   1.00
O7     O     0.56979   0.49434   0.61927   0.00000  Uiso   1.00
O8     O     0.57075   0.50194   0.37940   0.00000  Uiso   1.00
C3     C     0.49987   0.73119   0.49467   0.00000  Uiso   1.00
C4     C     0.59308   0.49814   0.50009   0.00000  Uiso   1.00
C5     C     0.17649   0.40865   0.42809   0.00000  Uiso   1.00
O9     O     0.20124   0.31628   0.37061   0.00000  Uiso   1.00
N1     N     0.20087   0.50081   0.48799   0.00000  Uiso   1.00
C6     C     0.17666   0.59270   0.54901   0.00000  Uiso   1.00
C7     C     0.27805   0.49780   0.36391   0.00000  Uiso   1.00
C8     C     0.32811   0.49759   0.36441   0.00000  Uiso   1.00
C9     C     0.32770   0.50138   0.61416   0.00000  Uiso   1.00
C10    C     0.27768   0.50238   0.61332   0.00000  Uiso   1.00
C11    C     0.25266   0.50044   0.48832   0.00000  Uiso   1.00
C12    C     0.10078   0.49984   0.49116   0.00000  Uiso   1.00
C13    C     0.12626   0.40722   0.42873   0.00000  Uiso   1.00
C14    C     0.10149   0.31232   0.36934   0.00000  Uiso   1.00
C15    C     0.12643   0.59317   0.55152   0.00000  Uiso   1.00
C16    C     0.35323   0.49917   0.48966   0.00000  Uiso   1.00
H1     H     0.34635   0.50256   0.71355   0.00000  Uiso   1.00
H2     H     0.25817   0.50307   0.71138   0.00000  Uiso   1.00
H3     H     0.12045   0.23700   0.32220   0.00000  Uiso   1.00
C17    C     0.64630   0.49783   0.50146   0.00000  Uiso   1.00
C18    C     0.97427   0.40835   0.42447   0.00000  Uiso   1.00
C19    C     0.97461   0.58710   0.56960   0.00000  Uiso   1.00
C20    C     0.94942   0.49731   0.49822   0.00000  Uiso   1.00
C21    C     0.94741   0.32456   0.34754   0.00000  Uiso   1.00
C22    C     0.89761   0.32586   0.34928   0.00000  Uiso   1.00
C23    C     0.87313   0.41102   0.42664   0.00000  Uiso   1.00
C24    C     0.89889   0.49656   0.50047   0.00000  Uiso   1.00
C25    C     0.87350   0.58144   0.57639   0.00000  Uiso   1.00
C26    C     0.82326   0.58024   0.57697   0.00000  Uiso   1.00
N2     N     0.79875   0.49587   0.50358   0.00000  Uiso   1.00
C27    C     0.82291   0.41151   0.42923   0.00000  Uiso   1.00
C28    C     0.72143   0.48841   0.62709   0.00000  Uiso   1.00
C29    C     0.67136   0.48903   0.62639   0.00000  Uiso   1.00
C30    C     0.67189   0.50622   0.37746   0.00000  Uiso   1.00
C31    C     0.72192   0.50567   0.37846   0.00000  Uiso   1.00
C32    C     0.74692   0.49663   0.50313   0.00000  Uiso   1.00
O10    O     0.79798   0.32585   0.35975   0.00000  Uiso   1.00
C33    C     0.02510   0.40572   0.42817   0.00000  Uiso   1.00
C34    C     0.05025   0.49906   0.49337   0.00000  Uiso   1.00
C35    C     0.02535   0.59155   0.56093   0.00000  Uiso   1.00
C36    C     0.05168   0.31113   0.36919   0.00000  Uiso   1.00
H4     H     0.65226   0.48191   0.72473   0.00000  Uiso   1.00
H5     H     0.74056   0.47982   0.72531   0.00000  Uiso   1.00
H6     H     0.87842   0.25905   0.28794   0.00000  Uiso   1.00
H7     H     0.96335   0.25751   0.28034   0.00000  Uiso   1.00
H8     H     0.03551   0.23149   0.32457   0.00000  Uiso   1.00
O11    O     0.20155   0.68535   0.60534   0.00000  Uiso   1.00
C37    C     0.10183   0.68752   0.61264   0.00000  Uiso   1.00
H9     H     0.34715   0.49597   0.26566   0.00000  Uiso   1.00
H10    H     0.25880   0.49747   0.26537   0.00000  Uiso   1.00
H11    H     0.12091   0.76347   0.65805   0.00000  Uiso   1.00
C38    C     0.94820   0.66984   0.64928   0.00000  Uiso   1.00
C39    C     0.89841   0.66707   0.65197   0.00000  Uiso   1.00
O12    O     0.79867   0.66565   0.64781   0.00000  Uiso   1.00
C40    C     0.05204   0.68720   0.61710   0.00000  Uiso   1.00
H12    H     0.96457   0.73722   0.71520   0.00000  Uiso   1.00
H13    H     0.65328   0.51379   0.27839   0.00000  Uiso   1.00
H14    H     0.87956   0.73328   0.71502   0.00000  Uiso   1.00
H15    H     0.74143   0.51388   0.28084   0.00000  Uiso   1.00
H16    H     0.03591   0.76644   0.66283   0.00000  Uiso   1.00
C41    C     0.49860   0.93169   0.38331   0.00000  Uiso   1.00
C42    C     0.49999   0.86379   0.49921   0.00000  Uiso   1.00
H17    H     0.49736   0.88745   0.28221   0.00000  Uiso   1.00
H18    H     0.50129   0.90327   0.60228   0.00000  Uiso   1.00
C43    C     0.49864   0.06597   0.38407   0.00000  Uiso   1.00
C44    C     0.49971   0.13326   0.50067   0.00000  Uiso   1.00
H19    H     0.49771   0.11076   0.28331   0.00000  Uiso   1.00
H20    H     0.50062   0.09335   0.60352   0.00000  Uiso   1.00
C45    C     0.47028   0.43087   0.92088   0.00000  Uiso   1.00
N3     N     0.49760   0.49894   0.84467   0.00000  Uiso   1.00
H21    H     0.51257   0.57314   0.89292   0.00000  Uiso   1.00
C46    C     0.46797   0.44435   0.07515   0.00000  Uiso   1.00
N4     N     0.50163   0.49669   0.14633   0.00000  Uiso   1.00
H22    H     0.43735   0.40447   0.12914   0.00000  Uiso   1.00
H23    H     0.53344   0.51689   0.09551   0.00000  Uiso   1.00
C47    C     0.43972   0.34070   0.85730   0.00000  Uiso   1.00
N5     N     0.41505   0.26809   0.80657   0.00000  Uiso   1.00
