data_DB0-m3_o12_o29_f0_pcu.sym.102_repeat
_audit_creation_date              2024-02-20
_audit_creation_method            'Materials Studio'
_symmetry_space_group_name_H-M    'P1'
_symmetry_Int_Tables_number       1
_symmetry_cell_setting            triclinic
loop_
_symmetry_equiv_pos_as_xyz
  x,y,z
_cell_length_a                    10.0003
_cell_length_b                    11.2500
_cell_length_c                    27.6583
_cell_angle_alpha                 89.9792
_cell_angle_beta                  80.7879
_cell_angle_gamma                 92.4450
loop_
_atom_site_label
_atom_site_type_symbol
_atom_site_fract_x
_atom_site_fract_y
_atom_site_fract_z
_atom_site_U_iso_or_equiv
_atom_site_adp_type
_atom_site_occupancy
O1     O     0.41333   0.70714   0.50538   0.00000  Uiso   1.00
O2     O     0.56300   0.32570   0.49593   0.00000  Uiso   1.00
O3     O     0.64291   0.67595   0.49127   0.00000  Uiso   1.00
O4     O     0.33342   0.35690   0.51015   0.00000  Uiso   1.00
C1     C     0.54040   0.74640   0.49759   0.00000  Uiso   1.00
C2     C     0.43594   0.28645   0.50377   0.00000  Uiso   1.00
O5     O     0.37608   0.53182   0.57964   0.00000  Uiso   1.00
O6     O     0.60027   0.50115   0.42173   0.00000  Uiso   1.00
O7     O     0.60544   0.50034   0.56551   0.00000  Uiso   1.00
O8     O     0.37085   0.53233   0.43584   0.00000  Uiso   1.00
C3     C     0.49140   0.51599   0.59519   0.00000  Uiso   1.00
C4     C     0.48498   0.51681   0.40617   0.00000  Uiso   1.00
Zn1    Zn    0.33687   0.53711   0.51002   0.00000  Uiso   1.00
Zn2    Zn    0.63947   0.49573   0.49134   0.00000  Uiso   1.00
C5     C     0.58111   0.58952   0.81902   0.00000  Uiso   1.00
C6     C     0.41407   0.42578   0.18159   0.00000  Uiso   1.00
O9     O     0.65651   0.66950   0.78909   0.00000  Uiso   1.00
O10    O     0.34436   0.34279   0.21158   0.00000  Uiso   1.00
N1     N     0.49645   0.51326   0.79986   0.00000  Uiso   1.00
N2     N     0.48295   0.51362   0.20140   0.00000  Uiso   1.00
C7     C     0.41274   0.43658   0.82881   0.00000  Uiso   1.00
C8     C     0.55359   0.59933   0.17309   0.00000  Uiso   1.00
C9     C     0.37778   0.53758   0.73035   0.00000  Uiso   1.00
C10    C     0.36388   0.52853   0.28511   0.00000  Uiso   1.00
C11    C     0.37639   0.53808   0.68057   0.00000  Uiso   1.00
C12    C     0.36429   0.52958   0.33497   0.00000  Uiso   1.00
C13    C     0.61042   0.49248   0.66618   0.00000  Uiso   1.00
C14    C     0.60304   0.50298   0.32090   0.00000  Uiso   1.00
C15    C     0.61141   0.49165   0.71598   0.00000  Uiso   1.00
C16    C     0.60239   0.50240   0.27111   0.00000  Uiso   1.00
C17    C     0.49519   0.51425   0.74830   0.00000  Uiso   1.00
C18    C     0.48292   0.51487   0.25300   0.00000  Uiso   1.00
C19    C     0.49753   0.51190   0.89951   0.00000  Uiso   1.00
C20    C     0.48740   0.51006   0.10151   0.00000  Uiso   1.00
C21    C     0.58555   0.58841   0.86923   0.00000  Uiso   1.00
C22    C     0.41650   0.42131   0.13097   0.00000  Uiso   1.00
C23    C     0.67566   0.66206   0.88998   0.00000  Uiso   1.00
C24    C     0.35071   0.32996   0.10895   0.00000  Uiso   1.00
C25    C     0.41137   0.43575   0.87882   0.00000  Uiso   1.00
C26    C     0.55626   0.59890   0.12303   0.00000  Uiso   1.00
C27    C     0.49279   0.51557   0.64816   0.00000  Uiso   1.00
C28    C     0.48395   0.51657   0.35317   0.00000  Uiso   1.00
H1     H     0.70269   0.47410   0.64175   0.00000  Uiso   1.00
H2     H     0.69803   0.49255   0.33401   0.00000  Uiso   1.00
H3     H     0.70362   0.47202   0.72957   0.00000  Uiso   1.00
H4     H     0.69597   0.49080   0.24629   0.00000  Uiso   1.00
C29    C     0.56705   0.59717   0.02191   0.00000  Uiso   1.00
C30    C     0.41044   0.42992   0.97947   0.00000  Uiso   1.00
C31    C     0.41524   0.42447   0.02977   0.00000  Uiso   1.00
C32    C     0.57689   0.59208   0.97088   0.00000  Uiso   1.00
C33    C     0.48994   0.51049   0.05097   0.00000  Uiso   1.00
C34    C     0.49508   0.51122   0.95003   0.00000  Uiso   1.00
C35    C     0.63158   0.68806   0.04476   0.00000  Uiso   1.00
C36    C     0.32174   0.35645   0.95779   0.00000  Uiso   1.00
C37    C     0.62628   0.68848   0.09457   0.00000  Uiso   1.00
C38    C     0.32279   0.35932   0.90820   0.00000  Uiso   1.00
O11    O     0.61932   0.68707   0.19396   0.00000  Uiso   1.00
O12    O     0.33170   0.35926   0.80873   0.00000  Uiso   1.00
C39    C     0.66935   0.66450   0.93996   0.00000  Uiso   1.00
C40    C     0.34901   0.33316   0.05938   0.00000  Uiso   1.00
H5     H     0.26981   0.54051   0.35932   0.00000  Uiso   1.00
H6     H     0.28320   0.55689   0.66754   0.00000  Uiso   1.00
H7     H     0.26992   0.53941   0.27129   0.00000  Uiso   1.00
H8     H     0.28648   0.55668   0.75522   0.00000  Uiso   1.00
H9     H     0.67813   0.76089   0.11061   0.00000  Uiso   1.00
H10    H     0.25185   0.30072   0.89311   0.00000  Uiso   1.00
H11    H     0.68389   0.76391   0.02558   0.00000  Uiso   1.00
H12    H     0.24541   0.29769   0.97815   0.00000  Uiso   1.00
H13    H     0.74539   0.72070   0.95302   0.00000  Uiso   1.00
H14    H     0.29980   0.25734   0.04500   0.00000  Uiso   1.00
H15    H     0.61043   0.11141   0.49320   0.00000  Uiso   1.00
H16    H     0.36591   0.92142   0.50814   0.00000  Uiso   1.00
C41    C     0.57032   0.87516   0.49576   0.00000  Uiso   1.00
C42    C     0.40602   0.15768   0.50560   0.00000  Uiso   1.00
C43    C     0.47142   0.95226   0.50173   0.00000  Uiso   1.00
C44    C     0.50492   0.08058   0.49962   0.00000  Uiso   1.00
H17    H     0.30107   0.12509   0.51202   0.00000  Uiso   1.00
H18    H     0.67527   0.90775   0.48936   0.00000  Uiso   1.00
H19    H     0.10531   0.44509   0.46956   0.00000  Uiso   1.00
H20    H     0.87102   0.58775   0.53181   0.00000  Uiso   1.00
N3     N     0.83824   0.46800   0.47884   0.00000  Uiso   1.00
N4     N     0.13810   0.56484   0.52252   0.00000  Uiso   1.00
C45    C     0.91492   0.52553   0.50447   0.00000  Uiso   1.00
C46    C     0.06141   0.50731   0.49689   0.00000  Uiso   1.00
H21    H     0.09053   0.62271   0.54777   0.00000  Uiso   1.00
H22    H     0.88581   0.41015   0.45358   0.00000  Uiso   1.00
N5     N     0.77656   0.73501   0.86128   0.00000  Uiso   1.00
C47    C     0.89057   0.67786   0.84437   0.00000  Uiso   1.00
O13    O     0.88794   0.56947   0.84308   0.00000  Uiso   1.00
C48    C     0.02062   0.74642   0.82725   0.00000  Uiso   1.00
H23    H     0.79398   0.81848   0.87478   0.00000  Uiso   1.00
H24    H     0.00570   0.84348   0.82946   0.00000  Uiso   1.00
H25    H     0.05841   0.72302   0.78868   0.00000  Uiso   1.00
H26    H     0.09666   0.72298   0.85038   0.00000  Uiso   1.00
N6     N     0.28463   0.23161   0.13581   0.00000  Uiso   1.00
C49    C     0.36787   0.14254   0.14077   0.00000  Uiso   1.00
O14    O     0.49025   0.16224   0.13483   0.00000  Uiso   1.00
C50    C     0.31130   0.01954   0.15350   0.00000  Uiso   1.00
H27    H     0.19257   0.20338   0.12681   0.00000  Uiso   1.00
H28    H     0.19892   0.01682   0.15903   0.00000  Uiso   1.00
H29    H     0.34482   0.99021   0.18775   0.00000  Uiso   1.00
H30    H     0.34932   0.95835   0.12347   0.00000  Uiso   1.00
