# Generated by REPEAT Assigner based on pymatgen
data_DB0-m2_o22_o22_f0_nbo.sym.58
_audit_creation_date              2022-05-24
_audit_creation_method            REPEAT_Assigner
_cell_length_a                    18.465652
_cell_length_b                    18.490627
_cell_length_c                    18.469980
_cell_angle_alpha                 109.518923
_cell_angle_beta                  109.464321
_cell_angle_gamma                 109.435330
_cell_volume                      4854.385930
_symmetry_space_group_name_H-M    P1
_symmetry_Int_Tables_number       1
loop_
    _symmetry_equiv_pos_site_id
    _symmetry_equiv_pos_as_xyz
    1  x,y,z
loop_
    _atom_site_type_symbol
    _atom_site_label
    _atom_site_fract_x
    _atom_site_fract_y
    _atom_site_fract_z
    _atom_type_partial_charge
    O   O1   0.592005  0.554482  0.644510  -0.617465
    O   O2   0.407532  0.443707  0.354834  -0.616663
    O   O3   0.596151  0.450076  0.536993  -0.602380
    O   O4   0.403386  0.548113  0.462351  -0.601230
    C   C1   0.624853  0.503836  0.620270  0.577367
    C   C2   0.374683  0.494353  0.379074  0.576491
    O   O5   0.409608  0.464756  0.555806  -0.609725
    O   O6   0.589929  0.533434  0.443537  -0.610618
    O   O7   0.414159  0.355500  0.453808  -0.636771
    O   O8   0.585378  0.642689  0.545536  -0.636900
    C   C3   0.384066  0.381274  0.506875  0.686928
    C   C4   0.615471  0.616915  0.492469  0.688407
    Cu  Cu1  0.500331  0.562436  0.561715  0.982282
    Cu  Cu2  0.499206  0.435753  0.437629  0.982864
    H   H1   0.139369  0.388117  0.860614  0.030908
    H   H2   0.860169  0.610074  0.138725  0.031300
    C   C5   0.076179  0.347556  0.796444  -0.091032
    C   C6   0.923357  0.650635  0.202897  -0.090717
    C   C7   0.912909  0.260018  0.723358  -0.036155
    C   C8   0.086628  0.738171  0.275987  -0.034492
    H   H3   0.140121  0.271290  0.771018  0.032874
    H   H4   0.859416  0.726902  0.228321  0.033095
    C   C9   0.997963  0.187067  0.690905  0.277747
    C   C10  0.001574  0.811123  0.308438  0.285051
    H   H5   0.088087  0.289061  0.681815  0.030607
    H   H6   0.911445  0.709128  0.317523  0.030698
    C   C11  0.081398  0.274594  0.733613  -0.093448
    C   C12  0.918137  0.723597  0.265727  -0.095483
    C   C13  0.322256  0.345421  0.601035  0.269719
    C   C14  0.677279  0.652769  0.398308  0.275664
    H   H7   0.307511  0.400247  0.611440  -0.044086
    H   H8   0.692023  0.597943  0.387901  -0.045068
    C   C15  0.246552  0.274043  0.596741  -0.275328
    C   C16  0.752983  0.724147  0.402601  -0.273818
    H   H9   0.268092  0.255113  0.647137  0.041452
    H   H10  0.731443  0.743077  0.352206  0.041076
    H   H11  0.203154  0.300260  0.608576  0.046643
    H   H12  0.796380  0.697929  0.390765  0.046054
    H   H13  0.217675  0.349809  0.461638  0.008837
    H   H14  0.781861  0.648379  0.537702  0.008834
    H   H15  0.107153  0.239707  0.450374  0.033245
    H   H16  0.892383  0.758481  0.548967  0.033242
    C   C17  0.225218  0.290318  0.442241  0.029912
    C   C18  0.774319  0.707870  0.557101  0.029640
    C   C19  0.320969  0.227944  0.480466  0.011894
    C   C20  0.678569  0.770245  0.518879  0.012149
    C   C21  0.315274  0.312140  0.509282  -0.117653
    C   C22  0.684262  0.686050  0.490061  -0.120079
    H   H17  0.307511  0.200761  0.411109  0.037277
    H   H18  0.692027  0.797429  0.588236  0.037334
    H   H19  0.387942  0.241582  0.523294  -0.012865
    H   H20  0.611595  0.756609  0.476052  -0.012977
    C   C23  0.192303  0.192414  0.505006  0.224494
    C   C24  0.807233  0.805775  0.494337  0.221493
    C   C25  0.152019  0.216609  0.437041  -0.096995
    C   C26  0.847518  0.781579  0.562301  -0.096872
    C   C27  0.251252  0.158815  0.483522  -0.093477
    C   C28  0.748285  0.839375  0.515823  -0.093441
    H   H21  0.283446  0.143198  0.533813  0.015864
    H   H22  0.716090  0.854993  0.465532  0.015952
    H   H23  0.210290  0.097327  0.417890  0.023602
    H   H24  0.789248  0.900863  0.581455  0.023686
    H   H25  0.219515  0.268889  0.375939  0.015304
    H   H26  0.780023  0.729299  0.623403  0.015793
    H   H27  0.114209  0.158243  0.369342  0.021232
    H   H28  0.885327  0.839945  0.630000  0.021134
    C   C29  0.768695  0.599190  0.760841  0.060012
    C   C30  0.230842  0.398999  0.238502  0.063591
    H   H29  0.740849  0.638936  0.787719  0.001899
    H   H30  0.258690  0.359254  0.211624  0.000575
    H   H31  0.803411  0.629962  0.731301  -0.005112
    H   H32  0.196125  0.368227  0.268040  -0.005580
    C   C31  0.834126  0.598583  0.836314  -0.168325
    C   C32  0.165414  0.399607  0.163028  -0.169548
    H   H33  0.902151  0.639870  0.851115  0.043816
    H   H34  0.097388  0.358318  0.148224  0.043597
    H   H35  0.828668  0.626996  0.896180  0.028160
    H   H36  0.170875  0.371197  0.103163  0.028779
    H   H37  0.632912  0.500518  0.769978  -0.021777
    H   H38  0.366627  0.497675  0.229368  -0.020038
    H   H39  0.724477  0.476817  0.861695  0.071073
    H   H40  0.275064  0.521378  0.137653  0.070013
    C   C33  0.655132  0.460241  0.733484  0.296828
    C   C34  0.344407  0.537951  0.265862  0.289381
    C   C35  0.735192  0.454417  0.649925  -0.043859
    C   C36  0.264344  0.543771  0.349419  -0.044698
    C   C37  0.695614  0.504703  0.690525  0.011697
    C   C38  0.303924  0.493486  0.308819  0.011571
    H   H41  0.684428  0.383269  0.604526  0.017009
    H   H42  0.315107  0.614919  0.394818  0.017528
    H   H43  0.759713  0.482100  0.612632  0.034888
    H   H44  0.239823  0.516087  0.386711  0.034417
    C   C39  0.813685  0.503989  0.809728  0.293810
    C   C40  0.185853  0.494201  0.189616  0.291726
    C   C41  0.723219  0.451325  0.797462  -0.324237
    C   C42  0.276320  0.546868  0.201885  -0.318377
    C   C43  0.812157  0.462841  0.722843  -0.069322
    C   C44  0.187379  0.535346  0.276500  -0.066404
    H   H45  0.875101  0.505275  0.728753  0.027777
    H   H46  0.124435  0.492911  0.270588  0.027421
    H   H47  0.804404  0.396287  0.706153  0.014822
    H   H48  0.195131  0.601900  0.293191  0.013908
    H   H49  0.597625  0.393447  0.681701  -0.019459
    H   H50  0.401913  0.604744  0.317646  -0.018256
    H   H51  0.703739  0.380291  0.770182  0.056334
    H   H52  0.295799  0.617902  0.229167  0.055429
    H   H53  0.856708  0.222725  0.729889  0.018410
    H   H54  0.142830  0.775465  0.269457  0.018227
    H   H55  0.855884  0.131223  0.612703  0.009760
    H   H56  0.143652  0.866964  0.386644  0.010030
    H   H57  0.922938  0.222618  0.605275  0.021976
    H   H58  0.076594  0.775568  0.394066  0.021807
    H   H59  0.902364  0.309206  0.706449  0.000668
    H   H60  0.097172  0.688982  0.292894  0.000356
    H   H61  0.066499  0.389706  0.767561  0.026047
    H   H62  0.933036  0.608483  0.231778  0.026033
    C   C45  0.998866  0.306903  0.809895  0.264623
    C   C46  0.000672  0.691288  0.189448  0.261844
    O   O9   0.055083  0.090934  0.645405  -0.597745
    O   O10  0.944454  0.907256  0.353938  -0.599235
    O   O11  0.942469  0.086342  0.537404  -0.617875
    O   O12  0.057067  0.911847  0.461939  -0.617881
    C   C47  0.998022  0.117186  0.620812  0.525074
    C   C48  0.001514  0.881003  0.378530  0.523138
    O   O13  0.145453  0.093758  0.558635  -0.602585
    O   O14  0.854084  0.904432  0.440707  -0.602452
    O   O15  0.038157  0.089468  0.445652  -0.640834
    O   O16  0.961379  0.908721  0.553690  -0.640800
    C   C49  0.121332  0.121516  0.502945  0.656992
    C   C50  0.878204  0.876674  0.496398  0.658584
    Cu  Cu3  0.061842  0.998635  0.562012  0.986875
    Cu  Cu4  0.937695  0.999555  0.437331  0.987540
    O   O17  0.053029  0.644078  0.088778  -0.631993
    O   O18  0.946510  0.354113  0.910566  -0.631238
    O   O19  0.947686  0.537583  0.092858  -0.607017
    O   O20  0.051852  0.460608  0.906485  -0.606390
    C   C51  0.000251  0.620519  0.119752  0.557407
    C   C52  0.999288  0.377672  0.879591  0.555198
    O   O21  0.966286  0.552188  0.906401  -0.615654
    O   O22  0.033253  0.446003  0.092943  -0.615263
    O   O23  0.856124  0.451019  0.910651  -0.606124
    O   O24  0.143415  0.547171  0.088693  -0.606779
    C   C53  0.882485  0.502602  0.879542  0.600165
    C   C54  0.117054  0.495588  0.119802  0.600362
    Cu  Cu5  0.063574  0.560647  0.000306  0.993960
    Cu  Cu6  0.935965  0.437544  0.999038  0.993939
    C   C55  0.917521  0.196381  0.650334  -0.059820
    C   C56  0.082015  0.801806  0.349010  -0.061395
    C   C57  0.995701  0.163272  0.761558  -0.090189
    C   C58  0.003841  0.834920  0.237788  -0.092240
    H   H63  0.050175  0.149982  0.788070  0.031784
    H   H64  0.949368  0.848212  0.211275  0.032805
    H   H65  0.931317  0.103343  0.732512  0.027065
    H   H66  0.068225  0.894848  0.266836  0.027040
    C   C59  0.006725  0.239798  0.837282  -0.109232
    C   C60  0.992816  0.758395  0.162063  -0.111688
    H   H67  0.954682  0.213449  0.853509  0.035386
    H   H68  0.044861  0.784744  0.145837  0.036480
    H   H69  0.072812  0.271890  0.896371  0.032741
    H   H70  0.926730  0.726305  0.102974  0.033550
    C   C61  0.415803  0.386393  0.680905  0.487959
    C   C62  0.432064  0.465890  0.758110  -0.342080
    C   C63  0.434110  0.325701  0.714281  -0.504885
    H   H71  0.467183  0.411516  0.663948  -0.112937
    H   H72  0.378246  0.446072  0.773949  0.046626
    H   H73  0.434955  0.518637  0.741248  0.045912
    H   H74  0.496398  0.492524  0.817060  0.079485
    H   H75  0.404493  0.318363  0.756441  0.112008
    H   H76  0.506740  0.356654  0.756482  0.077518
    H   H77  0.410432  0.260242  0.659475  0.123976
    C   C64  0.583732  0.611799  0.318439  0.482451
    C   C65  0.565425  0.672491  0.285064  -0.504399
    C   C66  0.567469  0.532301  0.241233  -0.341992
    H   H78  0.532352  0.586676  0.335398  -0.110989
    H   H79  0.595041  0.679829  0.242904  0.111876
    H   H80  0.589103  0.737950  0.339871  0.123988
    H   H81  0.492794  0.641539  0.242864  0.078052
    H   H82  0.621287  0.552119  0.225395  0.046685
    H   H83  0.503135  0.505669  0.182283  0.079773
    H   H84  0.564576  0.479553  0.258094  0.046052
