data_DB0-m3_o12_o29_f0_pcu.sym.11_repeat
_audit_creation_date              2024-02-23
_audit_creation_method            'Materials Studio'
_symmetry_space_group_name_H-M    'P1'
_symmetry_Int_Tables_number       1
_symmetry_cell_setting            triclinic
loop_
_symmetry_equiv_pos_as_xyz
  x,y,z
_cell_length_a                    10.0018
_cell_length_b                    11.2495
_cell_length_c                    27.6600
_cell_angle_alpha                 89.9794
_cell_angle_beta                  80.7871
_cell_angle_gamma                 92.4455
loop_
_atom_site_label
_atom_site_type_symbol
_atom_site_fract_x
_atom_site_fract_y
_atom_site_fract_z
_atom_site_U_iso_or_equiv
_atom_site_adp_type
_atom_site_occupancy
O1     O     0.42886   0.69019   0.50439   0.00000  Uiso   1.00
O2     O     0.57840   0.30879   0.49524   0.00000  Uiso   1.00
O3     O     0.65841   0.65903   0.49022   0.00000  Uiso   1.00
O4     O     0.34884   0.33994   0.50929   0.00000  Uiso   1.00
C1     C     0.55590   0.72946   0.49654   0.00000  Uiso   1.00
C2     C     0.45136   0.26951   0.50302   0.00000  Uiso   1.00
O5     O     0.39149   0.51499   0.57871   0.00000  Uiso   1.00
O6     O     0.61573   0.48380   0.42086   0.00000  Uiso   1.00
O7     O     0.62092   0.48394   0.56464   0.00000  Uiso   1.00
O8     O     0.38638   0.51521   0.43492   0.00000  Uiso   1.00
C3     C     0.50679   0.49951   0.59429   0.00000  Uiso   1.00
C4     C     0.50046   0.49946   0.40528   0.00000  Uiso   1.00
Zn1    Zn    0.35235   0.52017   0.50909   0.00000  Uiso   1.00
Zn2    Zn    0.65491   0.47880   0.49048   0.00000  Uiso   1.00
C5     C     0.46679   0.59897   0.82535   0.00000  Uiso   1.00
C6     C     0.52141   0.39584   0.17530   0.00000  Uiso   1.00
O9     O     0.42784   0.69280   0.80183   0.00000  Uiso   1.00
O10    O     0.54402   0.29728   0.19969   0.00000  Uiso   1.00
N1     N     0.51011   0.50327   0.79904   0.00000  Uiso   1.00
N2     N     0.49648   0.49685   0.20066   0.00000  Uiso   1.00
C7     C     0.55301   0.40853   0.82096   0.00000  Uiso   1.00
C8     C     0.47158   0.59723   0.17789   0.00000  Uiso   1.00
C9     C     0.62885   0.49116   0.71519   0.00000  Uiso   1.00
C10    C     0.38072   0.52005   0.28428   0.00000  Uiso   1.00
C11    C     0.62819   0.49000   0.66536   0.00000  Uiso   1.00
C12    C     0.38141   0.52044   0.33411   0.00000  Uiso   1.00
C13    C     0.38847   0.51072   0.67964   0.00000  Uiso   1.00
C14    C     0.61612   0.47710   0.32005   0.00000  Uiso   1.00
C15    C     0.38938   0.51154   0.72943   0.00000  Uiso   1.00
C16    C     0.61491   0.47611   0.27028   0.00000  Uiso   1.00
C17    C     0.50951   0.50206   0.74744   0.00000  Uiso   1.00
C18    C     0.49732   0.49758   0.25219   0.00000  Uiso   1.00
C19    C     0.50769   0.50380   0.89891   0.00000  Uiso   1.00
C20    C     0.49797   0.49667   0.10089   0.00000  Uiso   1.00
C21    C     0.46511   0.60107   0.87585   0.00000  Uiso   1.00
C22    C     0.52201   0.39381   0.12488   0.00000  Uiso   1.00
C23    C     0.42006   0.69793   0.90383   0.00000  Uiso   1.00
C24    C     0.54435   0.29057   0.09805   0.00000  Uiso   1.00
C25    C     0.55228   0.40766   0.87094   0.00000  Uiso   1.00
C26    C     0.47206   0.59839   0.12791   0.00000  Uiso   1.00
C27    C     0.50792   0.49997   0.64727   0.00000  Uiso   1.00
C28    C     0.49925   0.49905   0.35230   0.00000  Uiso   1.00
H1     H     0.29292   0.51812   0.66661   0.00000  Uiso   1.00
H2     H     0.70966   0.46018   0.33318   0.00000  Uiso   1.00
H3     H     0.29505   0.51870   0.75431   0.00000  Uiso   1.00
H4     H     0.70707   0.45947   0.24543   0.00000  Uiso   1.00
C29    C     0.47025   0.60150   0.02737   0.00000  Uiso   1.00
C30    C     0.54380   0.40148   0.97203   0.00000  Uiso   1.00
C31    C     0.53256   0.39719   0.02317   0.00000  Uiso   1.00
C32    C     0.46477   0.60070   0.97706   0.00000  Uiso   1.00
C33    C     0.49999   0.49835   0.05038   0.00000  Uiso   1.00
C34    C     0.50567   0.50211   0.94943   0.00000  Uiso   1.00
C35    C     0.44857   0.70390   0.05531   0.00000  Uiso   1.00
C36    C     0.59346   0.30756   0.94265   0.00000  Uiso   1.00
C37    C     0.44922   0.70195   0.10481   0.00000  Uiso   1.00
C38    C     0.59696   0.31073   0.89293   0.00000  Uiso   1.00
O11    O     0.44940   0.69736   0.20389   0.00000  Uiso   1.00
O12    O     0.59310   0.31307   0.79414   0.00000  Uiso   1.00
C39    C     0.41777   0.69619   0.95364   0.00000  Uiso   1.00
C40    C     0.55123   0.29317   0.04803   0.00000  Uiso   1.00
H5     H     0.28864   0.53787   0.35843   0.00000  Uiso   1.00
H6     H     0.72307   0.48189   0.64093   0.00000  Uiso   1.00
H7     H     0.28787   0.53624   0.27049   0.00000  Uiso   1.00
H8     H     0.72375   0.48470   0.72882   0.00000  Uiso   1.00
H9     H     0.43193   0.78372   0.12487   0.00000  Uiso   1.00
H10    H     0.63586   0.23543   0.87176   0.00000  Uiso   1.00
H11    H     0.43523   0.78971   0.04012   0.00000  Uiso   1.00
H12    H     0.63505   0.23025   0.95636   0.00000  Uiso   1.00
H13    H     0.37307   0.77128   0.97294   0.00000  Uiso   1.00
H14    H     0.56733   0.20899   0.03019   0.00000  Uiso   1.00
H15    H     0.62586   0.09450   0.49227   0.00000  Uiso   1.00
H16    H     0.38141   0.90447   0.50732   0.00000  Uiso   1.00
C41    C     0.58579   0.85823   0.49470   0.00000  Uiso   1.00
C42    C     0.42147   0.14074   0.50486   0.00000  Uiso   1.00
C43    C     0.48689   0.93532   0.50081   0.00000  Uiso   1.00
C44    C     0.52037   0.06365   0.49876   0.00000  Uiso   1.00
H17    H     0.31654   0.10813   0.51131   0.00000  Uiso   1.00
H18    H     0.69072   0.89084   0.48823   0.00000  Uiso   1.00
H19    H     0.12066   0.42794   0.46871   0.00000  Uiso   1.00
H20    H     0.88660   0.57104   0.53086   0.00000  Uiso   1.00
N3     N     0.85365   0.45102   0.47801   0.00000  Uiso   1.00
N4     N     0.15361   0.54795   0.52156   0.00000  Uiso   1.00
C45    C     0.93041   0.50865   0.50358   0.00000  Uiso   1.00
C46    C     0.07685   0.49033   0.49599   0.00000  Uiso   1.00
H21    H     0.10613   0.60597   0.54676   0.00000  Uiso   1.00
H22    H     0.90113   0.39299   0.45281   0.00000  Uiso   1.00
O13    O     0.37160   0.79500   0.88353   0.00000  Uiso   1.00
C47    C     0.47748   0.88154   0.87873   0.00000  Uiso   1.00
H23    H     0.57629   0.83881   0.87599   0.00000  Uiso   1.00
H24    H     0.46389   0.94148   0.91081   0.00000  Uiso   1.00
H25    H     0.47687   0.93444   0.84493   0.00000  Uiso   1.00
O14    O     0.56419   0.18487   0.11985   0.00000  Uiso   1.00
C48    C     0.43900   0.12203   0.12544   0.00000  Uiso   1.00
H26    H     0.43759   0.05864   0.09480   0.00000  Uiso   1.00
H27    H     0.35581   0.18435   0.12598   0.00000  Uiso   1.00
H28    H     0.42326   0.07193   0.16057   0.00000  Uiso   1.00
