# Generated by REPEAT Assigner based on pymatgen
data_DB0-m2_o20_o24_f0_nbo.sym.34_sqe
_audit_creation_date              2022-05-24
_audit_creation_method            REPEAT_Assigner
_cell_length_a                    21.386022
_cell_length_b                    28.867835
_cell_length_c                    28.871525
_cell_angle_alpha                 90.000000
_cell_angle_beta                  90.000000
_cell_angle_gamma                 90.000000
_cell_volume                      17824.360085
_symmetry_space_group_name_H-M    P1
_symmetry_Int_Tables_number       1
loop_
    _symmetry_equiv_pos_site_id
    _symmetry_equiv_pos_as_xyz
    1  x,y,z
loop_
    _atom_site_type_symbol
    _atom_site_label
    _atom_site_fract_x
    _atom_site_fract_y
    _atom_site_fract_z
    _atom_type_partial_charge
    O   O1    0.997535  0.959083  0.072079  -0.605721
    O   O2    0.997392  0.961501  0.937447  -0.600372
    O   O3    0.502885  0.462981  0.574707  -0.589501
    O   O4    0.502676  0.458505  0.440125  -0.610035
    O   O5    0.002815  0.038925  0.073917  -0.606786
    O   O6    0.002479  0.041356  0.939346  -0.605416
    O   O7    0.497528  0.542907  0.571967  -0.603348
    O   O8    0.497205  0.538231  0.437457  -0.606636
    C   C1    0.000178  0.998516  0.094538  0.899924
    C   C2    0.999943  0.001926  0.916857  0.891446
    C   C3    0.500253  0.503664  0.594846  0.919324
    C   C4    0.499897  0.497658  0.417230  0.859284
    O   O9    0.090890  0.960649  0.002806  -0.591004
    O   O10   0.909126  0.960007  0.002900  -0.564933
    O   O11   0.591122  0.460610  0.509115  -0.578994
    O   O12   0.409351  0.460971  0.509257  -0.599576
    O   O13   0.091007  0.040426  0.008394  -0.560219
    O   O14   0.909205  0.039774  0.008637  -0.580190
    O   O15   0.590818  0.540454  0.506299  -0.586034
    O   O16   0.409010  0.540816  0.506526  -0.562494
    C   C5    0.119992  0.000521  0.005469  0.432984
    C   C6    0.880119  0.999891  0.005754  0.425429
    C   C7    0.619959  0.500503  0.505685  0.446918
    C   C8    0.380186  0.500753  0.505919  0.444167
    Cu  Cu1   0.000044  0.954063  0.004642  1.031535
    Cu  Cu2   0.500218  0.454506  0.507635  1.037675
    Cu  Cu3   0.000066  0.046366  0.006755  1.007882
    Cu  Cu4   0.499926  0.546806  0.504484  1.012492
    C   C9    0.230629  0.998275  0.046829  -0.287541
    C   C10   0.771093  0.037319  0.983132  -0.300785
    C   C11   0.769549  0.998768  0.047344  -0.282833
    C   C12   0.229013  0.038390  0.983600  -0.317150
    C   C13   0.729685  0.486329  0.545867  -0.260984
    C   C14   0.270020  0.541791  0.495176  -0.287089
    C   C15   0.270611  0.487571  0.546808  -0.261103
    C   C16   0.729990  0.542209  0.496052  -0.287580
    C   C17   0.271624  0.036187  0.025949  0.076405
    C   C18   0.728564  0.036180  0.025572  0.058665
    C   C19   0.771733  0.528040  0.536513  0.036114
    C   C20   0.228439  0.528903  0.536151  0.035257
    H   H1    0.290854  0.066457  0.044811  0.052639
    H   H2    0.709415  0.066925  0.043701  0.057141
    H   H3    0.790963  0.551784  0.563137  0.060739
    H   H4    0.209239  0.553490  0.562005  0.061278
    H   H5    0.213805  0.996517  0.083113  0.112251
    H   H6    0.789222  0.068854  0.965798  0.116757
    H   H7    0.786367  0.997879  0.083661  0.113115
    H   H8    0.210926  0.070342  0.967020  0.120644
    H   H9    0.712107  0.474925  0.580152  0.108633
    H   H10   0.286982  0.577061  0.486605  0.114297
    H   H11   0.288276  0.477305  0.581426  0.108911
    H   H12   0.712943  0.577724  0.488658  0.116420
    C   C21   0.310430  0.999351  0.002020  0.077023
    C   C22   0.689669  0.998793  0.002592  0.090162
    C   C23   0.810415  0.498665  0.503771  0.098715
    C   C24   0.189725  0.498424  0.504450  0.090802
    C   C25   0.269811  0.962019  0.022486  0.199008
    C   C26   0.731833  0.999805  0.960864  0.218575
    C   C27   0.730286  0.961948  0.023930  0.190549
    C   C28   0.268178  0.001404  0.960377  0.223903
    C   C29   0.768787  0.457661  0.512934  0.196897
    C   C30   0.230972  0.511003  0.464098  0.201602
    C   C31   0.231478  0.457789  0.514886  0.208101
    C   C32   0.769036  0.512515  0.463921  0.193614
    C   C33   0.227481  0.963412  0.980412  -0.352212
    C   C34   0.772532  0.962295  0.981794  -0.359629
    C   C35   0.727385  0.470958  0.472447  -0.357828
    C   C36   0.272763  0.469815  0.473927  -0.355205
    C   C37   0.189374  0.000377  0.004405  0.498711
    C   C38   0.810729  0.999809  0.004838  0.500270
    C   C39   0.689349  0.500393  0.505278  0.485819
    C   C40   0.310799  0.500370  0.505718  0.482703
    H   H13   0.208910  0.933052  0.961328  0.139012
    H   H14   0.791057  0.931452  0.963476  0.140863
    H   H15   0.708548  0.447190  0.445706  0.138462
    H   H16   0.291648  0.445241  0.447940  0.136009
    C   C41   0.000151  0.997424  0.144211  -0.310041
    C   C42   0.999982  0.002986  0.867184  -0.305529
    C   C43   0.500263  0.505145  0.644502  -0.341107
    C   C44   0.499898  0.496178  0.367546  -0.269195
    C   C45   0.000105  0.996692  0.185937  0.164663
    C   C46   0.000033  0.003470  0.825455  0.154991
    C   C47   0.500246  0.505766  0.686227  0.179566
    C   C48   0.499917  0.495490  0.325807  0.130135
    C   C49   0.000042  0.996047  0.234836  -0.071507
    C   C50   0.000090  0.003581  0.776551  -0.047300
    C   C51   0.500213  0.505878  0.735127  -0.073371
    C   C52   0.499939  0.495234  0.276884  -0.043292
    C   C53   0.999993  0.995672  0.276569  0.049480
    C   C54   0.000115  0.003301  0.734815  0.014074
    C   C55   0.500198  0.505500  0.776859  0.038897
    C   C56   0.499937  0.495379  0.235137  0.021343
    C   C57   0.999948  0.995440  0.325469  0.017731
    C   C58   0.000119  0.002563  0.685915  0.077042
    C   C59   0.500209  0.504568  0.825751  0.043323
    C   C60   0.499917  0.495851  0.186216  0.051763
    C   C61   0.999933  0.995420  0.367202  -0.125350
    C   C62   0.000112  0.001616  0.644191  -0.208354
    C   C63   0.500257  0.503437  0.867468  -0.167086
    C   C64   0.499882  0.496394  0.144475  -0.168631
    O   O17   0.497753  0.066349  0.960821  -0.596389
    O   O18   0.502764  0.067886  0.040777  -0.591449
    O   O19   0.997604  0.566850  0.466503  -0.594001
    O   O20   0.002686  0.564087  0.546425  -0.592685
    C   C65   0.500323  0.088633  0.000393  0.873149
    C   C66   0.000189  0.586983  0.507198  0.863391
    O   O21   0.409141  0.000929  0.961870  -0.495030
    O   O22   0.591005  0.002193  0.042298  -0.553694
    O   O23   0.590899  0.000510  0.962521  -0.522314
    O   O24   0.409203  0.002346  0.041651  -0.574864
    O   O25   0.909181  0.501388  0.463940  -0.496546
    O   O26   0.090994  0.498440  0.544420  -0.561646
    O   O27   0.090918  0.501213  0.464671  -0.521777
    O   O28   0.909166  0.498552  0.543687  -0.586035
    C   C67   0.380062  0.999464  0.001780  0.457333
    C   C68   0.620045  0.999056  0.002420  0.455431
    C   C69   0.880044  0.497971  0.503693  0.469629
    C   C70   0.120086  0.497778  0.504425  0.468193
    Cu  Cu5   0.500048  0.998889  0.955955  0.985712
    Cu  Cu6   0.500066  0.000688  0.048284  0.987827
    Cu  Cu7   0.000088  0.499766  0.457982  0.992217
    Cu  Cu8   0.000038  0.496567  0.550266  1.004764
    O   O29   0.497187  0.931698  0.963561  -0.627374
    O   O30   0.502532  0.933250  0.043331  -0.580805
    O   O31   0.997410  0.432249  0.461928  -0.654339
    O   O32   0.002567  0.429504  0.541655  -0.616828
    C   C71   0.499828  0.910929  0.003876  0.905867
    C   C72   0.000016  0.409332  0.501068  0.951132
    O   O33   0.054007  0.065574  0.505669  -0.564518
    O   O34   0.946061  0.065582  0.505725  -0.564438
    O   O35   0.553991  0.567200  0.005746  -0.569950
    O   O36   0.446035  0.567041  0.009599  -0.570284
    C   C73   0.000033  0.087006  0.502946  0.786616
    C   C74   0.499986  0.588639  0.008148  0.801346
    O   O37   0.053827  0.998201  0.438343  -0.581298
    O   O38   0.946090  0.001674  0.573004  -0.563885
    O   O39   0.946114  0.998225  0.438384  -0.581255
    O   O40   0.054055  0.001682  0.572962  -0.564105
    O   O41   0.554323  0.503336  0.938615  -0.568411
    O   O42   0.445837  0.499796  0.073384  -0.565533
    O   O43   0.446494  0.503202  0.938761  -0.586219
    O   O44   0.553644  0.499786  0.073235  -0.583601
    C   C75   0.999955  0.995616  0.416886  0.712087
    C   C76   0.000087  0.000136  0.594525  0.778674
    C   C77   0.500368  0.501769  0.917126  0.753329
    C   C78   0.499783  0.497100  0.094774  0.745677
    Cu  Cu9   0.062361  0.998205  0.505688  0.999414
    Cu  Cu10  0.937681  0.998215  0.505736  0.999501
    Cu  Cu11  0.562400  0.499835  0.005897  1.004600
    Cu  Cu12  0.437756  0.499762  0.006010  1.004623
    O   O45   0.053859  0.930938  0.509162  -0.581219
    O   O46   0.946162  0.930945  0.509187  -0.581439
    O   O47   0.554001  0.432572  0.002211  -0.583938
    O   O48   0.446308  0.432408  0.006202  -0.583903
    C   C79   0.000009  0.909361  0.507640  0.715808
    C   C80   0.500171  0.410939  0.003573  0.717485
    C   C81   0.500364  0.138301  0.999575  -0.297283
    C   C82   0.000247  0.636650  0.508784  -0.286198
    C   C83   0.500371  0.180031  0.999345  0.156595
    C   C84   0.000250  0.678380  0.509671  0.150448
    C   C85   0.500350  0.228928  0.999570  -0.068833
    C   C86   0.000199  0.727289  0.510217  -0.064542
    C   C87   0.000136  0.769033  0.510257  0.048564
    C   C88   0.500312  0.270659  0.000138  0.049494
    C   C89   0.000065  0.817946  0.509807  0.018257
    C   C90   0.500260  0.319550  0.001153  0.017409
    C   C91   0.000020  0.859681  0.509021  -0.127495
    C   C92   0.500217  0.361271  0.002205  -0.128169
    C   C93   0.499748  0.861267  0.004928  -0.274348
    C   C94   0.000004  0.359669  0.499625  -0.273061
    C   C95   0.499722  0.819552  0.005901  0.115641
    C   C96   0.000002  0.317940  0.499193  0.113531
    C   C97   0.499742  0.770668  0.006982  -0.041917
    C   C98   0.000003  0.269038  0.499385  -0.048137
    C   C99   0.000005  0.227304  0.499968  0.010268
    C   C100  0.499772  0.728941  0.007732  0.003901
    C   C101  0.000011  0.178409  0.500958  0.081050
    C   C102  0.499819  0.680047  0.008311  0.090109
    C   C103  0.000025  0.136683  0.501892  -0.211566
    C   C104  0.499885  0.638317  0.008465  -0.225663
    C   C105  0.290898  0.917994  0.044520  0.583479
    O   O49   0.252287  0.891271  0.060337  -0.514312
    O   O50   0.354108  0.906916  0.046639  -0.568475
    H   H17   0.359936  0.875898  0.062376  0.408003
    C   C106  0.711956  0.000117  0.911416  0.578112
    O   O51   0.724443  0.033181  0.886846  -0.520819
    O   O52   0.680053  0.962348  0.893066  -0.594198
    H   H18   0.670375  0.968005  0.859230  0.426259
    C   C107  0.709202  0.918437  0.046966  0.581479
    O   O53   0.747772  0.892267  0.063742  -0.513932
    O   O54   0.646058  0.907110  0.048762  -0.564762
    H   H19   0.640227  0.876421  0.065125  0.408329
    C   C108  0.287941  0.002971  0.910939  0.567335
    O   O55   0.275466  0.036670  0.887244  -0.516307
    O   O56   0.319787  0.965677  0.891600  -0.591453
    H   H20   0.329518  0.972238  0.857939  0.425894
    C   C109  0.788831  0.409208  0.522785  0.586810
    O   O57   0.749516  0.379373  0.529428  -0.510451
    O   O58   0.851946  0.397820  0.524506  -0.579026
    H   H21   0.857055  0.363714  0.531631  0.410022
    C   C110  0.210245  0.524305  0.416661  0.583831
    O   O59   0.220631  0.563184  0.402110  -0.520396
    O   O60   0.180238  0.492066  0.388587  -0.590866
    H   H22   0.169725  0.506500  0.357616  0.423518
    C   C111  0.211545  0.409657  0.526325  0.573153
    O   O61   0.250926  0.380124  0.534025  -0.507350
    O   O62   0.148456  0.398207  0.528242  -0.575148
    H   H23   0.143415  0.364333  0.536424  0.411715
    C   C112  0.789669  0.527477  0.416963  0.582008
    O   O63   0.779015  0.566784  0.403730  -0.519530
    O   O64   0.819828  0.496306  0.387798  -0.587789
    H   H24   0.830183  0.511813  0.357324  0.422608
