# Generated by REPEAT Assigner based on pymatgen
data_DB0-m29_o99_o470_f0_pts.sym.70
_audit_creation_date              2022-05-24
_audit_creation_method            REPEAT_Assigner
_cell_length_a                    15.806111
_cell_length_b                    12.295597
_cell_length_c                    13.592883
_cell_angle_alpha                 99.958612
_cell_angle_beta                  97.575005
_cell_angle_gamma                 99.227305
_cell_volume                      2533.420584
_symmetry_space_group_name_H-M    P1
_symmetry_Int_Tables_number       1
loop_
    _symmetry_equiv_pos_site_id
    _symmetry_equiv_pos_as_xyz
    1  x,y,z
loop_
    _atom_site_type_symbol
    _atom_site_label
    _atom_site_fract_x
    _atom_site_fract_y
    _atom_site_fract_z
    _atom_type_partial_charge
    C   C1   0.232568  0.998090  0.851132  -0.090624
    H   H1   0.244245  0.998695  0.774644  0.170119
    C   C2   0.148718  0.987463  0.869980  -0.244928
    H   H2   0.095499  0.978945  0.808747  0.151784
    C   C3   0.132790  0.989103  0.966932  0.411332
    C   C4   0.200655  0.999400  0.045002  -0.279654
    H   H3   0.185649  0.998647  0.120166  0.161210
    C   C5   0.285946  0.010212  0.027525  0.055650
    C   C6   0.301675  0.011566  0.928703  -0.102342
    C   C7   0.045162  0.980435  0.986380  -0.233412
    C   C8   0.971648  0.974454  0.002798  -0.078738
    C   C9   0.816455  0.964848  0.948579  -0.187087
    H   H4   0.829690  0.964743  0.872592  0.165887
    C   C10  0.733178  0.965836  0.970073  -0.001120
    C   C11  0.719202  0.968140  0.069469  -0.113783
    C   C12  0.788435  0.973370  0.144829  -0.231872
    H   H5   0.776945  0.974069  0.221523  0.225918
    C   C13  0.871163  0.973797  0.122767  0.247039
    C   C14  0.884839  0.969301  0.024535  0.131726
    O   O1   0.545597  0.163478  0.744935  -0.635770
    C   C15  0.476182  0.201634  0.712087  0.670869
    O   O2   0.446103  0.117332  0.942470  -0.484649
    O   O3   0.399140  0.145641  0.715735  -0.587340
    O   O4   0.401010  0.961684  0.818087  -0.564450
    C   C16  0.388348  0.026468  0.900307  0.781305
    Fe  Fe1  0.515134  0.014197  0.780384  1.455603
    O   O5   0.595846  0.014389  0.907431  -0.554550
    O   O6   0.674539  0.941486  0.793387  -0.529954
    C   C17  0.664188  0.971323  0.887796  0.573839
    O   O7   0.522281  0.912674  0.650399  -0.573187
    O   O8   0.438894  0.771687  0.702800  -0.520063
    C   C18  0.483679  0.806717  0.635937  0.600830
    O   O9   0.523207  0.111662  0.361372  -0.606385
    O   O10  0.451542  0.222399  0.276348  -0.494740
    C   C19  0.491668  0.204047  0.361004  0.524579
    O   O11  0.437156  0.027597  0.104965  -0.544342
    O   O12  0.332024  0.989648  0.198608  -0.490893
    C   C20  0.354449  0.010872  0.113302  0.589785
    O   O13  0.600776  0.838274  0.279609  -0.588571
    O   O14  0.628988  0.029996  0.186332  -0.697932
    C   C21  0.633763  0.965871  0.100293  0.878588
    O   O15  0.460785  0.862737  0.261273  -0.629811
    C   C22  0.519798  0.805439  0.289582  0.680541
    O   O16  0.566125  0.890783  0.051120  -0.554320
    Fe  Fe2  0.513188  0.006479  0.228074  1.497723
    C   C23  0.489136  0.273155  0.460234  0.118964
    C   C24  0.487796  0.217051  0.539736  -0.209834
    C   C25  0.482972  0.270655  0.635235  0.153861
    C   C26  0.479022  0.383210  0.653456  -0.314785
    C   C27  0.482843  0.442480  0.575630  0.297314
    C   C28  0.488735  0.388494  0.478973  -0.057965
    C   C29  0.481730  0.556501  0.595920  -0.250236
    C   C30  0.485547  0.619159  0.520213  0.032451
    C   C31  0.495478  0.565513  0.424905  0.278162
    C   C32  0.497834  0.452255  0.405167  -0.195339
    C   C33  0.484193  0.734723  0.537203  0.024876
    C   C34  0.490697  0.790530  0.457788  -0.177575
    C   C35  0.502564  0.737140  0.364864  0.157075
    C   C36  0.506106  0.624937  0.348461  -0.327763
    H   H6   0.487125  0.127722  0.527830  0.171108
    H   H7   0.473748  0.424720  0.728668  0.173806
    H   H8   0.489837  0.879462  0.468480  0.153917
    H   H9   0.516865  0.583827  0.275434  0.178645
    H   H10  0.509168  0.416305  0.331244  0.156143
    H   H11  0.478912  0.594430  0.672519  0.186624
    N   N1   0.942430  0.979868  0.199520  -0.087798
    C   C37  0.937170  0.880685  0.243136  -0.106059
    C   C38  0.958215  0.081767  0.275150  -0.226776
    H   H12  0.877890  0.818607  0.205860  0.053972
    H   H13  0.935848  0.902758  0.325458  0.079898
    H   H14  0.994783  0.842086  0.231578  0.078815
    H   H15  0.962538  0.155116  0.237442  0.096553
    H   H16  0.020677  0.088241  0.325722  0.129329
    H   H17  0.905270  0.082696  0.321105  0.078805
