# Generated by REPEAT Assigner based on pymatgen
data_DB0-m3_o24_o28_f0_pcu.sym.77
_audit_creation_date              2022-05-24
_audit_creation_method            REPEAT_Assigner
_cell_length_a                    23.410568
_cell_length_b                    10.764978
_cell_length_c                    9.744481
_cell_angle_alpha                 90.008045
_cell_angle_beta                  89.979248
_cell_angle_gamma                 90.002151
_cell_volume                      2455.747910
_symmetry_space_group_name_H-M    P1
_symmetry_Int_Tables_number       1
loop_
    _symmetry_equiv_pos_site_id
    _symmetry_equiv_pos_as_xyz
    1  x,y,z
loop_
    _atom_site_type_symbol
    _atom_site_label
    _atom_site_fract_x
    _atom_site_fract_y
    _atom_site_fract_z
    _atom_type_partial_charge
    O   O1   0.495854  0.312237  0.620134  -0.731390
    O   O2   0.496868  0.682959  0.383740  -0.621967
    O   O3   0.496468  0.312802  0.382738  -0.722519
    O   O4   0.495310  0.682383  0.620807  -0.625976
    C   C1   0.496162  0.254912  0.501275  0.775343
    C   C2   0.496070  0.740335  0.502460  0.601068
    O   O5   0.410455  0.496493  0.617260  -0.669398
    O   O6   0.581794  0.497301  0.386446  -0.687213
    O   O7   0.411612  0.498433  0.380217  -0.723334
    O   O8   0.580642  0.497928  0.623455  -0.718892
    C   C3   0.384362  0.497276  0.498025  0.787412
    C   C4   0.607899  0.497494  0.505641  0.799375
    Zn  Zn1  0.495298  0.497258  0.658197  1.048894
    Zn  Zn2  0.496955  0.497964  0.345502  1.054037
    C   C5   0.878028  0.604795  0.512086  0.438876
    C   C6   0.114282  0.386926  0.496853  0.446825
    N   N1   0.849573  0.495993  0.508100  -0.193808
    N   N2   0.142723  0.495790  0.495728  -0.187243
    C   C7   0.877950  0.387180  0.502021  0.446955
    C   C8   0.114343  0.604729  0.496777  0.437223
    C   C9   0.937030  0.385505  0.500851  -0.073589
    C   C10  0.055267  0.606391  0.500466  -0.090360
    C   C11  0.966682  0.495946  0.503355  0.077974
    C   C12  0.025621  0.495910  0.500577  0.086743
    C   C13  0.937107  0.606414  0.508536  -0.084390
    C   C14  0.055201  0.385381  0.497986  -0.079272
    C   C15  0.966640  0.274432  0.497234  -0.087046
    C   C16  0.025652  0.717449  0.504732  -0.072994
    C   C17  0.025518  0.274357  0.496506  -0.082525
    C   C18  0.966795  0.717448  0.509398  -0.076347
    O   O9   0.848609  0.711902  0.516274  -0.480531
    O   O10  0.143700  0.279771  0.494447  -0.492429
    O   O11  0.848470  0.280102  0.499521  -0.491805
    O   O12  0.143839  0.711805  0.497435  -0.479677
    H   H1   0.944442  0.186443  0.495467  0.142470
    H   H2   0.047843  0.805461  0.505058  0.136221
    H   H3   0.047660  0.186314  0.494215  0.142037
    H   H4   0.944663  0.805463  0.513120  0.136622
    C   C19  0.233300  0.540567  0.383813  -0.242799
    C   C20  0.759288  0.454760  0.394314  -0.185677
    H   H5   0.210438  0.575412  0.295483  0.157103
    H   H6   0.782343  0.422628  0.304954  0.127434
    C   C21  0.292238  0.539438  0.383515  -0.010776
    C   C22  0.700422  0.456365  0.393055  -0.049018
    H   H7   0.314867  0.575007  0.295219  0.088404
    H   H8   0.678220  0.423490  0.303003  0.105538
    C   C23  0.321790  0.496303  0.496639  -0.135538
    C   C24  0.670484  0.496684  0.506925  -0.129107
    C   C25  0.291885  0.452233  0.608815  -0.040602
    C   C26  0.700026  0.536270  0.621645  -0.014372
    H   H9   0.314138  0.416263  0.697315  0.109698
    H   H10  0.677386  0.568979  0.711234  0.081130
    C   C27  0.233021  0.450641  0.607575  -0.186618
    C   C28  0.758963  0.537349  0.621523  -0.233558
    H   H11  0.209981  0.415561  0.695587  0.126306
    H   H12  0.781788  0.569283  0.711266  0.153784
    C   C29  0.203581  0.495641  0.495589  0.281407
    C   C30  0.788711  0.496006  0.508100  0.281220
    C   C31  0.541482  0.038417  0.568460  -0.059381
    C   C32  0.450691  0.956836  0.435431  -0.077369
    C   C33  0.542839  0.956751  0.441122  -0.098581
    C   C34  0.449339  0.038507  0.562797  -0.047456
    H   H13  0.581786  0.919545  0.391093  0.058095
    H   H14  0.410446  0.075600  0.613253  0.032249
    H   H15  0.579257  0.075425  0.623616  0.039111
    H   H16  0.412918  0.919826  0.380270  0.040552
    C   C35  0.496054  0.878436  0.502737  0.117146
    C   C36  0.496127  0.116815  0.501122  0.035231
    C   C37  0.494698  0.957821  0.630141  -0.016581
    C   C38  0.497483  0.037414  0.373736  -0.016372
    H   H17  0.493538  0.922498  0.737014  0.008685
    H   H18  0.498657  0.072726  0.266859  0.020708
    C   C39  0.473876  0.400431  0.053259  -0.053123
    C   C40  0.518473  0.595581  0.949995  -0.157682
    C   C41  0.522498  0.405021  0.951196  -0.063137
    C   C42  0.469690  0.590981  0.052910  -0.086997
    H   H19  0.546504  0.325811  0.906778  0.088607
    H   H20  0.446934  0.670995  0.099314  0.077776
    H   H21  0.453316  0.317014  0.098221  0.093230
    H   H22  0.537522  0.679640  0.902743  0.102581
    N   N3   0.494039  0.497035  0.863547  0.142354
    N   N4   0.498229  0.498431  0.140152  0.110945
    C   C43  0.446820  0.493023  0.960145  0.192943
    C   C44  0.545456  0.503356  0.043581  0.214939
    N   N5   0.388939  0.481103  0.911812  -0.535572
    C   C45  0.355398  0.589653  0.925269  0.370609
    C   C46  0.301949  0.582841  0.985176  -0.187768
    C   C47  0.268299  0.687607  0.995056  -0.096209
    C   C48  0.287549  0.799299  0.943812  -0.127080
    C   C49  0.340313  0.806049  0.881606  -0.158744
    C   C50  0.374057  0.701447  0.871567  -0.137885
    H   H23  0.369246  0.402882  0.949758  0.292013
    H   H24  0.286107  0.495769  0.025274  0.081343
    H   H25  0.226669  0.682027  0.042666  0.099204
    H   H26  0.261083  0.881301  0.951369  0.109482
    H   H27  0.355140  0.893321  0.839860  0.129393
    H   H28  0.414770  0.707824  0.820029  0.123198
    N   N6   0.603572  0.503188  0.092250  -0.477476
    C   C51  0.633365  0.616120  0.072931  0.332826
    C   C52  0.686837  0.615248  0.012659  -0.195322
    C   C53  0.716751  0.724585  0.996182  -0.088406
    C   C54  0.693750  0.835097  0.041236  -0.163610
    C   C55  0.641033  0.836118  0.104099  -0.108179
    C   C56  0.611064  0.726876  0.120988  -0.137759
    H   H29  0.625913  0.427027  0.057813  0.278942
    H   H30  0.705591  0.529254  0.977234  0.088458
    H   H31  0.758355  0.723564  0.948041  0.107394
    H   H32  0.717244  0.920756  0.028313  0.117729
    H   H33  0.623271  0.922659  0.140742  0.111284
    H   H34  0.570321  0.728947  0.172878  0.104339
