# Generated by REPEAT Assigner based on pymatgen
data_DB0-m3_o88_o22_f0_fsc.sym.33_sqe
_audit_creation_date              2022-05-24
_audit_creation_method            REPEAT_Assigner
_cell_length_a                    6.659903
_cell_length_b                    9.004498
_cell_length_c                    13.641316
_cell_angle_alpha                 100.333884
_cell_angle_beta                  100.442009
_cell_angle_gamma                 89.927767
_cell_volume                      791.046425
_symmetry_space_group_name_H-M    P1
_symmetry_Int_Tables_number       1
loop_
    _symmetry_equiv_pos_site_id
    _symmetry_equiv_pos_as_xyz
    1  x,y,z
loop_
    _atom_site_type_symbol
    _atom_site_label
    _atom_site_fract_x
    _atom_site_fract_y
    _atom_site_fract_z
    _atom_type_partial_charge
    C   C1   0.425163  0.083208  0.826405  -0.076820
    H   H1   0.266231  0.099053  0.830900  0.088240
    C   C2   0.566272  0.082217  0.913904  -0.170225
    H   H2   0.517560  0.100954  0.986359  0.085356
    C   C3   0.766432  0.049137  0.908337  0.196897
    C   C4   0.828016  0.035661  0.816129  -0.213930
    H   H3   0.985255  0.016179  0.810199  0.161930
    C   C5   0.690106  0.046545  0.729292  0.017715
    C   C6   0.484087  0.058447  0.732989  -0.162057
    C   C7   0.909279  0.027354  0.000015  -0.287263
    C   C8   0.092708  0.968531  0.995300  -0.129534
    H   H4   0.860178  0.057167  0.072148  0.192343
    H   H5   0.141832  0.938754  0.923165  0.107177
    C   C9   0.435657  0.913638  0.081571  -0.205014
    H   H6   0.484588  0.894957  0.009165  0.137094
    C   C10  0.576551  0.912584  0.169145  -0.134391
    H   H7   0.735506  0.896706  0.164738  0.052704
    C   C11  0.517367  0.937303  0.262503  0.148267
    C   C12  0.311303  0.949146  0.266043  -0.034621
    C   C13  0.173604  0.960034  0.179152  -0.316687
    H   H8   0.016330  0.979424  0.185004  0.244530
    C   C14  0.235430  0.946686  0.087015  0.152676
    O   O1   0.834907  0.897311  0.602640  -0.647329
    O   O2   0.819951  0.153345  0.603961  -0.713926
    C   C15  0.771313  0.030841  0.635888  0.712722
    O   O3   0.240310  0.154780  0.611402  -0.654456
    O   O4   0.251980  0.896804  0.603291  -0.640633
    C   C16  0.324157  0.035241  0.641775  0.810406
    O   O5   0.166792  0.098521  0.392784  -0.712945
    O   O6   0.181802  0.842314  0.391489  -0.647910
    C   C17  0.229846  0.964834  0.359363  0.673700
    O   O7   0.761429  0.841069  0.383970  -0.594038
    O   O8   0.749714  0.098815  0.392099  -0.474600
    C   C18  0.677042  0.960518  0.353827  0.527151
    Zn  Zn1  0.998145  0.163981  0.500385  0.939105
    Zn  Zn2  0.003472  0.831760  0.495021  0.904497
    C   C19  0.207579  0.422377  0.536205  0.254872
    H   H9   0.308126  0.371234  0.484155  -0.045544
    H   H10  0.266231  0.395673  0.612288  0.014073
    C   C20  0.203007  0.592950  0.544579  -0.570447
    H   H11  0.221710  0.641651  0.626477  0.143370
    H   H12  0.050679  0.324845  0.351041  -0.001088
    H   H13  0.049599  0.579125  0.343560  0.095921
    C   C21  0.941872  0.382881  0.396330  0.700786
    C   C22  0.870178  0.438107  0.565064  0.237012
    N   N1   0.001243  0.358896  0.500127  -0.087821
    H   H14  0.717018  0.381613  0.547482  -0.020654
    H   H15  0.937965  0.434833  0.645113  0.019999
    N   N2   0.006607  0.636853  0.494880  0.864401
    C   C23  0.946575  0.550577  0.393039  -0.468929
    C   C24  0.854932  0.601455  0.551889  -0.609860
    H   H16  0.880500  0.676210  0.627349  0.122805
    H   H17  0.701297  0.619422  0.509800  0.097698
    H   H18  0.791296  0.582688  0.361214  0.057588
    S   S1   0.407135  0.675546  0.496846  0.036987
    C   C25  0.432820  0.516695  0.397877  0.079290
    H   H19  0.493127  0.558852  0.337102  -0.035735
    H   H20  0.285787  0.458101  0.362676  -0.077392
    H   H21  0.539821  0.437521  0.430547  0.058961
    S   S2   0.691241  0.297490  0.340775  -0.115693
    C   C26  0.761589  0.244314  0.217112  -0.541715
    H   H22  0.642216  0.165916  0.166916  0.250708
    H   H23  0.909053  0.186272  0.224925  0.120908
    H   H24  0.774850  0.346567  0.183627  0.083366
