# Generated by REPEAT Assigner based on pymatgen
data_DB0-m2_o16_o16_f0_pcu.sym.15_sqe
_audit_creation_date              2022-05-24
_audit_creation_method            REPEAT_Assigner
_cell_length_a                    20.151020
_cell_length_b                    19.173607
_cell_length_c                    12.199544
_cell_angle_alpha                 90.000000
_cell_angle_beta                  129.811631
_cell_angle_gamma                 90.000000
_cell_volume                      3620.699867
_symmetry_space_group_name_H-M    P1
_symmetry_Int_Tables_number       1
loop_
    _symmetry_equiv_pos_site_id
    _symmetry_equiv_pos_as_xyz
    1  x,y,z
loop_
    _atom_site_type_symbol
    _atom_site_label
    _atom_site_fract_x
    _atom_site_fract_y
    _atom_site_fract_z
    _atom_type_partial_charge
    O   O1   0.612201  0.929422  0.566747  -0.596611
    O   O2   0.612675  0.069625  0.566351  -0.594127
    O   O3   0.112557  0.430670  0.566681  -0.598173
    O   O4   0.111859  0.570892  0.566256  -0.594673
    O   O5   0.566737  0.926626  0.697073  -0.531047
    O   O6   0.566990  0.073756  0.696112  -0.527980
    O   O7   0.067383  0.426710  0.697353  -0.525643
    O   O8   0.066546  0.573815  0.696759  -0.529852
    C   C1   0.615826  0.903330  0.669664  0.671048
    C   C2   0.616327  0.096349  0.668997  0.670694
    C   C3   0.116490  0.403998  0.669752  0.669084
    C   C4   0.115531  0.597012  0.669187  0.672359
    Cu  Cu1  0.529024  0.999622  0.431923  0.838242
    Cu  Cu2  0.028375  0.500555  0.431069  0.839509
    Cu  Cu3  0.480092  0.000219  0.590259  0.824229
    Cu  Cu4  0.980548  0.499942  0.591088  0.823105
    O   O9   0.441977  0.072978  0.323822  -0.578043
    O   O10  0.441564  0.926400  0.324321  -0.577761
    O   O11  0.941300  0.573593  0.323574  -0.580744
    O   O12  0.941964  0.427063  0.323928  -0.571982
    O   O13  0.396249  0.070080  0.454749  -0.561105
    O   O14  0.395937  0.930352  0.455520  -0.558094
    O   O15  0.895915  0.569604  0.455220  -0.561736
    O   O16  0.896621  0.429845  0.455580  -0.558666
    C   C5   0.390898  0.094141  0.348806  0.682761
    C   C6   0.390509  0.905754  0.349662  0.681644
    C   C7   0.890302  0.594021  0.349023  0.687517
    C   C8   0.891197  0.405736  0.349469  0.674327
    C   C9   0.680857  0.312808  0.136542  -0.293595
    C   C10  0.678436  0.684970  0.132713  -0.295300
    C   C11  0.179256  0.813918  0.134972  -0.294527
    C   C12  0.179822  0.186245  0.134067  -0.292697
    H   H1   0.245223  0.883041  0.311437  0.100161
    H   H2   0.245452  0.116794  0.309683  0.101176
    H   H3   0.746588  0.382599  0.311900  0.101384
    H   H4   0.744455  0.615936  0.309106  0.100486
    H   H5   0.551025  0.244895  0.919878  0.151881
    H   H6   0.548681  0.753378  0.915097  0.154376
    H   H7   0.049475  0.745930  0.917614  0.153395
    H   H8   0.050095  0.254514  0.916746  0.151473
    H   H9   0.624022  0.311825  0.127913  0.134892
    H   H10  0.621071  0.685142  0.122706  0.134100
    H   H11  0.122255  0.813105  0.125728  0.135083
    H   H12  0.122491  0.186551  0.124084  0.134095
    C   C13  0.320437  0.857046  0.248975  -0.123829
    C   C14  0.321053  0.143120  0.248198  -0.120725
    C   C15  0.821479  0.356749  0.248982  -0.117080
    C   C16  0.820137  0.642713  0.248135  -0.126588
    C   C17  0.755580  0.148189  0.772722  -0.032380
    C   C18  0.755553  0.852169  0.774303  -0.037915
    C   C19  0.254392  0.649081  0.771778  -0.032237
    C   C20  0.256606  0.353098  0.775066  -0.037285
    C   C21  0.324370  0.690218  0.868634  -0.148468
    C   C22  0.326645  0.312281  0.872667  -0.145007
    C   C23  0.825749  0.188860  0.870339  -0.150647
    C   C24  0.825363  0.810908  0.871182  -0.145969
    C   C25  0.325558  0.731414  0.961909  -0.160156
    C   C26  0.327379  0.270587  0.964746  -0.160718
    C   C27  0.826848  0.230150  0.963375  -0.156123
    C   C28  0.825950  0.769254  0.963139  -0.162117
    C   C29  0.755221  0.233976  0.956625  0.051654
    C   C30  0.754235  0.765557  0.956133  0.059734
    C   C31  0.254205  0.734830  0.955992  0.053818
    C   C32  0.255433  0.266457  0.957028  0.053756
    C   C33  0.682116  0.194400  0.852660  0.187280
    C   C34  0.681411  0.805323  0.852509  0.179199
    C   C35  0.181284  0.695128  0.852307  0.185126
    C   C36  0.182368  0.305957  0.852797  0.185352
    C   C37  0.253727  0.776571  0.050779  -0.034707
    C   C38  0.254674  0.224232  0.050981  -0.031460
    C   C39  0.754880  0.275853  0.051383  -0.033389
    C   C40  0.753461  0.723380  0.050125  -0.038258
    C   C41  0.682397  0.275885  0.041232  0.288233
    C   C42  0.680378  0.722490  0.038273  0.293623
    C   C43  0.180936  0.776970  0.039778  0.289878
    C   C44  0.181778  0.223677  0.039648  0.286196
    C   C45  0.609094  0.241147  0.932347  -0.276211
    C   C46  0.607244  0.757389  0.929221  -0.284010
    C   C47  0.107712  0.742202  0.930648  -0.280739
    C   C48  0.108581  0.258469  0.930563  -0.274746
    C   C49  0.607782  0.202798  0.836344  -0.180493
    C   C50  0.606777  0.796670  0.835106  -0.175104
    C   C51  0.106874  0.703494  0.835560  -0.177800
    C   C52  0.107752  0.297114  0.835378  -0.181503
    C   C53  0.323231  0.818518  0.155972  -0.096507
    C   C54  0.323964  0.181851  0.155517  -0.102483
    C   C55  0.824192  0.318272  0.155788  -0.101808
    C   C56  0.823012  0.681433  0.155456  -0.097135
    C   C57  0.249050  0.853138  0.240516  -0.026592
    C   C58  0.249572  0.146983  0.239502  -0.027600
    C   C59  0.750407  0.352469  0.241214  -0.028663
    C   C60  0.748402  0.646075  0.238714  -0.024882
    C   C61  0.684049  0.148667  0.764514  -0.192468
    C   C62  0.683741  0.851316  0.765386  -0.184978
    C   C63  0.183208  0.649319  0.764441  -0.190557
    C   C64  0.184527  0.351988  0.765441  -0.188118
    H   H13  0.380969  0.823202  0.169068  0.089726
    H   H14  0.381425  0.176768  0.167880  0.090974
    H   H15  0.881460  0.323527  0.167727  0.090963
    H   H16  0.880957  0.676951  0.169069  0.090503
    H   H17  0.759348  0.113923  0.706583  0.092893
    H   H18  0.759391  0.887034  0.708978  0.094892
    H   H19  0.257758  0.614795  0.705175  0.092523
    H   H20  0.260704  0.387819  0.709918  0.094722
    H   H21  0.384172  0.760063  0.036918  0.133736
    H   H22  0.386529  0.242609  0.041056  0.134421
    H   H23  0.885895  0.258163  0.039547  0.132845
    H   H24  0.884669  0.740644  0.038276  0.134055
    H   H25  0.380263  0.688723  0.874582  0.111291
    H   H26  0.383031  0.314634  0.880179  0.110261
    H   H27  0.881951  0.186586  0.877265  0.112240
    H   H28  0.881599  0.812637  0.878281  0.111058
    H   H29  0.546165  0.181786  0.747528  0.122774
    H   H30  0.545395  0.818178  0.746564  0.121172
    H   H31  0.045457  0.682197  0.746801  0.122108
    H   H32  0.046169  0.317980  0.745968  0.122286
    C   C65  0.677354  0.999787  0.301551  -0.262559
    C   C66  0.177268  0.498839  0.301602  -0.267784
    H   H33  0.696648  0.999898  0.494048  0.189199
    H   H34  0.196738  0.498985  0.494510  0.187598
    H   H35  0.715744  0.000426  0.135624  0.145455
    H   H36  0.215717  0.501413  0.136575  0.144937
    H   H37  0.745851  0.999934  0.356545  0.131892
    H   H38  0.245718  0.497824  0.356389  0.132892
    N   N1   0.564447  0.999003  0.311161  -0.046752
    N   N2   0.064808  0.501134  0.311750  -0.050922
    C   C67  0.359538  0.999408  0.639615  0.392390
    C   C68  0.859376  0.500822  0.639519  0.393065
    C   C69  0.327693  0.997810  0.710566  -0.272909
    C   C70  0.827599  0.500946  0.710586  -0.273481
    C   C71  0.382526  0.997587  0.856512  -0.064739
    C   C72  0.882463  0.500638  0.856582  -0.063777
    C   C73  0.471275  0.999105  0.933678  -0.059456
    C   C74  0.971198  0.499981  0.933856  -0.058801
    C   C75  0.501663  0.000154  0.857639  0.279148
    C   C76  0.001617  0.500151  0.857848  0.276159
    C   C77  0.530361  0.999228  0.084316  -0.032500
    C   C78  0.030208  0.499787  0.084452  -0.032908
    C   C79  0.617957  0.999746  0.154887  0.300385
    C   C80  0.117753  0.499729  0.154986  0.302987
    C   C81  0.647224  0.000183  0.080095  -0.271140
    C   C82  0.147081  0.500290  0.080377  -0.270215
    C   C83  0.590263  0.000662  0.934190  -0.128209
    C   C84  0.090289  0.500285  0.934538  -0.127776
    C   C85  0.505244  0.999283  0.167920  -0.017791
    C   C86  0.005247  0.499121  0.168162  -0.017125
    C   C87  0.649662  0.999987  0.378849  -0.079380
    C   C88  0.149716  0.499490  0.379066  -0.072174
    N   N3   0.445498  0.001000  0.711622  -0.271380
    N   N4   0.945351  0.499887  0.711596  -0.270028
    H   H39  0.438845  0.998778  0.123004  0.104631
    H   H40  0.939014  0.497254  0.123584  0.104338
    H   H41  0.352175  0.995917  0.903550  0.145453
    H   H42  0.852304  0.500410  0.903920  0.145085
    H   H43  0.258625  0.997080  0.650446  0.145099
    H   H44  0.758452  0.500659  0.650345  0.144808
    H   H45  0.618829  0.001141  0.884997  0.153411
    H   H46  0.118879  0.500996  0.885333  0.152446
    F   F1   0.302411  0.000230  0.495294  -0.127903
    F   F2   0.802215  0.500382  0.495133  -0.128168
