# Generated by REPEAT Assigner based on pymatgen
data_DB0-m29_o80_o490_f0_pts.sym.2
_audit_creation_date              2022-05-24
_audit_creation_method            REPEAT_Assigner
_cell_length_a                    14.175225
_cell_length_b                    11.551015
_cell_length_c                    15.407643
_cell_angle_alpha                 90.446229
_cell_angle_beta                  91.540446
_cell_angle_gamma                 109.647050
_cell_volume                      2374.707835
_symmetry_space_group_name_H-M    P1
_symmetry_Int_Tables_number       1
loop_
    _symmetry_equiv_pos_site_id
    _symmetry_equiv_pos_as_xyz
    1  x,y,z
loop_
    _atom_site_type_symbol
    _atom_site_label
    _atom_site_fract_x
    _atom_site_fract_y
    _atom_site_fract_z
    _atom_type_partial_charge
    C   C1   0.707378  0.884897  0.876860  -0.163998
    C   C2   0.755064  0.839314  0.816193  -0.183489
    C   C3   0.852085  0.864480  0.847594  0.321678
    N   N1   0.865233  0.923703  0.925191  -0.503621
    C   C4   0.776056  0.934612  0.944142  0.300702
    C   C5   0.922419  0.833461  0.806366  0.028403
    C   C6   0.029054  0.874567  0.835618  0.199078
    C   C7   0.106715  0.892901  0.779571  -0.195090
    C   C8   0.194017  0.930293  0.829128  -0.232685
    C   C9   0.166911  0.935976  0.914648  0.369456
    N   N2   0.065906  0.900445  0.917946  -0.320660
    C   C10  0.237111  0.982135  0.989670  -0.340438
    C   C11  0.219775  0.050641  0.053558  0.493855
    C   C12  0.290897  0.118649  0.114164  -0.221407
    C   C13  0.247318  0.188444  0.160081  -0.222896
    C   C14  0.149973  0.155909  0.128885  0.459753
    N   N3   0.132982  0.072986  0.063046  -0.535489
    C   C15  0.082030  0.195019  0.166153  -0.349030
    C   C16  0.972493  0.139887  0.151314  0.298558
    C   C17  0.901588  0.137102  0.211908  0.029988
    C   C18  0.808704  0.073521  0.173845  -0.156407
    C   C19  0.826919  0.036947  0.090431  0.056396
    N   N4   0.926860  0.081776  0.077752  -0.272605
    C   C20  0.751560  0.961750  0.023620  0.141050
    H   H1   0.722401  0.799672  0.754034  0.116612
    H   H2   0.101307  0.882747  0.709658  0.171890
    H   H3   0.311512  0.976409  0.986392  0.199843
    H   H4   0.280102  0.247884  0.215410  0.134453
    H   H5   0.109800  0.260929  0.218908  0.173539
    H   H6   0.024477  0.889530  0.973930  0.273317
    H   H7   0.964148  0.079573  0.021099  0.270144
    O   O1   0.632466  0.053595  0.169779  -0.665998
    C   C21  0.713247  0.060683  0.216174  0.765705
    O   O2   0.579283  0.811258  0.273772  -0.522674
    O   O3   0.709057  0.059169  0.301124  -0.533660
    O   O4   0.461808  0.890433  0.319881  -0.559872
    C   C22  0.507729  0.808911  0.326537  0.507979
    Fe  Fe1  0.514082  0.031320  0.241466  1.450201
    O   O5   0.396009  0.004542  0.159413  -0.637445
    O   O6   0.459560  0.212261  0.165284  -0.628994
    C   C23  0.388980  0.111407  0.138341  0.751802
    O   O7   0.561895  0.183163  0.317272  -0.573052
    O   O8   0.403698  0.088579  0.361810  -0.531863
    C   C24  0.488542  0.180696  0.368386  0.684128
    C   C25  0.506056  0.217855  0.522983  -0.127867
    C   C26  0.504304  0.284251  0.596989  0.076287
    C   C27  0.501650  0.403294  0.589082  0.017485
    C   C28  0.500844  0.473879  0.661661  -0.077463
    C   C29  0.497347  0.590697  0.653007  -0.203494
    C   C30  0.504769  0.265877  0.442036  -0.122643
    C   C31  0.503538  0.384575  0.433444  0.174365
    C   C32  0.501610  0.453350  0.507019  0.006542
    C   C33  0.497998  0.571591  0.498267  0.043664
    C   C34  0.495269  0.640068  0.571790  0.115448
    C   C35  0.493205  0.758509  0.563251  -0.068535
    C   C36  0.500754  0.433562  0.352164  -0.233035
    C   C37  0.498538  0.550926  0.343614  -0.081505
    C   C38  0.498722  0.621921  0.416248  -0.007854
    C   C39  0.497454  0.741551  0.408482  0.117635
    C   C40  0.493793  0.807177  0.482409  -0.174408
    H   H8   0.503830  0.440451  0.726495  0.116275
    H   H9   0.495434  0.641300  0.711510  0.216415
    H   H10  0.500995  0.382265  0.293484  0.232249
    H   H11  0.495002  0.584084  0.278788  0.124871
    H   H12  0.502713  0.123281  0.527677  0.148376
    H   H13  0.497986  0.902081  0.478128  0.169202
    O   O9   0.609351  0.013003  0.842181  -0.682851
    O   O10  0.535063  0.806211  0.832304  -0.675628
    C   C41  0.611242  0.901953  0.858148  0.841850
    O   O11  0.435833  0.850091  0.683812  -0.568451
    O   O12  0.598499  0.929321  0.647008  -0.550744
    C   C42  0.510144  0.844081  0.636786  0.692424
    O   O13  0.422653  0.209973  0.730846  -0.491227
    O   O14  0.375328  0.980245  0.837286  -0.705804
    C   C43  0.292342  0.958041  0.790095  0.813443
    O   O15  0.547147  0.141373  0.687307  -0.569085
    C   C44  0.496738  0.218159  0.679367  0.527685
    O   O16  0.296085  0.955801  0.705166  -0.556784
    Fe  Fe2  0.490964  0.998007  0.762852  1.487060
    C   C45  0.919650  0.193569  0.301371  -0.288551
    H   H14  0.999574  0.244439  0.316209  0.079237
    H   H15  0.877919  0.258857  0.307776  0.113821
    H   H16  0.893851  0.120295  0.350065  0.129726
    C   C46  0.892568  0.758662  0.723719  -0.271968
    H   H17  0.826799  0.675420  0.734749  0.098129
    H   H18  0.874136  0.814402  0.671871  0.115711
    H   H19  0.952714  0.725340  0.701724  0.100424
    C   C47  0.650025  0.881547  0.051523  -0.331217
    H   H20  0.627114  0.790719  0.017842  0.091854
    H   H21  0.653152  0.858224  0.120593  0.162696
    H   H22  0.592688  0.925197  0.037544  0.129081
