# Generated by REPEAT Assigner based on pymatgen
data_DB0-m18_o49_o148_f0_fsc
_audit_creation_date              2022-05-24
_audit_creation_method            REPEAT_Assigner
_cell_length_a                    11.374977
_cell_length_b                    17.439784
_cell_length_c                    8.586963
_cell_angle_alpha                 90.000000
_cell_angle_beta                  107.425813
_cell_angle_gamma                 90.000000
_cell_volume                      1625.277882
_symmetry_space_group_name_H-M    P1
_symmetry_Int_Tables_number       1
loop_
    _symmetry_equiv_pos_site_id
    _symmetry_equiv_pos_as_xyz
    1  x,y,z
loop_
    _atom_site_type_symbol
    _atom_site_label
    _atom_site_fract_x
    _atom_site_fract_y
    _atom_site_fract_z
    _atom_type_partial_charge
    O   O1   0.879511  0.935493  0.773646  -0.691970
    O   O2   0.120487  0.064506  0.226360  -0.683231
    O   O3   0.132442  0.933838  0.218512  -0.650036
    O   O4   0.867564  0.066161  0.781488  -0.647415
    C   C1   0.830969  0.000596  0.707433  0.791487
    C   C2   0.169034  0.999403  0.292570  0.784705
    Fe  Fe1  0.994590  0.081791  0.003695  0.957465
    Fe  Fe2  0.005413  0.918208  0.996308  0.945969
    O   O5   0.863552  0.059579  0.116814  -0.678062
    O   O6   0.136447  0.940421  0.883183  -0.673071
    O   O7   0.125343  0.071964  0.884475  -0.687392
    O   O8   0.874663  0.928036  0.115533  -0.700865
    C   C3   0.826046  0.991810  0.149322  0.895106
    C   C4   0.173957  0.008190  0.850681  0.883581
    C   C5   0.099148  0.220628  0.064265  -0.326400
    C   C6   0.900841  0.779375  0.935881  -0.332499
    C   C7   0.885079  0.222102  0.955139  -0.355918
    C   C8   0.114931  0.777896  0.044713  -0.363685
    N   N1   0.991438  0.182974  0.009728  0.233200
    N   N2   0.008562  0.817026  0.990274  0.247103
    C   C9   0.995176  0.340894  0.007357  -0.044711
    C   C10  0.004820  0.659107  0.992637  -0.048906
    C   C11  0.102264  0.299612  0.063691  0.233474
    C   C12  0.897722  0.700391  0.936453  0.240151
    C   C13  0.885892  0.301358  0.953458  0.255519
    C   C14  0.114115  0.698640  0.046391  0.257361
    C   C15  0.212846  0.336964  0.118061  -0.226572
    C   C16  0.787125  0.663042  0.882281  -0.228838
    C   C17  0.777532  0.340908  0.896358  -0.242414
    C   C18  0.222489  0.659088  0.103288  -0.241896
    H   H1   0.297443  0.304691  0.162565  0.130255
    H   H2   0.702514  0.695319  0.837977  0.131987
    H   H3   0.691159  0.310318  0.853681  0.138032
    H   H4   0.308877  0.689675  0.145769  0.137779
    C   C19  0.112191  0.539055  0.054309  0.022836
    C   C20  0.887810  0.460944  0.945606  0.022324
    C   C21  0.890273  0.541123  0.941679  0.033629
    C   C22  0.109717  0.458879  0.058387  0.032827
    C   C23  0.002439  0.579443  0.996039  0.034077
    C   C24  0.997556  0.420558  0.003953  0.033562
    C   C25  0.222139  0.580319  0.107355  -0.146427
    C   C26  0.777881  0.419676  0.892294  -0.146010
    C   C27  0.782823  0.584398  0.884511  -0.154492
    C   C28  0.217148  0.415608  0.115823  -0.153989
    H   H5   0.311178  0.554457  0.153853  0.125254
    H   H6   0.688865  0.445533  0.845464  0.125145
    H   H7   0.692330  0.560299  0.840189  0.127157
    H   H8   0.307617  0.439713  0.160476  0.127194
    H   H9   0.799042  0.191288  0.910599  0.180406
    H   H10  0.200979  0.808709  0.089130  0.185800
    H   H11  0.184041  0.188511  0.106631  0.182477
    H   H12  0.815942  0.811495  0.893635  0.181494
    C   C29  0.188657  0.018831  0.578344  -0.128167
    C   C30  0.811346  0.981168  0.421659  -0.121818
    C   C31  0.249397  0.010893  0.741626  -0.136527
    C   C32  0.750606  0.989107  0.258377  -0.145165
    C   C33  0.373202  0.992799  0.794451  0.102581
    C   C34  0.626801  0.007200  0.205552  0.110136
    C   C35  0.430617  0.972678  0.678832  -0.035353
    C   C36  0.569386  0.027321  0.321171  -0.041306
    H   H13  0.524236  0.951795  0.715977  0.081802
    H   H14  0.475767  0.048204  0.284027  0.081711
    C   C37  0.364863  0.972916  0.514038  -0.188992
    C   C38  0.635139  0.027083  0.485965  -0.182149
    C   C39  0.244777  0.999228  0.463548  -0.020561
    C   C40  0.755226  0.000771  0.536455  -0.029848
    C   C41  0.439169  0.993925  0.971222  -0.178431
    C   C42  0.560834  0.006075  0.028781  -0.186004
    H   H15  0.385836  0.987528  0.055651  0.116316
    H   H16  0.614167  0.012472  0.944352  0.117353
    H   H17  0.092139  0.033727  0.539799  0.145553
    H   H18  0.907864  0.966273  0.460203  0.147560
    H   H19  0.407935  0.952898  0.425326  0.120612
    H   H20  0.592067  0.047100  0.574677  0.118141
