# Generated by REPEAT Assigner based on pymatgen
data_DB0-m2_o11_o27_f0_pcu.sym.104_sqe
_audit_creation_date              2022-05-24
_audit_creation_method            REPEAT_Assigner
_cell_length_a                    19.286644
_cell_length_b                    11.071539
_cell_length_c                    9.550704
_cell_angle_alpha                 90.020584
_cell_angle_beta                  90.001071
_cell_angle_gamma                 90.004516
_cell_volume                      2039.388755
_symmetry_space_group_name_H-M    P1
_symmetry_Int_Tables_number       1
loop_
    _symmetry_equiv_pos_site_id
    _symmetry_equiv_pos_as_xyz
    1  x,y,z
loop_
    _atom_site_type_symbol
    _atom_site_label
    _atom_site_fract_x
    _atom_site_fract_y
    _atom_site_fract_z
    _atom_type_partial_charge
    O   O1   0.501349  0.341107  0.627175  -0.650583
    O   O2   0.492784  0.345180  0.386656  -0.531619
    C   C1   0.496914  0.286234  0.505901  0.813458
    O   O3   0.399974  0.523516  0.639532  -0.594581
    O   O4   0.395528  0.518087  0.398687  -0.639122
    C   C2   0.364870  0.521212  0.521626  0.729472
    Cu  Cu1  0.500978  0.516153  0.651925  0.841535
    Cu  Cu2  0.495957  0.521191  0.372234  0.896312
    O   O5   0.504914  0.691960  0.636726  -0.613245
    O   O6   0.494870  0.696195  0.397557  -0.545179
    O   O7   0.601276  0.517533  0.624571  -0.489918
    O   O8   0.596998  0.514779  0.384900  -0.620772
    C   C3   0.500420  0.750848  0.518317  0.774495
    C   C4   0.631730  0.514631  0.502509  0.576995
    C   C5   0.251015  0.522304  0.650611  0.200944
    C   C6   0.179121  0.515530  0.650138  0.406690
    C   C7   0.143042  0.511360  0.523526  -0.608923
    C   C8   0.180376  0.511681  0.400011  0.099184
    H   H1   0.154161  0.507211  0.300171  0.031620
    C   C9   0.251811  0.514198  0.401062  -0.091446
    H   H2   0.278699  0.511982  0.301991  0.121176
    C   C10  0.288129  0.519522  0.525664  -0.173073
    N   N1   0.033583  0.543010  0.398618  -0.332052
    N   N2   0.965025  0.540400  0.391712  -0.340954
    C   C11  0.927697  0.500897  0.501654  0.892537
    N   N3   0.960634  0.462483  0.617282  -0.446627
    N   N4   0.028981  0.464877  0.623810  -0.155110
    C   C12  0.066539  0.506709  0.515706  0.838575
    C   C13  0.814826  0.474488  0.618497  0.118390
    H   H3   0.840988  0.450683  0.714611  0.025172
    C   C14  0.743546  0.478716  0.618795  -0.151323
    H   H4   0.716347  0.456258  0.714041  0.090548
    C   C15  0.707686  0.509254  0.498926  0.048056
    C   C16  0.744083  0.534347  0.377701  -0.103646
    H   H5   0.716997  0.558494  0.282791  0.080655
    C   C17  0.815756  0.531599  0.377602  0.073030
    H   H6   0.843147  0.553044  0.282094  0.022629
    C   C18  0.851568  0.501861  0.498342  -0.438669
    C   C19  0.498723  0.948317  0.403648  -0.172646
    C   C20  0.502160  0.883476  0.522130  -0.328857
    H   H7   0.495796  0.901030  0.304527  0.099073
    H   H8   0.507715  0.925287  0.623683  0.169980
    C   C21  0.500766  0.082062  0.395798  0.486838
    C   C22  0.494795  0.153105  0.509299  -0.548533
    H   H9   0.487901  0.114189  0.611863  0.233116
    C   C23  0.455022  0.464596  0.933475  -0.107265
    N   N5   0.505109  0.510813  0.861337  0.099415
    H   H10  0.407725  0.437835  0.881409  0.098934
    C   C24  0.457765  0.451057  0.087816  0.100987
    N   N6   0.492321  0.525846  0.162967  -0.325387
    H   H11  0.428116  0.380199  0.137577  0.132683
    H   H12  0.507290  0.603597  0.113041  0.207913
    N   N7   0.285661  0.533440  0.780212  -0.345869
    C   C25  0.272380  0.644351  0.848648  0.291931
    C   C26  0.260214  0.645609  0.991235  -0.170622
    C   C27  0.244824  0.752466  0.058434  -0.144924
    C   C28  0.241875  0.858677  0.983693  -0.093930
    C   C29  0.255240  0.858316  0.841939  -0.134697
    C   C30  0.270550  0.751566  0.774244  -0.235078
    H   H13  0.276924  0.460729  0.844822  0.218560
    H   H14  0.261710  0.562811  0.050975  0.111969
    H   H15  0.234652  0.752791  0.169737  0.099962
    H   H16  0.229156  0.942129  0.036432  0.106941
    H   H17  0.253562  0.941805  0.783446  0.119577
    H   H18  0.281472  0.753942  0.663297  0.126322
    N   N8   0.510690  0.134351  0.262402  -0.615137
    C   C31  0.451054  0.130065  0.176238  0.466879
    C   C32  0.458804  0.115505  0.033267  -0.338107
    C   C33  0.401610  0.115830  0.946761  0.021622
    C   C34  0.336355  0.131421  0.002273  -0.195685
    C   C35  0.328186  0.145947  0.144551  -0.065267
    C   C36  0.385190  0.145478  0.231715  -0.269287
    H   H19  0.553107  0.098409  0.212081  0.305650
    H   H20  0.509755  0.104877  0.987685  0.133935
    H   H21  0.408011  0.104825  0.835073  0.060369
    H   H22  0.291638  0.133010  0.934144  0.129624
    H   H23  0.276967  0.159036  0.187922  0.090385
    H   H24  0.376841  0.160493  0.342156  0.130652
    N   N9   0.570654  0.487271  0.911693  -0.337682
    C   C37  0.614430  0.588680  0.931821  0.106882
    C   C38  0.681953  0.569776  0.974719  0.027225
    C   C39  0.726492  0.665888  0.993010  -0.198478
    C   C40  0.703518  0.782002  0.970569  -0.100390
    C   C41  0.635841  0.801926  0.930759  -0.216264
    C   C42  0.591225  0.705947  0.911473  0.051257
    H   H25  0.576600  0.415946  0.979674  0.278880
    H   H26  0.700502  0.478887  0.992247  0.072812
    H   H27  0.779474  0.650091  0.025072  0.145867
    H   H28  0.738347  0.857440  0.985362  0.100458
    H   H29  0.617492  0.893230  0.915402  0.126086
    H   H30  0.538032  0.725610  0.885371  0.048813
    N   N10  0.144169  0.523235  0.780055  -0.594769
    C   C43  0.125501  0.412106  0.843635  0.287806
    C   C44  0.074445  0.412142  0.945258  -0.136228
    C   C45  0.054238  0.305889  0.008369  -0.108468
    C   C46  0.084863  0.198500  0.970328  -0.160732
    C   C47  0.135911  0.197522  0.869517  -0.043176
    C   C48  0.156553  0.303603  0.806235  -0.277535
    H   H31  0.106264  0.588491  0.785196  0.308510
    H   H32  0.049916  0.495809  0.976147  0.095836
    H   H33  0.014222  0.306872  0.087609  0.128212
    H   H34  0.068923  0.115107  0.019585  0.087473
    H   H35  0.159903  0.113126  0.839780  0.083820
    H   H36  0.197046  0.298122  0.728462  0.117126
