# Generated by REPEAT Assigner based on pymatgen
data_DB0-m29_o96_o106_f0_pts.sym.20
_audit_creation_date              2022-05-24
_audit_creation_method            REPEAT_Assigner
_cell_length_a                    17.505715
_cell_length_b                    21.091538
_cell_length_c                    16.696267
_cell_angle_alpha                 93.546693
_cell_angle_beta                  91.060777
_cell_angle_gamma                 97.123266
_cell_volume                      6103.205702
_symmetry_space_group_name_H-M    P1
_symmetry_Int_Tables_number       1
loop_
    _symmetry_equiv_pos_site_id
    _symmetry_equiv_pos_as_xyz
    1  x,y,z
loop_
    _atom_site_type_symbol
    _atom_site_label
    _atom_site_fract_x
    _atom_site_fract_y
    _atom_site_fract_z
    _atom_type_partial_charge
    C   C1   0.206509  0.043887  0.142783  -0.006236
    C   C2   0.161784  0.081180  0.185275  -0.016804
    C   C3   0.090640  0.073974  0.146546  0.450392
    N   N1   0.091476  0.035079  0.079456  -0.527718
    C   C4   0.162750  0.016929  0.076943  0.306373
    C   C5   0.028437  0.097500  0.174382  -0.456018
    C   C6   0.950157  0.076051  0.142095  0.242993
    C   C7   0.886200  0.069185  0.188861  0.037826
    C   C8   0.824600  0.047248  0.139938  -0.009630
    C   C9   0.852160  0.040404  0.063025  0.226934
    N   N2   0.929233  0.058512  0.064773  -0.259352
    C   C10  0.804554  0.016866  0.991071  -0.419443
    C   C11  0.830402  0.983333  0.928861  0.455657
    C   C12  0.785882  0.954368  0.864422  -0.095582
    C   C13  0.831280  0.918522  0.819575  0.036175
    C   C14  0.904611  0.930333  0.855412  0.392865
    N   N3   0.903234  0.969111  0.922792  -0.550129
    C   C15  0.969632  0.913504  0.824528  -0.427832
    C   C16  0.046876  0.937108  0.857997  0.238748
    C   C17  0.111485  0.949041  0.812685  0.021301
    C   C18  0.172234  0.969475  0.863784  0.035325
    C   C19  0.143171  0.968224  0.940742  0.198803
    N   N4   0.066609  0.948401  0.936432  -0.247248
    C   C20  0.187788  0.981919  0.016365  -0.327914
    H   H1   0.033670  0.126117  0.230638  0.158817
    H   H2   0.743820  0.021714  0.992986  0.162051
    H   H3   0.968042  0.889227  0.766138  0.142396
    H   H4   0.245554  0.969146  0.019475  0.140002
    H   H5   0.965139  0.061301  0.015721  0.296954
    H   H6   0.030677  0.939547  0.984637  0.312259
    C   C21  0.118942  0.944522  0.731045  -0.099600
    C   C22  0.191155  0.960114  0.700960  -0.192708
    C   C23  0.254369  0.981758  0.751651  0.110951
    C   C24  0.244847  0.988888  0.834658  -0.100130
    C   C25  0.281213  0.039079  0.166723  -0.199236
    C   C26  0.310203  0.074962  0.235389  0.102901
    C   C27  0.264493  0.114190  0.277840  -0.123637
    C   C28  0.189135  0.116903  0.253697  -0.179420
    C   C29  0.880012  0.077970  0.270389  -0.133236
    C   C30  0.808194  0.064175  0.302216  -0.128293
    C   C31  0.743978  0.042507  0.252911  0.004135
    C   C32  0.751808  0.033897  0.170168  -0.132614
    C   C33  0.710655  0.959273  0.842143  -0.197297
    C   C34  0.680211  0.923873  0.773920  0.141717
    C   C35  0.723906  0.882976  0.732264  -0.102727
    C   C36  0.799884  0.879885  0.753579  -0.052564
    H   H7   0.070490  0.928623  0.690695  0.129885
    H   H8   0.316640  0.009053  0.133147  0.158046
    H   H9   0.286818  0.141783  0.331762  0.134049
    H   H10  0.154073  0.146905  0.287795  0.132928
    H   H11  0.929359  0.094284  0.309380  0.131482
    H   H12  0.702880  0.016125  0.131195  0.161983
    H   H13  0.676385  0.990303  0.875669  0.163530
    H   H14  0.699465  0.854046  0.680174  0.126166
    H   H15  0.197658  0.954575  0.636793  0.162203
    H   H16  0.802831  0.071206  0.366404  0.130847
    O   O1   0.604210  0.024648  0.248133  -0.677689
    C   C37  0.668966  0.029895  0.290496  0.676854
    O   O2   0.567288  0.896900  0.309841  -0.517235
    O   O3   0.666382  0.027563  0.368748  -0.531244
    O   O4   0.489487  0.949916  0.390406  -0.580278
    C   C38  0.523639  0.898801  0.372740  0.542827
    Fe  Fe1  0.516948  0.022328  0.322038  1.527307
    O   O5   0.420482  0.018486  0.254089  -0.643393
    O   O6   0.423327  0.119518  0.310894  -0.630624
    C   C39  0.388347  0.071396  0.265518  0.608658
    O   O7   0.550577  0.099814  0.396064  -0.651880
    O   O8   0.446515  0.063824  0.467976  -0.456428
    C   C40  0.507937  0.105161  0.459672  0.836008
    C   C41  0.602969  0.337285  0.400692  -0.087910
    C   C42  0.555357  0.337765  0.465373  -0.064985
    C   C43  0.517153  0.391323  0.481716  0.108130
    C   C44  0.464884  0.392980  0.543006  -0.115707
    C   C45  0.431408  0.447398  0.561883  -0.050921
    C   C46  0.609308  0.386130  0.349739  -0.146941
    C   C47  0.570027  0.438772  0.363755  0.021980
    C   C48  0.528855  0.443191  0.433548  0.041517
    C   C49  0.497628  0.499000  0.454087  0.007923
    C   C50  0.594912  0.477855  0.231077  -0.192165
    C   C51  0.570027  0.486503  0.309105  0.067167
    C   C52  0.542362  0.543493  0.332061  -0.031701
    C   C53  0.594804  0.525667  0.178942  -0.077481
    C   C54  0.571436  0.583452  0.203008  -0.083788
    C   C55  0.448926  0.500477  0.518753  -0.128718
    C   C56  0.512040  0.551436  0.407147  0.050539
    C   C57  0.496978  0.611894  0.434516  -0.170748
    C   C58  0.544417  0.592636  0.280066  0.215281
    C   C59  0.517440  0.649688  0.304791  -0.275316
    C   C60  0.497913  0.661219  0.383578  0.066139
    H   H17  0.635502  0.297600  0.388446  0.107639
    H   H18  0.448796  0.352164  0.577241  0.113559
    H   H19  0.648357  0.382154  0.301156  0.121003
    H   H20  0.612004  0.433449  0.206795  0.147583
    H   H21  0.614709  0.517927  0.118644  0.100366
    H   H22  0.417337  0.540351  0.532175  0.115327
    H   H23  0.489353  0.621909  0.497561  0.125368
    H   H24  0.512277  0.685894  0.263116  0.153495
    C   C61  0.531887  0.220718  0.470728  -0.129805
    H   H25  0.526527  0.217690  0.405993  0.168830
    C   C62  0.520728  0.164993  0.510515  -0.111372
    C   C63  0.521366  0.168465  0.594375  0.017376
    C   C64  0.539705  0.227761  0.635186  -0.142860
    H   H26  0.543961  0.231716  0.699986  0.130301
    C   C65  0.554654  0.282667  0.594286  -0.092594
    H   H27  0.570612  0.328080  0.627706  0.087027
    C   C66  0.545942  0.279932  0.511699  0.105789
    C   C67  0.627295  0.688663  0.159167  -0.124640
    H   H28  0.662599  0.696032  0.213553  0.111029
    C   C68  0.632865  0.734743  0.103777  -0.170744
    H   H29  0.672201  0.778245  0.114978  0.139893
    C   C69  0.588412  0.725300  0.034039  0.000825
    H   H30  0.592757  0.761461  0.990644  0.080984
    C   C70  0.538737  0.669571  0.019453  -0.022889
    C   C71  0.533222  0.623419  0.074750  -0.083334
    H   H31  0.494143  0.579814  0.063112  0.083587
    C   C72  0.576572  0.633257  0.145306  0.126392
    C   C73  0.321365  0.397449  0.636892  -0.150696
    H   H32  0.316081  0.355971  0.594869  0.109650
    C   C74  0.270545  0.399125  0.698869  -0.087793
    H   H33  0.226983  0.358887  0.705509  0.102902
    C   C75  0.274978  0.452062  0.752154  -0.066569
    H   H34  0.235157  0.453265  0.800775  0.088754
    C   C76  0.330210  0.503471  0.743371  -0.224744
    H   H35  0.333943  0.544929  0.785354  0.180120
    C   C77  0.380968  0.502039  0.681325  -0.103532
    H   H36  0.424763  0.542364  0.676206  0.107834
    C   C78  0.376972  0.448945  0.627699  0.147524
    C   C79  0.512152  0.781183  0.380772  -0.208761
    H   H37  0.544366  0.779126  0.326497  0.142286
    C   C80  0.503332  0.840787  0.416791  0.044199
    C   C81  0.470907  0.844284  0.492031  -0.115207
    C   C82  0.433494  0.789530  0.521370  -0.013170
    H   H38  0.404686  0.791260  0.577982  0.122618
    C   C83  0.436399  0.730931  0.481766  -0.236117
    H   H39  0.405643  0.689569  0.506924  0.121109
    C   C84  0.481329  0.725386  0.414898  0.165016
    O   O9   0.576289  0.985663  0.749207  -0.596121
    O   O10  0.565136  0.882188  0.699205  -0.571168
    C   C85  0.603016  0.930050  0.742880  0.500755
    O   O11  0.441360  0.907109  0.609728  -0.621652
    O   O12  0.546125  0.942875  0.540062  -0.458457
    C   C86  0.483436  0.902472  0.545845  0.796369
    O   O13  0.484144  0.118602  0.716494  -0.529298
    O   O14  0.393774  0.988378  0.755293  -0.589980
    C   C87  0.330191  0.993931  0.714775  0.584395
    O   O15  0.512352  0.054545  0.610061  -0.542521
    C   C88  0.505212  0.111807  0.641753  0.556758
    O   O16  0.333606  0.999816  0.637097  -0.544834
    Fe  Fe2  0.480315  0.984899  0.681188  1.481560
    Br  Br1  0.849740  0.817638  0.692949  -0.033293
    Br  Br2  0.477497  0.656328  0.922877  -0.084259
    Br  Br3  0.325854  0.034057  0.902819  0.051685
