# Generated by REPEAT Assigner based on pymatgen
data_DB0-m9_o12_o21_f0_sra.sym.9_sqe
_audit_creation_date              2022-05-24
_audit_creation_method            REPEAT_Assigner
_cell_length_a                    31.529724
_cell_length_b                    6.351465
_cell_length_c                    21.001350
_cell_angle_alpha                 90.000000
_cell_angle_beta                  59.772727
_cell_angle_gamma                 90.000000
_cell_volume                      3633.898472
_symmetry_space_group_name_H-M    P1
_symmetry_Int_Tables_number       1
loop_
    _symmetry_equiv_pos_site_id
    _symmetry_equiv_pos_as_xyz
    1  x,y,z
loop_
    _atom_site_type_symbol
    _atom_site_label
    _atom_site_fract_x
    _atom_site_fract_y
    _atom_site_fract_z
    _atom_type_partial_charge
    O  O1   0.496690  0.563439  0.835546  -0.354831
    O  O2   0.509417  0.466146  0.158353  -0.540877
    O  O3   0.003311  0.563439  0.664454  -0.354817
    O  O4   0.990583  0.466146  0.341647  -0.540880
    O  O5   0.996690  0.063439  0.835546  -0.354827
    O  O6   0.009417  0.966146  0.158353  -0.540870
    O  O7   0.503311  0.063439  0.664454  -0.354825
    O  O8   0.490583  0.966146  0.341647  -0.540892
    O  O9   0.577290  0.925739  0.686419  -0.514179
    O  O10  0.422226  0.103753  0.306707  -0.448708
    O  O11  0.922710  0.925739  0.813581  -0.514171
    O  O12  0.077774  0.103753  0.193293  -0.448718
    O  O13  0.077290  0.425739  0.686419  -0.514173
    O  O14  0.922226  0.603753  0.306707  -0.448707
    O  O15  0.422710  0.425739  0.813581  -0.514179
    O  O16  0.577774  0.603753  0.193293  -0.448721
    C  C1   0.589993  0.733804  0.658473  0.709901
    C  C2   0.408670  0.298054  0.331363  0.577836
    C  C3   0.910007  0.733804  0.841527  0.709899
    C  C4   0.091330  0.298054  0.168637  0.577878
    C  C5   0.089993  0.233804  0.658473  0.709898
    C  C6   0.908670  0.798054  0.331363  0.577861
    C  C7   0.410007  0.233804  0.841527  0.709903
    C  C8   0.591330  0.798054  0.168637  0.577854
    O  O17  0.516117  0.925814  0.835988  -0.453266
    O  O18  0.490275  0.103261  0.159730  -0.575100
    O  O19  0.983883  0.925814  0.664012  -0.453268
    O  O20  0.009725  0.103261  0.340270  -0.575097
    O  O21  0.016117  0.425814  0.835988  -0.453266
    O  O22  0.990275  0.603261  0.159730  -0.575076
    O  O23  0.483883  0.425814  0.664012  -0.453267
    O  O24  0.509725  0.603261  0.340270  -0.575120
    O  O25  0.438300  0.063460  0.822861  -0.533427
    O  O26  0.562973  0.968025  0.185945  -0.492902
    O  O27  0.061700  0.063460  0.677139  -0.533406
    O  O28  0.937027  0.968025  0.314055  -0.492899
    O  O29  0.938300  0.563460  0.822861  -0.533414
    O  O30  0.062973  0.468025  0.185945  -0.492896
    O  O31  0.561700  0.563460  0.677139  -0.533416
    O  O32  0.437027  0.468025  0.314055  -0.492905
    C  C9   0.506034  0.732851  0.863454  0.410701
    C  C10  0.501404  0.292979  0.129992  0.757366
    C  C11  0.993966  0.732851  0.636546  0.410703
    C  C12  0.998597  0.292979  0.370008  0.757360
    C  C13  0.006034  0.232851  0.863454  0.410697
    C  C14  0.001404  0.792979  0.129992  0.757347
    C  C15  0.493966  0.232851  0.636546  0.410710
    C  C16  0.498597  0.792979  0.370008  0.757382
    O  O33  0.476216  0.777196  0.743419  -0.443007
    O  O34  0.522417  0.253106  0.258332  -0.442488
    O  O35  0.023784  0.777196  0.756581  -0.443005
    O  O36  0.977583  0.253106  0.241668  -0.442453
    O  O37  0.976216  0.277196  0.743419  -0.442978
    O  O38  0.022417  0.753106  0.258332  -0.442463
    O  O39  0.523784  0.277196  0.756581  -0.443007
    O  O40  0.477583  0.753106  0.241668  -0.442479
    V  V1   0.509163  0.024793  0.752554  1.299531
    V  V2   0.491128  0.005118  0.248321  1.236792
    V  V3   0.990837  0.024793  0.747446  1.299444
    V  V4   0.008872  0.005118  0.251679  1.236796
    V  V5   0.009163  0.524793  0.752554  1.299655
    V  V6   0.991128  0.505118  0.248321  1.236771
    V  V7   0.490837  0.524793  0.747446  1.299622
    V  V8   0.508872  0.505118  0.251679  1.236879
    C  C17  0.492649  0.202689  0.568822  -0.190094
    C  C18  0.498729  0.811718  0.439721  -0.433544
    C  C19  0.007351  0.202689  0.931178  -0.190032
    C  C20  0.001271  0.811718  0.060279  -0.433541
    C  C21  0.992649  0.702689  0.568822  -0.190082
    C  C22  0.998729  0.311718  0.439721  -0.433518
    C  C23  0.507351  0.702689  0.931178  -0.190043
    C  C24  0.501271  0.311718  0.060279  -0.433567
    C  C25  0.497419  0.013093  0.539224  0.161326
    C  C26  0.496804  0.996982  0.470331  0.321621
    C  C27  0.002581  0.013093  0.960776  0.161227
    C  C28  0.003196  0.996982  0.029669  0.321662
    C  C29  0.997419  0.513093  0.539224  0.161309
    C  C30  0.996804  0.496982  0.470331  0.321607
    C  C31  0.502581  0.513093  0.960776  0.161244
    C  C32  0.503196  0.496982  0.029669  0.321673
    H  H1   0.501672  0.669915  0.465960  0.237892
    H  H2   0.488312  0.338993  0.541591  0.154605
    H  H3   0.998328  0.669915  0.034040  0.237889
    H  H4   0.011688  0.338993  0.958409  0.154585
    H  H5   0.001672  0.169915  0.465960  0.237886
    H  H6   0.988312  0.838993  0.541591  0.154607
    H  H7   0.498328  0.169915  0.034040  0.237894
    H  H8   0.511688  0.838993  0.958409  0.154582
    C  C33  0.359114  0.206113  0.896194  -0.179084
    C  C34  0.642826  0.826484  0.117301  -0.234126
    C  C35  0.140886  0.206113  0.603806  -0.179089
    C  C36  0.857174  0.826484  0.382699  -0.234137
    C  C37  0.859114  0.706113  0.896194  -0.179089
    C  C38  0.142826  0.326484  0.117301  -0.234149
    C  C39  0.640886  0.706113  0.603806  -0.179084
    C  C40  0.357174  0.326484  0.382699  -0.234117
    C  C41  0.265227  0.176998  0.998660  0.264224
    C  C42  0.737378  0.849142  0.016960  0.016720
    C  C43  0.234773  0.176998  0.501340  0.264247
    C  C44  0.762622  0.849142  0.483040  0.016675
    C  C45  0.765227  0.676998  0.998660  0.264213
    C  C46  0.237378  0.349142  0.016960  0.016703
    C  C47  0.734773  0.676998  0.501340  0.264254
    C  C48  0.262622  0.349142  0.483040  0.016685
    C  C49  0.186011  0.339822  0.072355  0.058708
    C  C50  0.816357  0.689801  0.942749  -0.003349
    C  C51  0.313989  0.339822  0.427645  0.058701
    C  C52  0.683643  0.689801  0.557251  -0.003362
    C  C53  0.686011  0.839822  0.072355  0.058694
    C  C54  0.316357  0.189801  0.942749  -0.003354
    C  C55  0.813989  0.839822  0.427645  0.058708
    C  C56  0.183643  0.189801  0.557251  -0.003358
    O  O41  0.494726  0.177529  0.437309  -0.282294
    C  C57  0.444880  0.221563  0.470758  -0.029113
    H  H9   0.430877  0.285166  0.527008  0.007991
    H  H10  0.424778  0.076016  0.472881  0.009217
    C  C58  0.438965  0.380952  0.423435  -0.033692
    H  H11  0.467791  0.338487  0.366857  0.234558
    H  H12  0.401529  0.371771  0.431260  0.036507
    H  H13  0.446069  0.540873  0.437146  -0.018449
    O  O42  0.502652  0.837726  0.572557  -0.358504
    C  C59  0.553173  0.818110  0.543074  0.550999
    H  H14  0.562791  0.861126  0.585439  -0.139609
    H  H15  0.572538  0.924649  0.494982  -0.086499
    C  C60  0.568528  0.593098  0.518449  -0.346521
    H  H16  0.558894  0.550768  0.476048  0.031350
    H  H17  0.608736  0.577630  0.494852  0.069624
    H  H18  0.549204  0.486077  0.566409  0.104149
    O  O43  0.005274  0.177529  0.062691  -0.282308
    C  C61  0.055120  0.221563  0.029242  -0.029051
    H  H19  0.069123  0.285166  0.972992  0.007977
    H  H20  0.075222  0.076016  0.027119  0.009198
    C  C62  0.061035  0.380952  0.076565  -0.033725
    H  H21  0.032209  0.338487  0.133143  0.234538
    H  H22  0.098471  0.371771  0.068740  0.036511
    H  H23  0.053931  0.540873  0.062854  -0.018443
    O  O44  0.997348  0.837726  0.927443  -0.358465
    C  C63  0.946827  0.818110  0.956926  0.551000
    H  H24  0.937209  0.861126  0.914561  -0.139611
    H  H25  0.927462  0.924649  0.005018  -0.086497
    C  C64  0.931472  0.593098  0.981551  -0.346529
    H  H26  0.941106  0.550768  0.023952  0.031351
    H  H27  0.891264  0.577630  0.005148  0.069626
    H  H28  0.950796  0.486077  0.933591  0.104153
    O  O45  0.994726  0.677529  0.437309  -0.282294
    C  C65  0.944880  0.721563  0.470758  -0.029089
    H  H29  0.930877  0.785166  0.527008  0.007984
    H  H30  0.924778  0.576016  0.472881  0.009212
    C  C66  0.938965  0.880952  0.423435  -0.033710
    H  H31  0.967791  0.838487  0.366857  0.234548
    H  H32  0.901529  0.871771  0.431260  0.036511
    H  H33  0.946069  0.040873  0.437146  -0.018448
    O  O46  0.002652  0.337726  0.572557  -0.358500
    C  C67  0.053173  0.318110  0.543074  0.550979
    H  H34  0.062791  0.361126  0.585439  -0.139602
    H  H35  0.072538  0.424649  0.494982  -0.086490
    C  C68  0.068528  0.093098  0.518449  -0.346520
    H  H36  0.058894  0.050768  0.476048  0.031347
    H  H37  0.108736  0.077630  0.494852  0.069626
    H  H38  0.049204  0.986077  0.566409  0.104151
    O  O47  0.505274  0.677529  0.062691  -0.282308
    C  C69  0.555120  0.721563  0.029242  -0.029070
    H  H39  0.569123  0.785166  0.972992  0.007982
    H  H40  0.575222  0.576016  0.027119  0.009202
    C  C70  0.561035  0.880952  0.076565  -0.033715
    H  H41  0.532209  0.838487  0.133143  0.234550
    H  H42  0.598471  0.871771  0.068740  0.036509
    H  H43  0.553931  0.040873  0.062854  -0.018441
    O  O48  0.497348  0.337726  0.927443  -0.358468
    C  C71  0.446827  0.318110  0.956926  0.551020
    H  H44  0.437209  0.361126  0.914561  -0.139615
    H  H45  0.427462  0.424649  0.005018  -0.086506
    C  C72  0.431472  0.093098  0.981551  -0.346539
    H  H46  0.441106  0.050768  0.023952  0.031356
    H  H47  0.391264  0.077630  0.005148  0.069627
    H  H48  0.450796  0.986077  0.933591  0.104154
    O  O49  0.257430  0.533991  0.980627  -0.299953
    C  C73  0.267000  0.498684  0.908976  0.378603
    H  H49  0.232123  0.469005  0.909605  -0.057699
    H  H50  0.291368  0.360104  0.885302  -0.055659
    C  C74  0.292299  0.689625  0.861738  -0.233734
    H  H51  0.327280  0.718094  0.860895  0.084196
    H  H52  0.300053  0.660952  0.804770  0.050030
    H  H53  0.268287  0.829669  0.884685  0.037571
    O  O50  0.745866  0.489657  0.033664  -0.330905
    C  C75  0.698211  0.485364  0.045407  0.393816
    H  H54  0.695442  0.590256  0.005434  -0.009178
    H  H55  0.672129  0.531369  0.103108  -0.000816
    C  C76  0.685648  0.264535  0.034563  -0.391953
    H  H56  0.694769  0.157779  0.067486  0.162287
    H  H57  0.645891  0.254346  0.053697  0.046676
    H  H58  0.707050  0.223238  0.975392  0.108694
    O  O51  0.242570  0.533991  0.519373  -0.299950
    C  C77  0.233000  0.498684  0.591024  0.378605
    H  H59  0.267877  0.469005  0.590395  -0.057698
    H  H60  0.208632  0.360104  0.614698  -0.055661
    C  C78  0.207701  0.689625  0.638262  -0.233727
    H  H61  0.172720  0.718094  0.639105  0.084195
    H  H62  0.199947  0.660952  0.695230  0.050028
    H  H63  0.231713  0.829669  0.615314  0.037567
    O  O52  0.754134  0.489657  0.466336  -0.330904
    C  C79  0.801789  0.485364  0.454593  0.393766
    H  H64  0.804558  0.590256  0.494566  -0.009164
    H  H65  0.827871  0.531369  0.396892  -0.000805
    C  C80  0.814352  0.264535  0.465437  -0.391905
    H  H66  0.805231  0.157779  0.432514  0.162280
    H  H67  0.854109  0.254346  0.446303  0.046665
    H  H68  0.792950  0.223238  0.524608  0.108682
    O  O53  0.757430  0.033991  0.980627  -0.299962
    C  C81  0.767000  0.998684  0.908976  0.378608
    H  H69  0.732123  0.969005  0.909605  -0.057699
    H  H70  0.791368  0.860104  0.885302  -0.055661
    C  C82  0.792299  0.189625  0.861738  -0.233738
    H  H71  0.827280  0.218094  0.860895  0.084199
    H  H72  0.800053  0.160952  0.804770  0.050030
    H  H73  0.768287  0.329669  0.884685  0.037573
    O  O54  0.245866  0.989657  0.033664  -0.330905
    C  C83  0.198211  0.985364  0.045407  0.393797
    H  H74  0.195442  0.090256  0.005434  -0.009172
    H  H75  0.172129  0.031369  0.103108  -0.000812
    C  C84  0.185648  0.764535  0.034563  -0.391941
    H  H76  0.194769  0.657779  0.067486  0.162286
    H  H77  0.145891  0.754346  0.053697  0.046673
    H  H78  0.207050  0.723238  0.975392  0.108693
    O  O55  0.742570  0.033991  0.519373  -0.299945
    C  C85  0.733000  0.998684  0.591024  0.378605
    H  H79  0.767877  0.969005  0.590395  -0.057698
    H  H80  0.708632  0.860104  0.614698  -0.055661
    C  C86  0.707701  0.189625  0.638262  -0.233725
    H  H81  0.672720  0.218094  0.639105  0.084192
    H  H82  0.699947  0.160952  0.695230  0.050027
    H  H83  0.731713  0.329669  0.615314  0.037565
    O  O56  0.254134  0.989657  0.466336  -0.330908
    C  C87  0.301789  0.985364  0.454593  0.393793
    H  H84  0.304558  0.090256  0.494566  -0.009173
    H  H85  0.327871  0.031369  0.396892  -0.000813
    C  C88  0.314352  0.764535  0.465437  -0.391920
    H  H86  0.305231  0.657779  0.432514  0.162281
    H  H87  0.354109  0.754346  0.446303  0.046668
    H  H88  0.292950  0.723238  0.524608  0.108684
