data_DB0-m29_o96_o490_f0_pts.sym.48_repeat
_audit_creation_date              2024-02-23
_audit_creation_method            'Materials Studio'
_symmetry_space_group_name_H-M    'P1'
_symmetry_Int_Tables_number       1
_symmetry_cell_setting            triclinic
loop_
_symmetry_equiv_pos_as_xyz
  x,y,z
_cell_length_a                    17.3898
_cell_length_b                    11.9498
_cell_length_c                    18.8743
_cell_angle_alpha                 88.7612
_cell_angle_beta                  90.6245
_cell_angle_gamma                 108.8199
loop_
_atom_site_label
_atom_site_type_symbol
_atom_site_fract_x
_atom_site_fract_y
_atom_site_fract_z
_atom_site_U_iso_or_equiv
_atom_site_adp_type
_atom_site_occupancy
C1     C     0.21888   0.00652   0.10623   0.00000  Uiso   1.00
C2     C     0.16443   0.96620   0.15948   0.00000  Uiso   1.00
C3     C     0.08994   0.96603   0.13389   0.00000  Uiso   1.00
N1     N     0.09651   0.00033   0.06492   0.00000  Uiso   1.00
C4     C     0.17559   0.02380   0.04762   0.00000  Uiso   1.00
C5     C     0.02283   0.94374   0.17295   0.00000  Uiso   1.00
C6     C     0.94917   0.96774   0.14808   0.00000  Uiso   1.00
C7     C     0.89556   0.00273   0.18958   0.00000  Uiso   1.00
C8     C     0.82984   0.99653   0.14776   0.00000  Uiso   1.00
C9     C     0.84569   0.96300   0.08123   0.00000  Uiso   1.00
N2     N     0.91804   0.94374   0.08226   0.00000  Uiso   1.00
C10    C     0.79343   0.95470   0.01839   0.00000  Uiso   1.00
C11    C     0.82335   0.98028   0.95291   0.00000  Uiso   1.00
C12    C     0.78007   0.99763   0.89430   0.00000  Uiso   1.00
C13    C     0.83450   0.03775   0.84103   0.00000  Uiso   1.00
C14    C     0.90896   0.03775   0.86660   0.00000  Uiso   1.00
N3     N     0.90239   0.00356   0.93559   0.00000  Uiso   1.00
C15    C     0.97599   0.05963   0.82750   0.00000  Uiso   1.00
C16    C     0.04964   0.03566   0.85245   0.00000  Uiso   1.00
C17    C     0.10321   0.00046   0.81104   0.00000  Uiso   1.00
C18    C     0.16894   0.00681   0.85286   0.00000  Uiso   1.00
C19    C     0.15317   0.04070   0.91931   0.00000  Uiso   1.00
N4     N     0.08084   0.06000   0.91823   0.00000  Uiso   1.00
C20    C     0.20550   0.04936   0.98214   0.00000  Uiso   1.00
H1     H     0.02473   0.91754   0.22789   0.00000  Uiso   1.00
H2     H     0.73010   0.94434   0.02696   0.00000  Uiso   1.00
H3     H     0.97401   0.08541   0.77248   0.00000  Uiso   1.00
H4     H     0.26884   0.05984   0.97356   0.00000  Uiso   1.00
H5     H     0.94259   0.90802   0.04186   0.00000  Uiso   1.00
H6     H     0.05642   0.09610   0.95854   0.00000  Uiso   1.00
C21    C     0.10023   0.96401   0.74144   0.00000  Uiso   1.00
C22    C     0.16886   0.94544   0.71445   0.00000  Uiso   1.00
C23    C     0.23711   0.95632   0.75638   0.00000  Uiso   1.00
C24    C     0.23651   0.98417   0.82739   0.00000  Uiso   1.00
C25    C     0.30061   0.02480   0.11648   0.00000  Uiso   1.00
C26    C     0.32493   0.99620   0.18264   0.00000  Uiso   1.00
C27    C     0.26804   0.94895   0.23572   0.00000  Uiso   1.00
C28    C     0.18710   0.93558   0.22498   0.00000  Uiso   1.00
C29    C     0.89851   0.03900   0.25922   0.00000  Uiso   1.00
C30    C     0.82986   0.05751   0.28622   0.00000  Uiso   1.00
C31    C     0.76164   0.04683   0.24429   0.00000  Uiso   1.00
C32    C     0.76226   0.01916   0.17325   0.00000  Uiso   1.00
C33    C     0.69835   0.97944   0.88407   0.00000  Uiso   1.00
C34    C     0.67401   0.00793   0.81789   0.00000  Uiso   1.00
C35    C     0.73089   0.05506   0.76479   0.00000  Uiso   1.00
C36    C     0.81182   0.06834   0.77551   0.00000  Uiso   1.00
H7     H     0.28874   0.99265   0.86090   0.00000  Uiso   1.00
H8     H     0.34473   0.06134   0.07526   0.00000  Uiso   1.00
H9     H     0.28707   0.92759   0.28753   0.00000  Uiso   1.00
H10    H     0.14415   0.90222   0.26742   0.00000  Uiso   1.00
H11    H     0.71006   0.01082   0.13974   0.00000  Uiso   1.00
H12    H     0.65423   0.94301   0.92530   0.00000  Uiso   1.00
H13    H     0.71185   0.07638   0.71297   0.00000  Uiso   1.00
H14    H     0.85477   0.10160   0.73305   0.00000  Uiso   1.00
H15    H     0.16801   0.91857   0.66010   0.00000  Uiso   1.00
H16    H     0.83066   0.08426   0.34059   0.00000  Uiso   1.00
O1     O     0.62305   0.05127   0.23965   0.00000  Uiso   1.00
C37    C     0.68857   0.05922   0.27730   0.00000  Uiso   1.00
O2     O     0.55512   0.81079   0.32038   0.00000  Uiso   1.00
O3     O     0.68550   0.06544   0.34648   0.00000  Uiso   1.00
O4     O     0.51194   0.93028   0.38983   0.00000  Uiso   1.00
C38    C     0.52374   0.82864   0.38028   0.00000  Uiso   1.00
Fe1    Fe    0.53031   0.03289   0.30380   0.00000  Uiso   1.00
O5     O     0.42855   0.95385   0.24888   0.00000  Uiso   1.00
O6     O     0.46351   0.12403   0.18276   0.00000  Uiso   1.00
C39    C     0.41052   0.02154   0.20047   0.00000  Uiso   1.00
O7     O     0.55320   0.19903   0.33692   0.00000  Uiso   1.00
O8     O     0.41954   0.11571   0.35882   0.00000  Uiso   1.00
C40    C     0.48650   0.20511   0.36671   0.00000  Uiso   1.00
C41    C     0.48764   0.20875   0.49354   0.00000  Uiso   1.00
C42    C     0.48625   0.25762   0.55879   0.00000  Uiso   1.00
C43    C     0.49435   0.37785   0.56196   0.00000  Uiso   1.00
C44    C     0.50159   0.43560   0.62594   0.00000  Uiso   1.00
C45    C     0.50427   0.55150   0.62810   0.00000  Uiso   1.00
C46    C     0.49343   0.27270   0.43175   0.00000  Uiso   1.00
C47    C     0.49589   0.38953   0.43413   0.00000  Uiso   1.00
C48    C     0.49724   0.44275   0.49916   0.00000  Uiso   1.00
C49    C     0.50144   0.56113   0.50134   0.00000  Uiso   1.00
C50    C     0.50281   0.61434   0.56637   0.00000  Uiso   1.00
C51    C     0.50530   0.73118   0.56874   0.00000  Uiso   1.00
C52    C     0.49441   0.45235   0.37240   0.00000  Uiso   1.00
C53    C     0.49706   0.56824   0.37456   0.00000  Uiso   1.00
C54    C     0.50431   0.62601   0.43853   0.00000  Uiso   1.00
C55    C     0.51241   0.74625   0.44169   0.00000  Uiso   1.00
C56    C     0.51106   0.79512   0.50695   0.00000  Uiso   1.00
H17    H     0.50741   0.39427   0.67590   0.00000  Uiso   1.00
H18    H     0.50854   0.59173   0.67931   0.00000  Uiso   1.00
H19    H     0.49014   0.41212   0.32120   0.00000  Uiso   1.00
H20    H     0.49118   0.60950   0.32459   0.00000  Uiso   1.00
H21    H     0.48149   0.11637   0.48902   0.00000  Uiso   1.00
H22    H     0.51719   0.88749   0.51147   0.00000  Uiso   1.00
O9     O     0.57039   0.05021   0.75165   0.00000  Uiso   1.00
O10    O     0.53546   0.88003   0.81776   0.00000  Uiso   1.00
C57    C     0.58842   0.98255   0.80008   0.00000  Uiso   1.00
O11    O     0.44564   0.80490   0.66364   0.00000  Uiso   1.00
O12    O     0.57927   0.88823   0.64160   0.00000  Uiso   1.00
C58    C     0.51231   0.79881   0.63378   0.00000  Uiso   1.00
O13    O     0.44331   0.19294   0.68001   0.00000  Uiso   1.00
O14    O     0.37583   0.95267   0.76100   0.00000  Uiso   1.00
C59    C     0.31020   0.94408   0.72338   0.00000  Uiso   1.00
O15    O     0.48690   0.07371   0.61068   0.00000  Uiso   1.00
C60    C     0.47489   0.17523   0.62019   0.00000  Uiso   1.00
O16    O     0.31318   0.93746   0.65422   0.00000  Uiso   1.00
Fe2    Fe    0.46855   0.97115   0.69673   0.00000  Uiso   1.00
C61    C     0.97167   0.06758   0.30409   0.00000  Uiso   1.00
O17    O     0.96481   0.05014   0.36797   0.00000  Uiso   1.00
O18    O     0.04524   0.12528   0.27625   0.00000  Uiso   1.00
C62    C     0.11324   0.16064   0.31842   0.00000  Uiso   1.00
H23    H     0.16701   0.20487   0.28506   0.00000  Uiso   1.00
H24    H     0.12225   0.08260   0.34567   0.00000  Uiso   1.00
H25    H     0.10645   0.22386   0.35815   0.00000  Uiso   1.00
C63    C     0.02705   0.93533   0.69663   0.00000  Uiso   1.00
O19    O     0.03383   0.95303   0.63276   0.00000  Uiso   1.00
O20    O     0.95358   0.87717   0.72448   0.00000  Uiso   1.00
C64    C     0.88557   0.84153   0.68235   0.00000  Uiso   1.00
H26    H     0.83194   0.79658   0.71571   0.00000  Uiso   1.00
H27    H     0.89262   0.77882   0.64240   0.00000  Uiso   1.00
H28    H     0.87614   0.91950   0.65537   0.00000  Uiso   1.00
