data_DB0-m3_o12_o29_f0_pcu_repeat
_audit_creation_date              2024-02-20
_audit_creation_method            'Materials Studio'
_symmetry_space_group_name_H-M    'P1'
_symmetry_Int_Tables_number       1
_symmetry_cell_setting            triclinic
loop_
_symmetry_equiv_pos_as_xyz
  x,y,z
_cell_length_a                    10.0958
_cell_length_b                    11.2178
_cell_length_c                    27.7185
_cell_angle_alpha                 90.0613
_cell_angle_beta                  99.2980
_cell_angle_gamma                 110.8099
loop_
_atom_site_label
_atom_site_type_symbol
_atom_site_fract_x
_atom_site_fract_y
_atom_site_fract_z
_atom_site_U_iso_or_equiv
_atom_site_adp_type
_atom_site_occupancy
O1     O     0.12422   0.01937   0.07878   0.00000  Uiso   1.00
O2     O     0.87564   0.98026   0.92126   0.00000  Uiso   1.00
O3     O     0.88409   0.98378   0.06574   0.00000  Uiso   1.00
O4     O     0.11616   0.01754   0.93433   0.00000  Uiso   1.00
C1     C     0.00511   0.00196   0.09585   0.00000  Uiso   1.00
C2     C     0.99496   0.99854   0.90421   0.00000  Uiso   1.00
O5     O     0.16536   0.20613   0.00903   0.00000  Uiso   1.00
O6     O     0.83470   0.79433   0.99126   0.00000  Uiso   1.00
O7     O     0.92468   0.16927   0.99584   0.00000  Uiso   1.00
O8     O     0.07536   0.83118   0.00399   0.00000  Uiso   1.00
C3     C     0.05875   0.24861   0.00317   0.00000  Uiso   1.00
C4     C     0.94130   0.75185   0.99689   0.00000  Uiso   1.00
Zn1    Zn    0.15787   0.02378   0.00846   0.00000  Uiso   1.00
Zn2    Zn    0.84218   0.97668   0.99159   0.00000  Uiso   1.00
H1     H     0.64919   0.08642   0.03202   0.00000  Uiso   1.00
H2     H     0.35086   0.91407   0.96802   0.00000  Uiso   1.00
N1     N     0.36923   0.05286   0.01929   0.00000  Uiso   1.00
N2     N     0.63082   0.94760   0.98077   0.00000  Uiso   1.00
C5     C     0.42213   0.98783   0.99534   0.00000  Uiso   1.00
C6     C     0.57792   0.01265   0.00471   0.00000  Uiso   1.00
H3     H     0.55477   0.88008   0.95574   0.00000  Uiso   1.00
H4     H     0.44528   0.12037   0.04431   0.00000  Uiso   1.00
H5     H     0.12798   0.63310   0.00685   0.00000  Uiso   1.00
H6     H     0.87207   0.36735   0.99308   0.00000  Uiso   1.00
C7     C     0.08997   0.38609   0.00485   0.00000  Uiso   1.00
C8     C     0.91008   0.61437   0.99520   0.00000  Uiso   1.00
C9     C     0.98349   0.43132   0.99909   0.00000  Uiso   1.00
C10    C     0.01655   0.56914   0.00088   0.00000  Uiso   1.00
H7     H     0.79911   0.54921   0.98928   0.00000  Uiso   1.00
H8     H     0.20095   0.45125   0.01085   0.00000  Uiso   1.00
C11    C     0.97692   0.09447   0.32286   0.00000  Uiso   1.00
C12    C     0.03859   0.91425   0.67811   0.00000  Uiso   1.00
O9     O     0.94977   0.18644   0.29663   0.00000  Uiso   1.00
O10    O     0.08094   0.83088   0.70528   0.00000  Uiso   1.00
N3     N     0.00897   0.00395   0.30055   0.00000  Uiso   1.00
N4     N     0.99111   0.99573   0.69944   0.00000  Uiso   1.00
C13    C     0.03960   0.91276   0.32653   0.00000  Uiso   1.00
C14    C     0.94488   0.07760   0.67239   0.00000  Uiso   1.00
C15    C     0.88362   0.98948   0.21679   0.00000  Uiso   1.00
C16    C     0.11888   0.02138   0.78342   0.00000  Uiso   1.00
C17    C     0.88251   0.98867   0.16699   0.00000  Uiso   1.00
C18    C     0.11987   0.02197   0.83321   0.00000  Uiso   1.00
C19    C     0.13189   0.01724   0.18116   0.00000  Uiso   1.00
C20    C     0.86597   0.97306   0.81876   0.00000  Uiso   1.00
C21    C     0.13256   0.01739   0.23099   0.00000  Uiso   1.00
C22    C     0.86517   0.97226   0.76893   0.00000  Uiso   1.00
C23    C     0.00850   0.00371   0.24901   0.00000  Uiso   1.00
C24    C     0.99161   0.99638   0.75102   0.00000  Uiso   1.00
C25    C     0.00519   0.00214   0.39989   0.00000  Uiso   1.00
C26    C     0.99468   0.99714   0.60004   0.00000  Uiso   1.00
C27    C     0.97437   0.09445   0.37265   0.00000  Uiso   1.00
C28    C     0.04105   0.91414   0.62832   0.00000  Uiso   1.00
C29    C     0.94282   0.18745   0.39536   0.00000  Uiso   1.00
C30    C     0.09104   0.83197   0.60682   0.00000  Uiso   1.00
C31    C     0.03839   0.91100   0.37640   0.00000  Uiso   1.00
C32    C     0.94600   0.07912   0.62251   0.00000  Uiso   1.00
C33    C     0.00670   0.00270   0.14887   0.00000  Uiso   1.00
C34    C     0.99340   0.99783   0.85119   0.00000  Uiso   1.00
H9     H     0.23034   0.02846   0.16792   0.00000  Uiso   1.00
H10    H     0.76565   0.95350   0.83190   0.00000  Uiso   1.00
H11    H     0.23129   0.02963   0.25588   0.00000  Uiso   1.00
H12    H     0.76454   0.95128   0.74397   0.00000  Uiso   1.00
H13    H     0.92125   0.26285   0.37521   0.00000  Uiso   1.00
H14    H     0.13086   0.76740   0.62816   0.00000  Uiso   1.00
C35    C     0.95452   0.08599   0.52246   0.00000  Uiso   1.00
C36    C     0.03820   0.90899   0.47700   0.00000  Uiso   1.00
C37    C     0.04248   0.91183   0.52781   0.00000  Uiso   1.00
C38    C     0.96436   0.09151   0.47259   0.00000  Uiso   1.00
C39    C     0.99718   0.99829   0.54994   0.00000  Uiso   1.00
C40    C     0.00262   0.00090   0.44999   0.00000  Uiso   1.00
C41    C     0.90163   0.16549   0.54573   0.00000  Uiso   1.00
C42    C     0.06745   0.81550   0.45217   0.00000  Uiso   1.00
C43    C     0.89805   0.16215   0.59500   0.00000  Uiso   1.00
C44    C     0.06779   0.81697   0.40269   0.00000  Uiso   1.00
O11    O     0.90115   0.16051   0.69431   0.00000  Uiso   1.00
O12    O     0.06813   0.82144   0.30353   0.00000  Uiso   1.00
C45    C     0.93818   0.18650   0.44456   0.00000  Uiso   1.00
C46    C     0.09231   0.83084   0.55740   0.00000  Uiso   1.00
H15    H     0.22100   0.04212   0.85775   0.00000  Uiso   1.00
H16    H     0.78322   0.97698   0.14256   0.00000  Uiso   1.00
H17    H     0.21888   0.04194   0.76994   0.00000  Uiso   1.00
H18    H     0.78550   0.97744   0.23044   0.00000  Uiso   1.00
H19    H     0.85637   0.22586   0.61133   0.00000  Uiso   1.00
H20    H     0.09126   0.74250   0.38516   0.00000  Uiso   1.00
H21    H     0.85763   0.23039   0.52698   0.00000  Uiso   1.00
H22    H     0.08713   0.73616   0.46930   0.00000  Uiso   1.00
H23    H     0.91710   0.26515   0.45939   0.00000  Uiso   1.00
H24    H     0.13767   0.76649   0.54419   0.00000  Uiso   1.00
