# Generated by REPEAT Assigner based on pymatgen
data_DB0-m2_o27_o28_f0_pcu.sym.88_sqe
_audit_creation_date              2022-05-24
_audit_creation_method            REPEAT_Assigner
_cell_length_a                    19.230422
_cell_length_b                    17.781819
_cell_length_c                    23.346934
_cell_angle_alpha                 90.000000
_cell_angle_beta                  90.007110
_cell_angle_gamma                 90.000000
_cell_volume                      7983.527778
_symmetry_space_group_name_H-M    P1
_symmetry_Int_Tables_number       1
loop_
    _symmetry_equiv_pos_site_id
    _symmetry_equiv_pos_as_xyz
    1  x,y,z
loop_
    _atom_site_type_symbol
    _atom_site_label
    _atom_site_fract_x
    _atom_site_fract_y
    _atom_site_fract_z
    _atom_type_partial_charge
    O   O1   0.399209  0.558955  0.503519  -0.618463
    O   O2   0.601041  0.430245  0.495231  -0.636212
    O   O3   0.601225  0.559335  0.499289  -0.625498
    O   O4   0.399009  0.429820  0.499377  -0.612372
    C   C1   0.366490  0.494413  0.501994  0.700845
    C   C2   0.633764  0.494779  0.496836  0.734080
    O   O5   0.499993  0.558924  0.416146  -0.603870
    O   O6   0.500248  0.430234  0.582554  -0.679714
    O   O7   0.505215  0.559338  0.582540  -0.576488
    O   O8   0.495150  0.429913  0.416142  -0.679638
    C   C3   0.495848  0.494509  0.389166  0.885418
    C   C4   0.504439  0.494725  0.609510  0.867047
    Cu  Cu1  0.500143  0.569734  0.499380  0.752988
    Cu  Cu2  0.500100  0.419460  0.499309  0.981697
    C   C5   0.563314  0.480127  0.881831  0.423758
    C   C6   0.436290  0.484959  0.116853  0.440295
    N   N1   0.503066  0.483513  0.852323  -0.089340
    N   N2   0.496594  0.483195  0.146355  -0.102229
    C   C7   0.441513  0.485436  0.880002  0.418887
    C   C8   0.558105  0.480028  0.118687  0.420476
    C   C9   0.439333  0.484271  0.939193  -0.113916
    C   C10  0.560210  0.478952  0.059493  -0.113497
    C   C11  0.500415  0.481500  0.969804  0.099584
    C   C12  0.499112  0.481419  0.028881  0.098824
    C   C13  0.562823  0.479265  0.941050  -0.112223
    C   C14  0.436724  0.484251  0.057633  -0.117839
    C   C15  0.376575  0.486641  0.967980  -0.056081
    C   C16  0.622952  0.476251  0.030706  -0.056602
    C   C17  0.375273  0.486551  0.026983  -0.066092
    C   C18  0.624251  0.476326  0.971701  -0.066257
    O   O9   0.623985  0.476357  0.853418  -0.482162
    O   O10  0.375542  0.486268  0.145281  -0.490493
    O   O11  0.382184  0.490578  0.849842  -0.485286
    O   O12  0.617605  0.480025  0.148874  -0.486850
    H   H1   0.327822  0.488777  0.945047  0.126079
    H   H2   0.671710  0.474249  0.053641  0.127351
    H   H3   0.325544  0.488697  0.048439  0.126505
    H   H4   0.673991  0.474449  0.950249  0.124932
    C   C19  0.521783  0.427688  0.239329  -0.249552
    C   C20  0.473471  0.430566  0.759356  -0.226903
    H   H5   0.543034  0.378680  0.218259  0.154379
    H   H6   0.448418  0.383706  0.780429  0.151350
    C   C21  0.520949  0.431159  0.298274  0.004559
    C   C22  0.474498  0.433943  0.700415  -0.015491
    H   H7   0.542715  0.384895  0.322343  0.113315
    H   H8   0.449094  0.389876  0.676375  0.117330
    C   C23  0.494302  0.493451  0.326192  -0.320085
    C   C24  0.506002  0.493502  0.672475  -0.298371
    C   C25  0.466402  0.551940  0.293834  0.333824
    C   C26  0.538598  0.549103  0.704786  0.306710
    C   C27  0.467556  0.547912  0.234854  -0.186847
    C   C28  0.537159  0.545244  0.763768  -0.167352
    H   H9   0.446272  0.593817  0.210077  0.082179
    H   H10  0.562100  0.588986  0.788503  0.085128
    C   C29  0.495371  0.486245  0.207397  0.221743
    C   C30  0.504487  0.486449  0.791271  0.193341
    C   C31  0.254103  0.561644  0.503323  -0.085440
    C   C32  0.746256  0.427805  0.494217  -0.140400
    C   C33  0.746166  0.561724  0.500553  -0.081687
    C   C34  0.253980  0.427497  0.500919  -0.160970
    H   H11  0.281193  0.614869  0.504171  0.079448
    H   H12  0.719243  0.374641  0.491523  0.117405
    H   H13  0.719095  0.614870  0.503035  0.084078
    H   H14  0.280961  0.374213  0.500002  0.120980
    C   C35  0.182418  0.561742  0.503005  0.113249
    C   C36  0.817935  0.427788  0.495019  0.146191
    C   C37  0.817837  0.561747  0.501325  0.115300
    C   C38  0.182308  0.427565  0.500569  0.157651
    H   H15  0.155602  0.615111  0.503720  0.030939
    H   H16  0.844825  0.374531  0.492835  0.019834
    H   H17  0.844640  0.614994  0.504260  0.029272
    H   H18  0.155423  0.374248  0.499454  0.018221
    C   C39  0.146024  0.494688  0.501579  -0.507992
    C   C40  0.854229  0.494772  0.498570  -0.508345
    C   C41  0.290295  0.494522  0.502314  -0.017547
    C   C42  0.709961  0.494767  0.496920  -0.042044
    N   N3   0.034505  0.429438  0.498467  -0.339194
    N   N4   0.965745  0.560064  0.501982  -0.338951
    N   N5   0.965780  0.429452  0.497721  -0.335634
    N   N6   0.034475  0.560049  0.502697  -0.336955
    C   C43  0.930547  0.494765  0.499460  0.909923
    C   C44  0.069706  0.494732  0.500946  0.908532
    C   C45  0.544599  0.269619  0.533580  0.007717
    C   C46  0.448230  0.719660  0.473125  -0.153027
    C   C47  0.453232  0.269388  0.467485  -0.006035
    C   C48  0.548990  0.719852  0.529099  -0.177611
    H   H19  0.581130  0.300402  0.559809  0.107975
    H   H20  0.408125  0.689071  0.450633  0.235508
    H   H21  0.416950  0.299904  0.440857  0.119359
    H   H22  0.589464  0.689469  0.551285  0.243077
    C   C49  0.544476  0.192104  0.535085  0.077668
    C   C50  0.446375  0.797161  0.473767  0.127158
    C   C51  0.451359  0.191891  0.468160  0.082315
    C   C52  0.548554  0.797334  0.530945  0.140658
    H   H23  0.581213  0.163576  0.562540  0.032063
    H   H24  0.404705  0.825673  0.451591  0.017433
    H   H25  0.413590  0.163203  0.441776  0.031574
    H   H26  0.589019  0.825979  0.554492  0.013551
    C   C53  0.497625  0.152401  0.501968  -0.440693
    C   C54  0.497197  0.836858  0.502615  -0.437562
    N   N7   0.500196  0.306974  0.499262  -0.055243
    N   N8   0.500165  0.682240  0.499286  0.102717
    N   N9   0.449072  0.031765  0.472361  -0.332069
    N   N10  0.544760  0.957501  0.533276  -0.318061
    N   N11  0.544851  0.031834  0.533137  -0.330321
    N   N12  0.448905  0.957431  0.472581  -0.317011
    C   C55  0.496784  0.919385  0.503005  0.866705
    C   C56  0.497057  0.069880  0.502626  0.898084
    S   S1   0.424764  0.631932  0.325419  -0.219138
    C   C57  0.343943  0.581163  0.336354  -0.067125
    H   H27  0.343693  0.555378  0.379580  0.035636
    H   H28  0.338527  0.536720  0.303344  0.049533
    H   H29  0.299638  0.620710  0.332309  0.072829
    S   S2   0.586705  0.624643  0.673086  -0.213558
    C   C58  0.663754  0.566883  0.663929  -0.092619
    H   H30  0.656478  0.528049  0.627268  0.044500
    H   H31  0.673709  0.534406  0.703634  0.053904
    H   H32  0.709080  0.603761  0.655394  0.087342
