# Generated by REPEAT Assigner based on pymatgen
data_DB0-m3_o7_o16_f0_pcu.sym.82_sqe
_audit_creation_date              2022-05-24
_audit_creation_method            REPEAT_Assigner
_cell_length_a                    13.607424
_cell_length_b                    16.597041
_cell_length_c                    17.768549
_cell_angle_alpha                 90.000315
_cell_angle_beta                  89.988558
_cell_angle_gamma                 73.878479
_cell_volume                      3855.093960
_symmetry_space_group_name_H-M    P1
_symmetry_Int_Tables_number       1
loop_
    _symmetry_equiv_pos_site_id
    _symmetry_equiv_pos_as_xyz
    1  x,y,z
loop_
    _atom_site_type_symbol
    _atom_site_label
    _atom_site_fract_x
    _atom_site_fract_y
    _atom_site_fract_z
    _atom_type_partial_charge
    O   O1   0.494413  0.432275  0.597745  -0.667758
    O   O2   0.486906  0.572832  0.598787  -0.662796
    C   C1   0.488130  0.502849  0.633482  0.734692
    O   O3   0.653709  0.399904  0.491844  -0.702762
    O   O4   0.647865  0.539809  0.493528  -0.666410
    C   C2   0.699148  0.460293  0.493121  0.823891
    Zn  Zn1  0.501516  0.412173  0.485101  1.041097
    Zn  Zn2  0.495809  0.596613  0.487584  1.053812
    O   O5   0.510425  0.436214  0.373923  -0.628690
    O   O6   0.504125  0.576306  0.374969  -0.653956
    O   O7   0.349259  0.468919  0.480595  -0.624145
    O   O8   0.343634  0.609111  0.480687  -0.697415
    C   C3   0.509552  0.505999  0.339109  0.706176
    C   C4   0.298714  0.548586  0.478722  0.737746
    C   C5   0.034526  0.658337  0.418245  -0.246176
    H   H1   0.175896  0.689128  0.418740  0.111027
    H   H2   0.848663  0.668224  0.378459  0.126815
    H   H3   0.995667  0.715004  0.388451  0.123936
    C   C6   0.187490  0.569920  0.469666  -0.085078
    C   C7   0.857933  0.364496  0.537898  -0.273197
    C   C8   0.959951  0.344574  0.555611  0.318145
    C   C9   0.016816  0.398615  0.537030  -0.344301
    C   C10  0.973944  0.471826  0.496295  0.048966
    C   C11  0.870915  0.489858  0.475977  0.173137
    C   C12  0.031109  0.527445  0.475234  0.054036
    C   C13  0.983103  0.600047  0.436379  0.209879
    C   C14  0.884038  0.613990  0.412548  -0.236829
    C   C15  0.829759  0.558284  0.429680  -0.209295
    C   C16  0.135345  0.512668  0.490346  -0.122894
    C   C17  0.136121  0.644069  0.435726  -0.091623
    C   C18  0.811616  0.437748  0.500238  -0.199025
    H   H4   0.179852  0.456538  0.517193  0.078450
    H   H5   0.813342  0.323847  0.557126  0.169445
    H   H6   0.095043  0.380428  0.555130  0.171818
    H   H7   0.755497  0.569710  0.404062  0.145225
    C   C19  0.512429  0.430800  0.139666  0.142881
    C   C20  0.515001  0.431891  0.217878  -0.205946
    H   H8   0.519104  0.376103  0.250011  0.088132
    C   C21  0.511323  0.505294  0.256414  -0.050625
    C   C22  0.506252  0.577826  0.216663  -0.112525
    H   H9   0.503064  0.635853  0.245439  0.102937
    C   C23  0.503861  0.577086  0.139182  -0.167926
    H   H10  0.499073  0.634115  0.108225  0.128482
    C   C24  0.506398  0.504329  0.100865  0.097939
    C   C25  0.501513  0.505668  0.020079  -0.081576
    C   C26  0.497141  0.505644  0.952333  -0.216529
    C   C27  0.495941  0.431703  0.833826  -0.177156
    H   H11  0.501929  0.374630  0.865036  0.105872
    C   C28  0.493186  0.430799  0.756187  -0.076605
    H   H12  0.497346  0.372494  0.727574  0.100319
    C   C29  0.486626  0.503535  0.716052  -0.098823
    C   C30  0.481812  0.577103  0.754501  -0.054002
    H   H13  0.476786  0.634889  0.724763  0.100266
    C   C31  0.484554  0.577677  0.831999  -0.225688
    H   H14  0.481567  0.635165  0.861670  0.136814
    C   C32  0.492152  0.505011  0.871682  0.298251
    C   C33  0.567583  0.158572  0.540938  -0.318370
    H   H15  0.613761  0.121027  0.584624  0.161694
    C   C34  0.560836  0.242949  0.534929  0.050963
    H   H16  0.602871  0.270520  0.574136  0.153998
    N   N1   0.501832  0.291387  0.481719  -0.197458
    C   C35  0.448404  0.256529  0.432751  0.301255
    C   C36  0.457648  0.171655  0.436006  -0.415254
    H   H17  0.418756  0.142562  0.395802  0.184703
    C   C37  0.515380  0.122743  0.490840  0.440287
    C   C38  0.517150  0.035987  0.495296  -0.167063
    C   C39  0.514086  0.964100  0.496224  -0.176979
    C   C40  0.562486  0.821116  0.545335  -0.264963
    H   H18  0.611252  0.838895  0.586387  0.154905
    C   C41  0.555906  0.739761  0.542527  0.058395
    H   H19  0.600179  0.693774  0.581429  0.124991
    N   N2   0.495810  0.717019  0.491133  -0.086440
    C   C42  0.440850  0.773324  0.441794  0.001344
    H   H20  0.393485  0.754179  0.400508  0.153994
    C   C43  0.445759  0.855258  0.443165  -0.247976
    H   H21  0.402027  0.900288  0.403266  0.151268
    C   C44  0.507353  0.879290  0.495089  0.385808
    C   C45  0.380987  0.306087  0.372566  -0.179344
    C   C46  0.271684  0.300482  0.379823  0.012561
    C   C47  0.204026  0.360196  0.324117  0.238793
    C   C48  0.099917  0.343950  0.320295  -0.286098
    H   H22  0.411807  0.281183  0.316902  0.054156
    H   H23  0.378182  0.372496  0.375399  0.084222
    H   H24  0.243625  0.317776  0.437831  0.020337
    H   H25  0.267737  0.236135  0.367169  0.006357
    H   H26  0.239496  0.350476  0.267435  -0.052742
    H   H27  0.194879  0.425846  0.342059  -0.027729
    H   H28  0.107547  0.280929  0.296054  0.049981
    H   H29  0.048599  0.392025  0.284053  0.055551
    H   H30  0.066742  0.347163  0.377515  0.072800
    C   C49  0.007646  0.265964  0.598310  -0.326169
    C   C50  0.017361  0.190257  0.547959  0.219039
    C   C51  0.073335  0.110952  0.589539  0.215256
    C   C52  0.081447  0.035149  0.539867  -0.275773
    H   H31  0.959522  0.262263  0.647863  0.066819
    H   H32  0.084774  0.265876  0.618390  0.056549
    H   H33  0.060907  0.196931  0.496670  -0.066981
    H   H34  0.940316  0.186098  0.531583  -0.046370
    H   H35  0.030777  0.104894  0.641494  -0.041604
    H   H36  0.151339  0.113836  0.604702  -0.048365
    H   H37  0.003820  0.031031  0.525065  0.050963
    H   H38  0.122893  0.977595  0.570603  0.051844
    H   H39  0.123999  0.040608  0.487754  0.049852
    C   C53  0.515133  0.353243  0.094533  -0.194096
    C   C54  0.520587  0.275409  0.141376  0.010469
    C   C55  0.523051  0.202132  0.089617  0.164207
    C   C56  0.527919  0.124403  0.135887  -0.272447
    H   H40  0.582918  0.339168  0.056978  0.072613
    H   H41  0.445090  0.365878  0.059428  0.064974
    H   H42  0.451884  0.286581  0.177753  0.053045
    H   H43  0.591325  0.259385  0.175851  0.032486
    H   H44  0.591335  0.189811  0.052695  -0.019194
    H   H45  0.453015  0.216997  0.054422  -0.024692
    H   H46  0.598142  0.108486  0.170893  0.046833
    H   H47  0.529545  0.071280  0.097604  0.063565
    H   H48  0.459669  0.135824  0.172770  0.048798
