# Generated by REPEAT Assigner based on pymatgen
data_DB0-m23_o17_o25_f0_pcu
_audit_creation_date              2022-05-24
_audit_creation_method            REPEAT_Assigner
_cell_length_a                    11.573678
_cell_length_b                    14.272788
_cell_length_c                    16.502077
_cell_angle_alpha                 75.375201
_cell_angle_beta                  91.347575
_cell_angle_gamma                 90.978415
_cell_volume                      2636.730701
_symmetry_space_group_name_H-M    P1
_symmetry_Int_Tables_number       1
loop_
    _symmetry_equiv_pos_site_id
    _symmetry_equiv_pos_as_xyz
    1  x,y,z
loop_
    _atom_site_type_symbol
    _atom_site_label
    _atom_site_fract_x
    _atom_site_fract_y
    _atom_site_fract_z
    _atom_type_partial_charge
    C   C1   0.027955  0.790232  0.262386  0.485651
    O   O1   0.029838  0.779555  0.186117  -0.548440
    O   O2   0.023704  0.877765  0.273370  -0.635327
    C   C2   0.974737  0.213395  0.735722  0.563005
    O   O3   0.974357  0.223814  0.812106  -0.617509
    O   O4   0.976394  0.125912  0.724463  -0.639834
    C   C3   0.002755  0.144708  0.071900  0.628011
    O   O5   0.007111  0.096023  0.150740  -0.659640
    O   O6   0.997636  0.097707  0.012877  -0.777894
    Cd  Cd1  0.015011  0.942141  0.121282  1.327916
    Cd  Cd2  0.984499  0.060737  0.876544  1.446064
    C   C4   0.993972  0.857839  0.925904  0.633197
    O   O7   0.987749  0.906548  0.847096  -0.661806
    O   O8   0.000236  0.904796  0.984893  -0.728040
    C   C5   0.438031  0.050987  0.913707  -0.017661
    C   C6   0.512024  0.992023  0.871104  -0.106405
    H   H1   0.540807  0.916477  0.896660  0.055969
    H   H2   0.388835  0.028389  0.971819  0.062817
    H   H3   0.409658  0.984255  0.748465  0.074713
    N   N1   0.817319  0.059490  0.876180  -0.429433
    N   N2   0.148579  0.070353  0.864466  -0.347365
    C   C7   0.518997  0.137106  0.889345  -0.139749
    C   C8   0.592648  0.078144  0.846793  0.332194
    C   C9   0.449868  0.173880  0.808601  -0.026293
    C   C10  0.370438  0.086834  0.833981  0.217328
    C   C11  0.526202  0.115299  0.765204  -0.123980
    C   C12  0.443365  0.028571  0.790357  -0.025169
    C   C13  0.718431  0.067676  0.863037  0.183738
    C   C14  0.245752  0.079236  0.848517  0.155427
    H   H4   0.565776  0.142286  0.702950  0.095017
    H   H5   0.421702  0.249434  0.781663  0.067739
    H   H6   0.551986  0.180985  0.931809  0.081646
    C   C15  0.564073  0.953263  0.077745  -0.037790
    C   C16  0.487265  0.865524  0.081453  -0.113209
    H   H7   0.459390  0.835177  0.028525  0.079909
    H   H8   0.614949  0.996165  0.025215  0.045956
    H   H9   0.583370  0.735259  0.171774  0.070147
    N   N3   0.183957  0.925103  0.094702  -0.292816
    N   N4   0.851255  0.923233  0.132490  -0.254516
    C   C17  0.482578  0.991702  0.131496  -0.131136
    C   C18  0.405950  0.904060  0.135112  0.435503
    C   C19  0.547700  0.937098  0.209444  -0.047381
    C   C20  0.627891  0.899058  0.154579  0.308208
    C   C21  0.468562  0.848813  0.213784  -0.135462
    C   C22  0.552213  0.810706  0.159322  -0.073073
    C   C23  0.281237  0.914495  0.113524  0.002879
    C   C24  0.753331  0.910631  0.144684  0.069123
    H   H10  0.426176  0.804995  0.270751  0.094635
    H   H11  0.575023  0.966048  0.263346  0.080007
    H   H12  0.452257  0.067429  0.118617  0.067531
    C   C25  0.039206  0.703437  0.892484  -0.311623
    C   C26  0.995320  0.751700  0.947580  0.071834
    C   C27  0.951210  0.699254  0.022717  -0.247610
    C   C28  0.952015  0.599251  0.043146  0.175081
    C   C29  0.997838  0.551303  0.988739  -0.026014
    C   C30  0.041718  0.603418  0.913501  0.201964
    C   C31  0.906925  0.547051  0.117989  -0.210305
    C   C32  0.908819  0.447233  0.138764  -0.223170
    C   C33  0.955317  0.399149  0.084593  0.195161
    C   C34  0.999388  0.451284  0.009430  -0.024648
    C   C35  0.045536  0.403354  0.955135  0.187911
    C   C36  0.091014  0.455552  0.880439  -0.224322
    C   C37  0.088661  0.555349  0.859494  -0.225824
    C   C38  0.957292  0.299104  0.105394  -0.320874
    C   C39  0.001330  0.250863  0.050315  0.093764
    C   C40  0.046391  0.303364  0.975556  -0.266723
    H   H13  0.074010  0.743878  0.833552  0.154244
    H   H14  0.913072  0.736461  0.064691  0.094296
    H   H15  0.870283  0.584041  0.160822  0.144757
    H   H16  0.873650  0.407032  0.197661  0.124114
    H   H17  0.922179  0.258667  0.164218  0.169885
    H   H18  0.085342  0.266188  0.933906  0.121840
    H   H19  0.128118  0.418567  0.837776  0.144906
    H   H20  0.123917  0.595551  0.800630  0.130480
    C   C41  0.966468  0.390119  0.677412  -0.340034
    C   C42  0.977356  0.298751  0.664419  0.065030
    C   C43  0.996025  0.288992  0.584575  -0.277136
    C   C44  0.005946  0.370196  0.518579  0.219957
    C   C45  0.996434  0.461272  0.532049  -0.049807
    C   C46  0.976018  0.471169  0.611384  0.248904
    C   C47  0.026642  0.360414  0.439145  -0.246231
    C   C48  0.037554  0.441472  0.373409  -0.245379
    C   C49  0.027791  0.532561  0.386879  0.258493
    C   C50  0.007450  0.542464  0.466222  -0.052682
    C   C51  0.997837  0.633541  0.479675  0.203473
    C   C52  0.977077  0.643318  0.559102  -0.220767
    C   C53  0.966158  0.562257  0.624836  -0.255084
    C   C54  0.037183  0.613598  0.320831  -0.365587
    C   C55  0.026161  0.704974  0.333802  0.130473
    C   C56  0.007549  0.714743  0.413651  -0.299103
    H   H21  0.951134  0.398857  0.739374  0.166138
    H   H22  0.005377  0.218037  0.573582  0.138062
    H   H23  0.034492  0.289353  0.428018  0.144282
    H   H24  0.053597  0.433123  0.311366  0.154033
    H   H25  0.052165  0.604801  0.258834  0.157841
    H   H26  0.998015  0.785691  0.424622  0.152400
    H   H27  0.969100  0.714374  0.570214  0.135710
    H   H28  0.949945  0.570602  0.686852  0.153490
