# Generated by REPEAT Assigner based on pymatgen
data_DB0-m2_o7_o24_f0_pcu.sym.24_sqe
_audit_creation_date              2022-05-24
_audit_creation_method            REPEAT_Assigner
_cell_length_a                    17.729877
_cell_length_b                    16.234230
_cell_length_c                    10.701774
_cell_angle_alpha                 90.000000
_cell_angle_beta                  90.010897
_cell_angle_gamma                 90.000000
_cell_volume                      3080.301070
_symmetry_space_group_name_H-M    P1
_symmetry_Int_Tables_number       1
loop_
    _symmetry_equiv_pos_site_id
    _symmetry_equiv_pos_as_xyz
    1  x,y,z
loop_
    _atom_site_type_symbol
    _atom_site_label
    _atom_site_fract_x
    _atom_site_fract_y
    _atom_site_fract_z
    _atom_type_partial_charge
    O   O1   0.390487  0.570464  0.506115  -0.630208
    O   O2   0.610414  0.429816  0.494984  -0.634607
    O   O3   0.609756  0.571164  0.503939  -0.652455
    O   O4   0.391242  0.428805  0.496140  -0.650003
    C   C1   0.355076  0.499715  0.501344  1.187867
    C   C2   0.645412  0.500530  0.499600  1.141105
    O   O5   0.497012  0.570793  0.319043  -0.709085
    O   O6   0.498732  0.429202  0.681541  -0.695841
    O   O7   0.498288  0.570807  0.682179  -0.602258
    O   O8   0.498039  0.429131  0.318360  -0.602117
    C   C3   0.499689  0.500225  0.260592  0.579667
    C   C4   0.501021  0.499778  0.740058  0.561781
    Cu  Cu1  0.501753  0.582431  0.495762  0.852691
    Cu  Cu2  0.500310  0.417563  0.502028  0.822443
    C   C5   0.498214  0.577950  0.040503  0.001104
    C   C6   0.502448  0.422233  0.959546  -0.040000
    C   C7   0.560969  0.541142  0.959502  -0.447234
    C   C8   0.439806  0.459122  0.040729  -0.387868
    C   C9   0.441249  0.534846  0.958757  0.507574
    C   C10  0.559414  0.465410  0.041278  0.529875
    H   H1   0.492590  0.642478  0.072646  0.035449
    H   H2   0.508548  0.356839  0.930716  0.043938
    H   H3   0.612603  0.573529  0.927645  0.104903
    H   H4   0.387742  0.427724  0.072566  0.088906
    C   C11  0.502112  0.499092  0.878285  0.195464
    C   C12  0.498639  0.501050  0.121324  0.166323
    C   C13  0.845162  0.560296  0.436008  0.332232
    C   C14  0.154193  0.438533  0.562581  0.341954
    C   C15  0.154171  0.560735  0.436852  0.386307
    C   C16  0.845411  0.439474  0.563474  0.378172
    C   C17  0.767504  0.560285  0.435740  0.458736
    C   C18  0.232347  0.438537  0.562591  0.452157
    C   C19  0.232218  0.560759  0.437066  0.396010
    C   C20  0.767478  0.439591  0.563632  0.392262
    C   C21  0.728104  0.500174  0.499528  -0.746098
    C   C22  0.271875  0.499537  0.500248  -0.785050
    C   C23  0.884536  0.500146  0.499775  -0.352173
    C   C24  0.115158  0.499367  0.499184  -0.355900
    C   C25  0.965755  0.500019  0.499431  -0.040917
    C   C26  0.033812  0.499686  0.499203  -0.041623
    C   C27  0.546144  0.832427  0.580645  -0.277743
    C   C28  0.455874  0.169357  0.415707  -0.251390
    C   C29  0.453833  0.831303  0.420144  -0.303387
    C   C30  0.544875  0.167228  0.581191  -0.292861
    H   H5   0.581077  0.866850  0.645384  0.144842
    H   H6   0.418527  0.137146  0.352365  0.140603
    H   H7   0.415809  0.863408  0.358397  0.146032
    H   H8   0.577408  0.133696  0.649207  0.147420
    C   C31  0.545716  0.746950  0.579360  0.011580
    C   C32  0.456415  0.254157  0.419254  -0.037316
    C   C33  0.455051  0.746443  0.420381  0.061075
    C   C34  0.544612  0.252337  0.581708  0.050655
    H   H9   0.581401  0.712993  0.642625  0.135798
    H   H10  0.419692  0.289299  0.358572  0.154088
    H   H11  0.418613  0.712655  0.357630  0.125753
    H   H12  0.578587  0.284187  0.650285  0.118319
    N   N1   0.498743  0.705585  0.503841  -0.027228
    N   N2   0.501718  0.294434  0.500291  0.011488
    C   C35  0.499940  0.874569  0.500121  0.366143
    C   C36  0.500798  0.125587  0.497244  0.353157
    C   C37  0.499178  0.963040  0.500586  -0.169400
    C   C38  0.499691  0.037232  0.499269  -0.172061
    N   N3   0.374292  0.574532  0.910061  -0.908685
    H   H13  0.342111  0.593205  0.986613  0.300350
    H   H14  0.343270  0.529709  0.862803  0.336268
    N   N4   0.626454  0.426028  0.089517  -0.922818
    H   H15  0.658325  0.406970  0.012595  0.309640
    H   H16  0.657343  0.471132  0.136758  0.335687
    N   N5   0.884299  0.622417  0.368165  -0.945427
    H   H17  0.914577  0.594092  0.296426  0.358447
    H   H18  0.920737  0.652932  0.429213  0.362952
    N   N6   0.114363  0.375947  0.629598  -0.947004
    H   H19  0.079115  0.404235  0.694944  0.361126
    H   H20  0.081909  0.342280  0.566197  0.358645
    N   N7   0.114387  0.624193  0.371970  -0.950454
    H   H21  0.078517  0.654003  0.434731  0.360383
    H   H22  0.081708  0.597336  0.301792  0.352502
    N   N8   0.885266  0.377269  0.629938  -0.949320
    H   H23  0.917013  0.343019  0.566246  0.356238
    H   H24  0.921696  0.405854  0.693194  0.358480
    N   N9   0.728363  0.621822  0.366506  -0.717291
    H   H25  0.744848  0.678970  0.401877  0.296698
    H   H26  0.745429  0.617746  0.273282  0.269776
    N   N10  0.272518  0.377011  0.631132  -0.686088
    H   H27  0.256346  0.318936  0.598715  0.288633
    H   H28  0.259127  0.382872  0.725722  0.259071
    N   N11  0.271822  0.622276  0.368156  -0.693276
    H   H29  0.253531  0.620289  0.275455  0.272474
    H   H30  0.257866  0.679681  0.405447  0.294008
    N   N12  0.728008  0.379521  0.635002  -0.697094
    H   H31  0.746361  0.384182  0.727462  0.269423
    H   H32  0.742381  0.321281  0.601025  0.297606
