# Generated by REPEAT Assigner based on pymatgen
data_DB0-m3_o27_o27_f0_pcu.sym.26
_audit_creation_date              2022-05-24
_audit_creation_method            REPEAT_Assigner
_cell_length_a                    27.420730
_cell_length_b                    27.419613
_cell_length_c                    18.142669
_cell_angle_alpha                 90.000000
_cell_angle_beta                  90.000000
_cell_angle_gamma                 90.000000
_cell_volume                      13640.852128
_symmetry_space_group_name_H-M    P1
_symmetry_Int_Tables_number       1
loop_
    _symmetry_equiv_pos_site_id
    _symmetry_equiv_pos_as_xyz
    1  x,y,z
loop_
    _atom_site_type_symbol
    _atom_site_label
    _atom_site_fract_x
    _atom_site_fract_y
    _atom_site_fract_z
    _atom_type_partial_charge
    O   O1   0.051389  0.448637  0.563282  -0.598631
    O   O2   0.948611  0.551363  0.436718  -0.598635
    O   O3   0.948611  0.551363  0.563282  -0.598637
    O   O4   0.051389  0.448637  0.436718  -0.598629
    O   O5   0.948611  0.448637  0.436718  -0.598628
    O   O6   0.051389  0.551363  0.563282  -0.598638
    O   O7   0.051389  0.551363  0.436718  -0.598636
    O   O8   0.948611  0.448637  0.563282  -0.598630
    O   O9   0.551389  0.948637  0.563282  -0.598631
    O   O10  0.448611  0.051363  0.436718  -0.598632
    O   O11  0.448611  0.051363  0.563282  -0.598634
    O   O12  0.551389  0.948637  0.436718  -0.598629
    O   O13  0.448611  0.948637  0.436718  -0.598632
    O   O14  0.551389  0.051363  0.563282  -0.598631
    O   O15  0.551389  0.051363  0.436718  -0.598628
    O   O16  0.448611  0.948637  0.563282  -0.598634
    C   C1   0.067725  0.432297  0.500000  0.704761
    C   C2   0.932275  0.567703  0.500000  0.704779
    C   C3   0.932275  0.432297  0.500000  0.704764
    C   C4   0.067725  0.567703  0.500000  0.704776
    C   C5   0.567725  0.932297  0.500000  0.704752
    C   C6   0.432275  0.067703  0.500000  0.704770
    C   C7   0.432275  0.932297  0.500000  0.704760
    C   C8   0.567725  0.067703  0.500000  0.704761
    C   C9   0.000000  0.456682  0.193408  -0.094975
    C   C10  0.000000  0.543318  0.806592  -0.094981
    C   C11  0.000000  0.543318  0.193408  -0.094976
    C   C12  0.000000  0.456682  0.806592  -0.094981
    C   C13  0.500000  0.956682  0.193408  -0.094972
    C   C14  0.500000  0.043318  0.806592  -0.094978
    C   C15  0.500000  0.043318  0.193408  -0.094970
    C   C16  0.500000  0.956682  0.806592  -0.094978
    H   H1   0.000000  0.421928  0.165359  0.082319
    H   H2   0.000000  0.578072  0.834641  0.082319
    H   H3   0.000000  0.578072  0.165359  0.082319
    H   H4   0.000000  0.421928  0.834641  0.082319
    H   H5   0.500000  0.921928  0.165359  0.082319
    H   H6   0.500000  0.078072  0.834641  0.082319
    H   H7   0.500000  0.078072  0.165359  0.082318
    H   H8   0.500000  0.921928  0.834641  0.082319
    Zn  Zn1  0.000000  0.500000  0.583531  0.988950
    Zn  Zn2  0.000000  0.500000  0.416469  0.988940
    Zn  Zn3  0.500000  0.000000  0.583531  0.988958
    Zn  Zn4  0.500000  0.000000  0.416469  0.988948
    N   N1   0.000000  0.500000  0.306200  -0.232479
    N   N2   0.000000  0.500000  0.693800  -0.232488
    N   N3   0.500000  0.000000  0.306200  -0.232484
    N   N4   0.500000  0.000000  0.693800  -0.232494
    N   N5   0.000000  0.542395  0.036426  -0.310675
    N   N6   0.000000  0.457605  0.963574  -0.310679
    N   N7   0.000000  0.457605  0.036426  -0.310675
    N   N8   0.000000  0.542395  0.963574  -0.310679
    N   N9   0.500000  0.042395  0.036426  -0.310678
    N   N10  0.500000  0.957605  0.963574  -0.310686
    N   N11  0.500000  0.957605  0.036426  -0.310683
    N   N12  0.500000  0.042395  0.963574  -0.310681
    C   C17  0.000000  0.457342  0.269382  0.408225
    C   C18  0.000000  0.542658  0.730618  0.408225
    C   C19  0.000000  0.542658  0.269382  0.408218
    C   C20  0.000000  0.457342  0.730618  0.408232
    C   C21  0.500000  0.957342  0.269382  0.408230
    C   C22  0.500000  0.042658  0.730618  0.408228
    C   C23  0.500000  0.042658  0.269382  0.408219
    C   C24  0.500000  0.957342  0.730618  0.408238
    C   C25  0.875944  0.375927  0.565876  0.385438
    C   C26  0.124056  0.624073  0.434124  0.385442
    C   C27  0.124056  0.624073  0.565876  0.385439
    C   C28  0.875944  0.375927  0.434124  0.385441
    C   C29  0.124056  0.375927  0.434124  0.385439
    C   C30  0.875944  0.624073  0.565876  0.385441
    C   C31  0.875944  0.624073  0.434124  0.385443
    C   C32  0.124056  0.375927  0.565876  0.385437
    C   C33  0.375944  0.875927  0.565876  0.385435
    C   C34  0.624056  0.124073  0.434124  0.385438
    C   C35  0.624056  0.124073  0.565876  0.385435
    C   C36  0.375944  0.875927  0.434124  0.385438
    C   C37  0.624056  0.875927  0.434124  0.385434
    C   C38  0.375944  0.124073  0.565876  0.385440
    C   C39  0.375944  0.124073  0.434124  0.385442
    C   C40  0.624056  0.875927  0.565876  0.385431
    C   C41  0.840405  0.340369  0.565608  -0.112142
    C   C42  0.159595  0.659631  0.434392  -0.112142
    C   C43  0.159595  0.659631  0.565608  -0.112142
    C   C44  0.840405  0.340369  0.434392  -0.112142
    C   C45  0.159595  0.340369  0.434392  -0.112142
    C   C46  0.840405  0.659631  0.565608  -0.112142
    C   C47  0.840405  0.659631  0.434392  -0.112142
    C   C48  0.159595  0.340369  0.565608  -0.112142
    C   C49  0.340405  0.840369  0.565608  -0.112143
    C   C50  0.659595  0.159631  0.434392  -0.112140
    C   C51  0.659595  0.159631  0.565608  -0.112140
    C   C52  0.340405  0.840369  0.434392  -0.112142
    C   C53  0.659595  0.840369  0.434392  -0.112140
    C   C54  0.340405  0.159631  0.565608  -0.112143
    C   C55  0.340405  0.159631  0.434392  -0.112142
    C   C56  0.659595  0.840369  0.565608  -0.112141
    H   H9   0.827060  0.327027  0.617872  0.086337
    H   H10  0.172940  0.672973  0.382128  0.086337
    H   H11  0.172940  0.672973  0.617872  0.086337
    H   H12  0.827060  0.327027  0.382128  0.086337
    H   H13  0.172940  0.327027  0.382128  0.086337
    H   H14  0.827060  0.672973  0.617872  0.086336
    H   H15  0.827060  0.672973  0.382128  0.086336
    H   H16  0.172940  0.327027  0.617872  0.086337
    H   H17  0.327060  0.827027  0.617872  0.086338
    H   H18  0.672940  0.172973  0.382128  0.086337
    H   H19  0.672940  0.172973  0.617872  0.086337
    H   H20  0.327060  0.827027  0.382128  0.086337
    H   H21  0.672940  0.827027  0.382128  0.086337
    H   H22  0.327060  0.172973  0.617872  0.086337
    H   H23  0.327060  0.172973  0.382128  0.086337
    H   H24  0.672940  0.827027  0.617872  0.086337
    C   C57  0.822383  0.322342  0.500000  -0.405510
    C   C58  0.177617  0.677658  0.500000  -0.405511
    C   C59  0.177617  0.322342  0.500000  -0.405509
    C   C60  0.822383  0.677658  0.500000  -0.405512
    C   C61  0.322383  0.822342  0.500000  -0.405508
    C   C62  0.677617  0.177658  0.500000  -0.405511
    C   C63  0.677617  0.822342  0.500000  -0.405509
    C   C64  0.322383  0.177658  0.500000  -0.405511
    C   C65  0.000000  0.500000  0.926260  0.890031
    C   C66  0.000000  0.500000  0.073740  0.890026
    C   C67  0.500000  0.000000  0.926260  0.890046
    C   C68  0.500000  0.000000  0.073740  0.890042
    C   C69  0.894212  0.394205  0.500000  -0.296610
    C   C70  0.105788  0.605795  0.500000  -0.296615
    C   C71  0.105788  0.394205  0.500000  -0.296607
    C   C72  0.894212  0.605795  0.500000  -0.296619
    C   C73  0.394212  0.894205  0.500000  -0.296603
    C   C74  0.605788  0.105795  0.500000  -0.296607
    C   C75  0.605788  0.894205  0.500000  -0.296596
    C   C76  0.394212  0.105795  0.500000  -0.296614
    N   N13  0.767048  0.267036  0.435937  -0.339632
    N   N14  0.232952  0.732964  0.564063  -0.339636
    N   N15  0.232952  0.732964  0.435937  -0.339636
    N   N16  0.767048  0.267036  0.564063  -0.339632
    N   N17  0.232952  0.267036  0.564063  -0.339630
    N   N18  0.767048  0.732964  0.435937  -0.339638
    N   N19  0.767048  0.732964  0.564063  -0.339638
    N   N20  0.232952  0.267036  0.435937  -0.339630
    N   N21  0.267048  0.767036  0.435937  -0.339628
    N   N22  0.732952  0.232964  0.564063  -0.339632
    N   N23  0.732952  0.232964  0.435937  -0.339632
    N   N24  0.267048  0.767036  0.564063  -0.339628
    N   N25  0.732952  0.767036  0.564063  -0.339626
    N   N26  0.267048  0.232964  0.435937  -0.339634
    N   N27  0.267048  0.232964  0.564063  -0.339634
    N   N28  0.732952  0.767036  0.435937  -0.339626
    C   C77  0.215478  0.715504  0.500000  0.928559
    C   C78  0.784522  0.284496  0.500000  0.928554
    C   C79  0.784522  0.715504  0.500000  0.928562
    C   C80  0.215478  0.284496  0.500000  0.928550
    C   C81  0.715478  0.215504  0.500000  0.928553
    C   C82  0.284522  0.784496  0.500000  0.928548
    C   C83  0.284522  0.215504  0.500000  0.928556
    C   C84  0.715478  0.784496  0.500000  0.928545
    C   C85  0.000000  0.500000  0.154609  -0.346193
    C   C86  0.000000  0.500000  0.845391  -0.346190
    C   C87  0.500000  0.000000  0.154609  -0.346207
    C   C88  0.500000  0.000000  0.845391  -0.346203
    F   F1   0.000000  0.414641  0.306936  -0.104117
    F   F2   0.000000  0.585359  0.693064  -0.104114
    F   F3   0.000000  0.585359  0.306936  -0.104114
    F   F4   0.000000  0.414641  0.693064  -0.104118
    F   F5   0.500000  0.914641  0.306936  -0.104119
    F   F6   0.500000  0.085359  0.693064  -0.104116
    F   F7   0.500000  0.085359  0.306936  -0.104115
    F   F8   0.500000  0.914641  0.693064  -0.104120
    F   F9   0.892239  0.392269  0.631935  -0.202431
    F   F10  0.107761  0.607731  0.368065  -0.202431
    F   F11  0.107761  0.607731  0.631935  -0.202430
    F   F12  0.892239  0.392269  0.368065  -0.202432
    F   F13  0.107761  0.392269  0.368065  -0.202433
    F   F14  0.892239  0.607731  0.631935  -0.202430
    F   F15  0.892239  0.607731  0.368065  -0.202431
    F   F16  0.107761  0.392269  0.631935  -0.202431
    F   F17  0.392239  0.892269  0.631935  -0.202431
    F   F18  0.607761  0.107731  0.368065  -0.202432
    F   F19  0.607761  0.107731  0.631935  -0.202430
    F   F20  0.392239  0.892269  0.368065  -0.202432
    F   F21  0.607761  0.892269  0.368065  -0.202432
    F   F22  0.392239  0.107731  0.631935  -0.202431
    F   F23  0.392239  0.107731  0.368065  -0.202432
    F   F24  0.607761  0.892269  0.631935  -0.202430
