# Generated by REPEAT Assigner based on pymatgen
data_DB0-m3_o38_o39_f0_fof.sym.20_sqe
_audit_creation_date              2022-05-24
_audit_creation_method            REPEAT_Assigner
_cell_length_a                    27.968442
_cell_length_b                    19.015832
_cell_length_c                    17.036426
_cell_angle_alpha                 90.000000
_cell_angle_beta                  63.076394
_cell_angle_gamma                 90.000000
_cell_volume                      8078.626614
_symmetry_space_group_name_H-M    P1
_symmetry_Int_Tables_number       1
loop_
    _symmetry_equiv_pos_site_id
    _symmetry_equiv_pos_as_xyz
    1  x,y,z
loop_
    _atom_site_type_symbol
    _atom_site_label
    _atom_site_fract_x
    _atom_site_fract_y
    _atom_site_fract_z
    _atom_type_partial_charge
    O   O1    0.754693  0.239787  0.630916  -0.717243
    O   O2    0.245308  0.760211  0.369085  -0.717345
    O   O3    0.246165  0.239303  0.368510  -0.724743
    O   O4    0.753835  0.760700  0.631492  -0.724710
    O   O5    0.253851  0.739316  0.631467  -0.725004
    O   O6    0.746150  0.260687  0.368532  -0.724941
    O   O7    0.745305  0.739780  0.369093  -0.717481
    O   O8    0.254696  0.260217  0.630904  -0.717537
    O   O9    0.670045  0.189129  0.527502  -0.632795
    O   O10   0.329956  0.810869  0.472500  -0.632677
    O   O11   0.330600  0.189478  0.471188  -0.655187
    O   O12   0.669400  0.810525  0.528815  -0.655246
    O   O13   0.169415  0.689474  0.528814  -0.655277
    O   O14   0.830585  0.310527  0.471184  -0.655353
    O   O15   0.829950  0.689141  0.472537  -0.632479
    O   O16   0.170049  0.310857  0.527463  -0.632420
    O   O17   0.742011  0.129412  0.524415  -0.614207
    O   O18   0.257989  0.870592  0.475584  -0.614104
    O   O19   0.258232  0.129514  0.475950  -0.636793
    O   O20   0.741769  0.870483  0.524048  -0.636829
    O   O21   0.241788  0.629511  0.524039  -0.636894
    O   O22   0.758212  0.370485  0.475963  -0.636963
    O   O23   0.757986  0.629421  0.475615  -0.613924
    O   O24   0.242014  0.370583  0.524387  -0.613889
    O   O25   0.682452  0.295046  0.629793  -0.659059
    O   O26   0.317549  0.704958  0.370206  -0.659213
    O   O27   0.317741  0.295914  0.369812  -0.655717
    O   O28   0.682259  0.704082  0.630187  -0.655684
    O   O29   0.182272  0.795927  0.630173  -0.655835
    O   O30   0.817728  0.204071  0.369828  -0.655769
    O   O31   0.817539  0.795041  0.370227  -0.659154
    O   O32   0.182461  0.204963  0.629774  -0.659197
    C   C1    0.708909  0.273361  0.672144  0.818790
    C   C2    0.291091  0.726638  0.327855  0.819146
    C   C3    0.291822  0.272911  0.327085  0.828967
    C   C4    0.708178  0.727088  0.672915  0.828859
    C   C5    0.208193  0.772926  0.672897  0.828905
    C   C6    0.791807  0.227073  0.327104  0.828778
    C   C7    0.791087  0.773357  0.327868  0.819406
    C   C8    0.208914  0.226643  0.672132  0.819476
    C   C9    0.692606  0.130650  0.534543  0.575193
    C   C10   0.307394  0.869349  0.465457  0.574978
    C   C11   0.307826  0.130880  0.464923  0.658510
    C   C12   0.692175  0.869121  0.535078  0.658560
    C   C13   0.192192  0.630877  0.535070  0.658845
    C   C14   0.807807  0.369123  0.464931  0.659046
    C   C15   0.807390  0.630660  0.465494  0.574479
    C   C16   0.192609  0.369340  0.534506  0.574420
    Zn  Zn1   0.794408  0.209334  0.503190  1.227074
    Zn  Zn2   0.205592  0.790667  0.496810  1.227068
    Zn  Zn3   0.206042  0.209542  0.496358  1.229886
    Zn  Zn4   0.793958  0.790458  0.503642  1.229898
    Zn  Zn5   0.293971  0.709548  0.503620  1.230091
    Zn  Zn6   0.706029  0.290452  0.496380  1.230090
    Zn  Zn7   0.705585  0.709335  0.496823  1.227081
    Zn  Zn8   0.294415  0.290666  0.503177  1.227081
    C   C17   0.617927  0.937200  0.531257  -0.284034
    C   C18   0.382074  0.062798  0.468744  -0.284037
    C   C19   0.381292  0.937292  0.470653  -0.262131
    C   C20   0.618708  0.062709  0.529347  -0.262084
    C   C21   0.118712  0.437307  0.529315  -0.261677
    C   C22   0.881288  0.562692  0.470685  -0.261676
    C   C23   0.882044  0.437185  0.468803  -0.282004
    C   C24   0.117956  0.562815  0.531198  -0.282074
    H   H1    0.102217  0.388972  0.518601  0.139521
    H   H2    0.897783  0.611029  0.481399  0.139529
    H   H3    0.899012  0.388786  0.478202  0.151333
    H   H4    0.100989  0.611214  0.521798  0.151349
    H   H5    0.600952  0.888807  0.521865  0.151619
    H   H6    0.399048  0.111194  0.478135  0.151602
    H   H7    0.397761  0.888953  0.481420  0.139454
    H   H8    0.602239  0.111048  0.518581  0.139469
    C   C25   0.663090  0.936409  0.545256  -0.057797
    C   C26   0.336910  0.063591  0.454745  -0.057832
    C   C27   0.336470  0.936583  0.455661  -0.012408
    C   C28   0.663530  0.063417  0.544340  -0.012520
    C   C29   0.163537  0.436581  0.544299  -0.012965
    C   C30   0.836464  0.563417  0.455700  -0.012987
    C   C31   0.836892  0.436408  0.454775  -0.059696
    C   C32   0.163108  0.563592  0.545225  -0.059529
    C   C33   0.682630  0.999918  0.560510  0.201949
    C   C34   0.317369  0.000082  0.439490  0.201946
    C   C35   0.182643  0.500076  0.560472  0.203528
    C   C36   0.817358  0.499924  0.439529  0.203610
    C   C37   0.594509  0.000038  0.526596  0.344528
    C   C38   0.405490  0.999961  0.473404  0.344573
    C   C39   0.094532  0.499989  0.526538  0.343003
    C   C40   0.905469  0.500011  0.473462  0.343007
    C   C41   0.490643  0.023229  0.667574  -0.388437
    C   C42   0.509358  0.976771  0.332426  -0.388413
    C   C43   0.400087  0.021854  0.642709  -0.463426
    C   C44   0.599914  0.978146  0.357291  -0.463472
    C   C45   0.099890  0.521942  0.357263  -0.464433
    C   C46   0.900110  0.478058  0.642737  -0.464451
    C   C47   0.009325  0.523077  0.332424  -0.388680
    C   C48   0.990675  0.476924  0.667576  -0.388647
    C   C49   0.441056  0.034405  0.737617  0.444213
    C   C50   0.558944  0.965595  0.262383  0.444212
    C   C51   0.395914  0.033617  0.725240  0.453781
    C   C52   0.604086  0.966383  0.274760  0.453807
    C   C53   0.104042  0.533665  0.274733  0.454386
    C   C54   0.895958  0.466335  0.725267  0.454394
    C   C55   0.058894  0.534297  0.262359  0.444214
    C   C56   0.941106  0.465703  0.737641  0.444192
    C   C57   0.449923  0.011432  0.570832  0.017216
    C   C58   0.550078  0.988568  0.429169  0.017280
    C   C59   0.495731  0.011864  0.583442  -0.035612
    C   C60   0.504269  0.988136  0.416559  -0.035678
    C   C61   0.004255  0.511798  0.416560  -0.035448
    C   C62   0.995744  0.488202  0.583440  -0.035509
    C   C63   0.050070  0.511452  0.429149  0.017708
    C   C64   0.949930  0.488548  0.570851  0.017778
    C   C65   0.953984  0.500194  0.487309  0.052565
    C   C66   0.046016  0.499806  0.512692  0.052630
    C   C67   0.453993  0.999751  0.487282  0.052618
    C   C68   0.546006  0.000249  0.512718  0.052555
    H   H9    0.524730  0.023603  0.681222  0.087344
    H   H10   0.475270  0.976397  0.318779  0.087329
    H   H11   0.363249  0.020826  0.636925  0.147184
    H   H12   0.636751  0.979174  0.363076  0.147201
    H   H13   0.136734  0.521037  0.363034  0.147469
    H   H14   0.863266  0.478963  0.636966  0.147463
    H   H15   0.975231  0.523350  0.318801  0.087365
    H   H16   0.024769  0.476651  0.681200  0.087360
    H   H17   0.739972  0.359133  0.965154  0.148144
    H   H18   0.260028  0.640867  0.034847  0.148158
    H   H19   0.243137  0.387650  0.048556  0.192267
    H   H20   0.756863  0.612349  0.951443  0.192254
    H   H21   0.256805  0.887679  0.951535  0.191556
    H   H22   0.743195  0.112321  0.048465  0.191547
    H   H23   0.759983  0.859149  0.034900  0.147965
    H   H24   0.240017  0.140852  0.965101  0.147964
    C   C69   0.713640  0.254496  0.960271  0.518304
    C   C70   0.286360  0.745504  0.039729  0.518294
    C   C71   0.269184  0.282681  0.053649  0.537440
    C   C72   0.730817  0.717319  0.946351  0.537510
    C   C73   0.230816  0.782694  0.946351  0.535991
    C   C74   0.769184  0.217306  0.053649  0.535948
    C   C75   0.786342  0.754521  0.039744  0.516408
    C   C76   0.213658  0.245479  0.960255  0.516336
    C   C77   0.714805  0.185146  0.983585  -0.307430
    C   C78   0.285195  0.814854  0.016415  -0.307360
    C   C79   0.267783  0.213529  0.030421  -0.264977
    C   C80   0.732217  0.786470  0.969579  -0.265015
    C   C81   0.232243  0.713540  0.969547  -0.264047
    C   C82   0.767757  0.286460  0.030454  -0.264069
    C   C83   0.785215  0.685178  0.016378  -0.305435
    C   C84   0.214785  0.314823  0.983622  -0.305423
    H   H25   0.694068  0.145312  0.965436  0.170458
    H   H26   0.305933  0.854689  0.034565  0.170436
    H   H27   0.288952  0.173722  0.047712  0.136722
    H   H28   0.711048  0.826279  0.952288  0.136734
    H   H29   0.211092  0.673723  0.952230  0.136666
    H   H30   0.788908  0.326277  0.047770  0.136678
    H   H31   0.805980  0.645353  0.034487  0.170049
    H   H32   0.194021  0.354646  0.965513  0.170054
    C   C85   0.742469  0.166627  0.030278  -0.340823
    C   C86   0.257531  0.833372  0.969722  -0.340887
    C   C87   0.240216  0.195084  0.983991  -0.287929
    C   C88   0.759784  0.804915  0.016009  -0.287950
    C   C89   0.259816  0.695101  0.015971  -0.289213
    C   C90   0.740184  0.304899  0.984029  -0.289183
    C   C91   0.757562  0.666653  0.969673  -0.343256
    C   C92   0.242438  0.333349  0.030327  -0.343234
    C   C93   0.642376  0.320521  0.947889  0.661217
    C   C94   0.357624  0.679479  0.052111  0.660988
    C   C95   0.345669  0.340623  0.060129  0.656769
    C   C96   0.654331  0.659376  0.939870  0.656559
    C   C97   0.154297  0.840561  0.939903  0.656416
    C   C98   0.845703  0.159439  0.060097  0.656387
    C   C99   0.857596  0.820554  0.052129  0.660594
    C   C100  0.142404  0.179446  0.947871  0.660596
    C   C101  0.621652  0.354005  0.896729  -0.637144
    C   C102  0.378349  0.645996  0.103270  -0.636976
    C   C103  0.377151  0.355526  0.102970  -0.601075
    C   C104  0.622848  0.644473  0.897031  -0.600749
    C   C105  0.122832  0.855501  0.897042  -0.600476
    C   C106  0.877167  0.144500  0.102960  -0.600529
    C   C107  0.878332  0.854019  0.103282  -0.636671
    C   C108  0.121667  0.145981  0.896718  -0.636691
    C   C109  0.646929  0.341174  0.805438  0.575626
    C   C110  0.353070  0.658826  0.194563  0.575907
    C   C111  0.361488  0.325919  0.186884  0.599695
    C   C112  0.638513  0.674081  0.813117  0.599257
    C   C113  0.138518  0.825927  0.813105  0.598494
    C   C114  0.861482  0.174074  0.186895  0.598492
    C   C115  0.853069  0.841169  0.194570  0.575750
    C   C116  0.146931  0.158829  0.805431  0.575805
    C   C117  0.686987  0.289858  0.768163  -0.527704
    C   C118  0.313013  0.710143  0.231838  -0.528228
    C   C119  0.312041  0.291465  0.231846  -0.560176
    C   C120  0.687958  0.708535  0.768155  -0.559689
    C   C121  0.187973  0.791487  0.768138  -0.558309
    C   C122  0.812027  0.208513  0.231862  -0.558213
    C   C123  0.813010  0.789858  0.231848  -0.527990
    C   C124  0.186990  0.210142  0.768153  -0.528042
    C   C125  0.706694  0.258009  0.821590  0.618266
    C   C126  0.293306  0.741991  0.178411  0.618514
    C   C127  0.281594  0.278764  0.186939  0.686996
    C   C128  0.718406  0.721236  0.813061  0.686632
    C   C129  0.218426  0.778803  0.813042  0.684757
    C   C130  0.781575  0.221197  0.186958  0.684694
    C   C131  0.793290  0.758035  0.178426  0.617955
    C   C132  0.206711  0.241965  0.821574  0.617966
    C   C133  0.685775  0.276153  0.909165  -0.518695
    C   C134  0.314225  0.723847  0.090836  -0.518697
    C   C135  0.299656  0.301348  0.101630  -0.583724
    C   C136  0.700344  0.698652  0.898370  -0.583549
    C   C137  0.200341  0.801351  0.898370  -0.581896
    C   C138  0.799659  0.198649  0.101630  -0.581837
    C   C139  0.814202  0.776184  0.090854  -0.517565
    C   C140  0.185797  0.223816  0.909146  -0.517551
    O   O33   0.061959  0.069954  0.015838  -0.725674
    O   O34   0.938041  0.930047  0.984162  -0.725685
    O   O35   0.938342  0.070283  0.983838  -0.705688
    O   O36   0.061658  0.929717  0.016162  -0.705643
    O   O37   0.561663  0.570271  0.016155  -0.705630
    O   O38   0.438337  0.429729  0.983845  -0.705598
    O   O39   0.438054  0.569966  0.984154  -0.725911
    O   O40   0.561946  0.430034  0.015847  -0.725860
    O   O41   0.947976  0.073806  0.109367  -0.749841
    O   O42   0.052024  0.926195  0.890633  -0.749800
    O   O43   0.051920  0.073862  0.890507  -0.754521
    O   O44   0.948080  0.926138  0.109493  -0.754523
    O   O45   0.448089  0.573880  0.109497  -0.754489
    O   O46   0.551911  0.426121  0.890504  -0.754533
    O   O47   0.552038  0.573788  0.890624  -0.749924
    O   O48   0.447962  0.426213  0.109376  -0.749978
    C   C141  0.075985  0.095012  0.936753  0.899985
    C   C142  0.924015  0.904988  0.063247  0.899975
    C   C143  0.924382  0.095727  0.062566  0.853173
    C   C144  0.075617  0.904272  0.937435  0.853042
    C   C145  0.575635  0.595702  0.937420  0.853269
    C   C146  0.424365  0.404297  0.062579  0.853343
    C   C147  0.424033  0.595033  0.063236  0.900199
    C   C148  0.575967  0.404966  0.936764  0.900237
    Zn  Zn9   0.504347  0.499994  0.084681  1.285424
    Zn  Zn10  0.495654  0.500006  0.915318  1.285440
    Zn  Zn11  0.004349  0.000006  0.084678  1.285416
    Zn  Zn12  0.995652  0.999992  0.915321  1.285419
    N   N1    0.718697  0.999968  0.599100  -0.587341
    H   H33   0.709074  0.957061  0.641735  0.260777
    H   H34   0.708710  0.042522  0.642335  0.254222
    N   N2    0.281305  0.000032  0.400895  -0.587406
    H   H35   0.291290  0.957481  0.357669  0.254253
    H   H36   0.290925  0.042937  0.358268  0.260834
    N   N3    0.218686  0.500016  0.599108  -0.588003
    H   H37   0.209048  0.542910  0.641753  0.260945
    H   H38   0.208692  0.457457  0.642327  0.254382
    N   N4    0.781313  0.499984  0.400898  -0.587951
    H   H39   0.790953  0.457088  0.358244  0.260921
    H   H40   0.791309  0.542546  0.357670  0.254310
    N   N5    0.436418  0.046355  0.823255  -0.850497
    H   H41   0.459542  0.090453  0.819773  0.312492
    H   H42   0.452891  0.002934  0.839731  0.312474
    N   N6    0.563582  0.953646  0.176745  -0.850490
    H   H43   0.540459  0.909547  0.180227  0.312484
    H   H44   0.547109  0.997066  0.160269  0.312480
    N   N7    0.344687  0.044498  0.798131  -0.792950
    H   H45   0.321211  0.000379  0.803334  0.275525
    H   H46   0.327191  0.087947  0.783777  0.296409
    N   N8    0.655312  0.955502  0.201870  -0.792963
    H   H47   0.678790  0.999621  0.196666  0.275525
    H   H48   0.672809  0.912053  0.216224  0.296413
    N   N9    0.155251  0.544697  0.201856  -0.792464
    H   H49   0.178797  0.500639  0.196576  0.275221
    H   H50   0.172680  0.588168  0.216304  0.296275
    N   N10   0.844749  0.455303  0.798144  -0.792466
    H   H51   0.821203  0.499361  0.803425  0.275226
    H   H52   0.827320  0.411832  0.783696  0.296284
    N   N11   0.063498  0.546158  0.176726  -0.851287
    H   H53   0.040250  0.590127  0.180238  0.312852
    H   H54   0.047145  0.502625  0.160226  0.312774
    N   N12   0.936502  0.453842  0.823274  -0.851287
    H   H55   0.959750  0.409874  0.819762  0.312854
    H   H56   0.952855  0.497375  0.839774  0.312775
    N   N13   0.620570  0.330152  0.040842  -0.983506
    H   H57   0.579838  0.317435  0.070860  0.380199
    H   H58   0.627456  0.381560  0.054712  0.383869
    N   N14   0.379430  0.669848  0.959158  -0.983447
    H   H59   0.372544  0.618440  0.945288  0.383870
    H   H60   0.420162  0.682565  0.929140  0.380204
    N   N15   0.360006  0.361755  0.971838  -0.930016
    H   H61   0.397691  0.341668  0.929332  0.365433
    H   H62   0.358053  0.416413  0.968296  0.364070
    N   N16   0.639995  0.638246  0.028161  -0.929939
    H   H63   0.641947  0.583587  0.031704  0.364046
    H   H64   0.602309  0.658332  0.070668  0.365412
    N   N17   0.139897  0.861556  0.028261  -0.930726
    H   H65   0.102200  0.841438  0.070659  0.365633
    H   H66   0.141839  0.916205  0.031930  0.364332
    N   N18   0.860103  0.138444  0.971739  -0.930731
    H   H67   0.858161  0.083795  0.968071  0.364334
    H   H68   0.897800  0.158562  0.929341  0.365640
    N   N19   0.879383  0.830211  0.959183  -0.983551
    H   H69   0.920112  0.817473  0.929126  0.380261
    H   H70   0.872505  0.881629  0.945334  0.383848
    N   N20   0.120617  0.169789  0.040817  -0.983527
    H   H71   0.127495  0.118371  0.054666  0.383834
    H   H72   0.079888  0.182527  0.070874  0.380259
    N   N21   0.636258  0.385355  0.747368  -0.728834
    H   H73   0.640262  0.438182  0.760124  0.301135
    H   H74   0.598846  0.373591  0.751013  0.329193
    N   N22   0.363742  0.614645  0.252632  -0.728796
    H   H75   0.359738  0.561818  0.239876  0.301051
    H   H76   0.401154  0.626410  0.248987  0.329176
    N   N23   0.397314  0.326297  0.225666  -0.756239
    H   H77   0.398727  0.376241  0.249968  0.341277
    H   H78   0.435039  0.308211  0.180262  0.296014
    N   N24   0.602687  0.673704  0.774334  -0.756173
    H   H79   0.601273  0.623758  0.750032  0.341252
    H   H80   0.564961  0.691789  0.819739  0.296021
    N   N25   0.102703  0.826324  0.774301  -0.755971
    H   H81   0.101289  0.876276  0.750017  0.341290
    H   H82   0.064980  0.808217  0.819681  0.295959
    N   N26   0.897296  0.173676  0.225699  -0.755989
    H   H83   0.898711  0.123724  0.249983  0.341295
    H   H84   0.935021  0.191784  0.180319  0.295959
    N   N27   0.863770  0.885315  0.252635  -0.728843
    H   H85   0.859751  0.938151  0.239935  0.301050
    H   H86   0.901193  0.873541  0.248943  0.329173
    N   N28   0.136230  0.114684  0.747365  -0.728906
    H   H87   0.140249  0.061849  0.760065  0.301062
    H   H88   0.098807  0.126459  0.751057  0.329198
    N   N29   0.750086  0.209101  0.788392  -0.933502
    H   H89   0.784907  0.234272  0.743378  0.375243
    H   H90   0.740151  0.166371  0.760141  0.370100
    N   N30   0.249914  0.790899  0.211608  -0.933585
    H   H91   0.259849  0.833629  0.239859  0.370119
    H   H92   0.215093  0.765728  0.256623  0.375261
    N   N31   0.231242  0.243078  0.225589  -0.971932
    H   H93   0.203421  0.272201  0.278523  0.379037
    H   H94   0.236303  0.192281  0.243869  0.385828
    N   N32   0.768759  0.756922  0.774412  -0.971819
    H   H95   0.763697  0.807720  0.756131  0.385811
    H   H96   0.796579  0.727798  0.721477  0.379002
    N   N33   0.268803  0.743177  0.774370  -0.972820
    H   H97   0.296597  0.772330  0.721438  0.379479
    H   H98   0.263771  0.692370  0.756078  0.386379
    N   N34   0.731197  0.256823  0.225631  -0.972815
    H   H99   0.736229  0.307629  0.243922  0.386377
    H   H100  0.703403  0.227671  0.278561  0.379474
    N   N35   0.749895  0.709135  0.211624  -0.933929
    H   H101  0.715077  0.734301  0.256656  0.375463
    H   H102  0.759829  0.666392  0.239856  0.370255
    N   N36   0.250106  0.290865  0.788376  -0.933913
    H   H103  0.240171  0.333608  0.760144  0.370244
    H   H104  0.284924  0.265698  0.743344  0.375468
