# Generated by REPEAT Assigner based on pymatgen
data_DB0-m3_o4_o11_f0_nbo.sym.64
_audit_creation_date              2022-05-24
_audit_creation_method            REPEAT_Assigner
_cell_length_a                    18.894307
_cell_length_b                    19.013073
_cell_length_c                    19.017033
_cell_angle_alpha                 70.658505
_cell_angle_beta                  70.394868
_cell_angle_gamma                 109.343225
_cell_volume                      5267.004140
_symmetry_space_group_name_H-M    P1
_symmetry_Int_Tables_number       1
loop_
    _symmetry_equiv_pos_site_id
    _symmetry_equiv_pos_as_xyz
    1  x,y,z
loop_
    _atom_site_type_symbol
    _atom_site_label
    _atom_site_fract_x
    _atom_site_fract_y
    _atom_site_fract_z
    _atom_type_partial_charge
    O   O1   0.857490  0.439429  0.037600  -0.678272
    O   O2   0.963405  0.442332  0.929327  -0.686626
    C   C1   0.881802  0.414251  0.981845  0.725245
    O   O3   0.955301  0.620710  0.947842  -0.692364
    O   O4   0.062782  0.622825  0.841948  -0.678232
    C   C2   0.010286  0.651387  0.866651  0.740723
    Zn  Zn1  0.933868  0.526817  0.056026  1.276390
    Zn  Zn2  0.072170  0.526486  0.917710  1.287079
    O   O5   0.042537  0.609824  0.045498  -0.681736
    O   O6   0.148457  0.615006  0.935200  -0.657726
    O   O7   0.941957  0.429151  0.131679  -0.643191
    O   O8   0.051951  0.433818  0.025838  -0.682160
    C   C3   0.124149  0.638902  0.992275  0.582852
    C   C4   0.995862  0.401870  0.106753  0.637691
    C   C5   0.989219  0.839322  0.743435  -0.079714
    C   C6   0.973262  0.827981  0.683549  -0.155752
    H   H1   0.002525  0.899249  0.743611  0.128945
    H   H2   0.949968  0.765229  0.688577  0.128900
    C   C7   0.981996  0.769409  0.814063  -0.081377
    C   C8   0.012277  0.718764  0.798933  -0.196867
    H   H3   0.958867  0.764362  0.876915  0.137849
    H   H4   0.044088  0.730196  0.733906  0.131429
    C   C9   0.734839  0.291908  0.051205  0.235347
    C   C10  0.814130  0.351401  0.978976  -0.133290
    C   C11  0.826148  0.348738  0.903827  -0.154055
    H   H5   0.887045  0.394430  0.844542  0.148259
    C   C12  0.759366  0.288080  0.903786  -0.194090
    H   H6   0.769891  0.286583  0.844934  0.153704
    C   C13  0.681254  0.227269  0.979551  -0.006519
    C   C14  0.673093  0.232071  0.051859  -0.021951
    C   C15  0.612098  0.190236  0.145160  -0.064032
    C   C16  0.684947  0.260315  0.144604  -0.273283
    H   H7   0.554210  0.197958  0.157810  0.095848
    H   H8   0.600259  0.124475  0.181521  0.063707
    H   H9   0.667393  0.306628  0.157635  0.090443
    H   H10  0.714080  0.233658  0.180297  0.093058
    C   C17  0.922310  0.269342  0.246205  0.149302
    C   C18  0.997018  0.336360  0.172812  -0.030452
    C   C19  0.074256  0.341092  0.165934  -0.217974
    H   H11  0.135331  0.393548  0.110048  0.158516
    C   C20  0.073935  0.280174  0.232182  -0.140356
    H   H12  0.134551  0.284935  0.226061  0.139153
    C   C21  0.996181  0.211861  0.304033  -0.062021
    C   C22  0.921900  0.209269  0.306979  0.078313
    C   C23  0.826222  0.158697  0.361311  -0.116676
    C   C24  0.826690  0.229291  0.289478  -0.263552
    H   H13  0.798852  0.095157  0.365414  0.065039
    H   H14  0.803254  0.159153  0.422941  0.082059
    H   H15  0.799929  0.205087  0.253330  0.123956
    H   H16  0.803644  0.268995  0.310993  0.091978
    C   C25  0.184519  0.706200  0.067275  -0.207356
    C   C26  0.191579  0.704393  0.993231  0.171331
    C   C27  0.265191  0.771867  0.916060  -0.250815
    H   H17  0.274132  0.773848  0.856103  0.157856
    C   C28  0.325879  0.839981  0.913996  -0.160508
    H   H18  0.381799  0.892418  0.853056  0.150767
    C   C29  0.314899  0.840613  0.989490  -0.110102
    C   C30  0.243029  0.771888  0.064032  0.265423
    C   C31  0.195564  0.742266  0.156895  -0.335814
    C   C32  0.127219  0.663358  0.162425  0.110089
    H   H19  0.233192  0.729731  0.188310  0.113693
    H   H20  0.170561  0.784780  0.168733  0.090156
    H   H21  0.064493  0.662211  0.179805  0.025628
    O   O9   0.128321  0.062923  0.407907  -0.686524
    O   O10  0.021576  0.968995  0.398676  -0.678952
    C   C33  0.102938  0.015196  0.375357  0.742041
    O   O11  0.034253  0.977400  0.588824  -0.683608
    O   O12  0.930928  0.878407  0.580888  -0.698863
    C   C34  0.980073  0.898136  0.614142  0.704514
    Zn  Zn3  0.057239  0.086104  0.494584  1.282426
    Zn  Zn4  0.916147  0.955382  0.490360  1.285757
    O   O13  0.951983  0.074150  0.584744  -0.670843
    O   O14  0.844839  0.977198  0.578332  -0.690388
    O   O15  0.043911  0.163186  0.402630  -0.694656
    O   O16  0.937346  0.064061  0.397823  -0.661332
    C   C35  0.870576  0.026740  0.609188  0.719988
    C   C36  0.992594  0.143198  0.371428  0.698075
    O   O17  0.583003  0.084345  0.841430  -0.664973
    O   O18  0.592304  0.989854  0.946988  -0.692550
    C   C37  0.616325  0.037195  0.866150  0.716876
    O   O19  0.583966  0.176839  0.930648  -0.706144
    O   O20  0.586060  0.078712  0.039868  -0.674984
    C   C38  0.613370  0.157725  0.983750  0.708798
    Zn  Zn5  0.491299  0.098940  0.918108  1.285839
    Zn  Zn6  0.498876  0.969451  0.055716  1.282521
    O   O21  0.397729  0.078321  0.026898  -0.689743
    O   O22  0.406932  0.983865  0.132355  -0.665594
    O   O23  0.404311  0.989815  0.933667  -0.681251
    O   O24  0.406514  0.891605  0.042879  -0.702120
    C   C39  0.373084  0.030469  0.107842  0.699826
    C   C40  0.377536  0.910799  0.989399  0.740888
    C   C41  0.238396  0.012467  0.312456  0.143504
    C   C42  0.169409  0.016755  0.307089  -0.100004
    C   C43  0.167846  0.026532  0.232079  -0.178628
    H   H22  0.115320  0.031326  0.224081  0.147557
    C   C44  0.235550  0.033674  0.165266  -0.153797
    H   H23  0.233827  0.042268  0.106879  0.145865
    C   C45  0.303306  0.027195  0.174615  -0.075113
    C   C46  0.300422  0.014933  0.250903  0.087623
    C   C47  0.348400  0.004793  0.297818  -0.081230
    C   C48  0.275084  0.001618  0.370442  -0.182519
    H   H24  0.347878  0.942760  0.316616  0.059456
    H   H25  0.412042  0.063152  0.266104  0.022403
    H   H26  0.233428  0.937709  0.429677  0.075087
    H   H27  0.297908  0.058151  0.379235  0.079660
    C   C49  0.811101  0.032138  0.742922  0.111834
    C   C50  0.805123  0.029516  0.673935  -0.102717
    C   C51  0.733793  0.029520  0.668462  -0.108864
    H   H28  0.726255  0.028125  0.614966  0.120946
    C   C52  0.672961  0.034241  0.730198  -0.222590
    H   H29  0.618309  0.035379  0.724408  0.162795
    C   C53  0.680650  0.034513  0.800173  -0.064461
    C   C54  0.750888  0.032034  0.804008  0.124269
    C   C55  0.794508  0.032363  0.855850  -0.169653
    C   C56  0.865153  0.031792  0.784186  -0.145646
    H   H30  0.818183  0.093258  0.857399  0.076596
    H   H31  0.757054  0.971996  0.918578  0.078068
    H   H32  0.928398  0.092154  0.746049  0.074152
    H   H33  0.866830  0.970899  0.806772  0.077949
    C   C57  0.119077  0.577111  0.216202  0.516755
    C   C58  0.088884  0.558265  0.308667  -0.354564
    C   C59  0.050707  0.506099  0.217535  -0.380731
    C   C60  0.203151  0.574492  0.180944  -0.347661
    H   H34  0.031711  0.566648  0.332211  0.047874
    H   H35  0.140892  0.601514  0.313504  0.059620
    H   H36  0.070612  0.491249  0.350556  0.077046
    H   H37  0.990116  0.509343  0.237107  0.057102
    H   H38  0.036829  0.442397  0.263144  0.074328
    H   H39  0.075371  0.513443  0.152666  0.167191
    H   H40  0.255979  0.623884  0.179564  0.068024
    H   H41  0.224089  0.582749  0.115505  0.035709
    H   H42  0.191818  0.510776  0.223388  0.077880
