# Generated by REPEAT Assigner based on pymatgen
data_DB0-m3_o78_o22_f0_fsc.sym.4_sqe
_audit_creation_date              2022-05-24
_audit_creation_method            REPEAT_Assigner
_cell_length_a                    13.318782
_cell_length_b                    6.638706
_cell_length_c                    8.997806
_cell_angle_alpha                 90.000000
_cell_angle_beta                  94.970126
_cell_angle_gamma                 90.000000
_cell_volume                      792.589964
_symmetry_space_group_name_H-M    P1
_symmetry_Int_Tables_number       1
loop_
    _symmetry_equiv_pos_site_id
    _symmetry_equiv_pos_as_xyz
    1  x,y,z
loop_
    _atom_site_type_symbol
    _atom_site_label
    _atom_site_fract_x
    _atom_site_fract_y
    _atom_site_fract_z
    _atom_type_partial_charge
    C   C1   0.174147  0.793299  0.957478  -0.123236
    C   C2   0.178701  0.201195  0.003427  -0.353815
    C   C3   0.265386  0.893138  0.966317  -0.198562
    C   C4   0.267014  0.100352  0.983002  0.118095
    C   C5   0.088584  0.099551  0.000900  0.219796
    C   C6   0.086010  0.895623  0.975155  0.148869
    C   C7   0.001178  0.201885  0.023978  -0.418380
    C   C8   0.995823  0.793170  0.971905  -0.361535
    C   C9   0.910989  0.099426  0.020716  0.246020
    C   C10  0.908422  0.895506  0.994993  0.154201
    C   C11  0.822852  0.201736  0.038385  -0.263402
    C   C12  0.818316  0.793847  0.992498  -0.218103
    C   C13  0.731596  0.101949  0.029587  -0.054701
    C   C14  0.729979  0.894597  0.012939  -0.068972
    H   H1   0.172230  0.632461  0.941971  0.055905
    H   H2   0.180598  0.361005  0.024062  0.287755
    H   H3   0.003341  0.362223  0.044236  0.151453
    H   H4   0.993659  0.632827  0.951667  0.148228
    H   H5   0.824774  0.362574  0.053888  0.145181
    H   H6   0.816446  0.634037  0.971871  0.152982
    O   O1   0.608556  0.708928  0.137512  -0.676623
    O   O2   0.609972  0.299731  0.142747  -0.639014
    O   O3   0.601090  0.706584  0.880491  -0.663829
    O   O4   0.602687  0.280823  0.885917  -0.641170
    C   C15  0.637855  0.775031  0.010329  0.743453
    C   C16  0.639919  0.224018  0.019439  0.724200
    O   O5   0.388608  0.285473  0.858512  -0.620907
    O   O6   0.387159  0.695823  0.853280  -0.724392
    O   O7   0.396022  0.287712  0.115565  -0.479172
    O   O8   0.394395  0.714849  0.110068  -0.739188
    C   C17  0.359236  0.219497  0.985685  0.472013
    C   C18  0.357141  0.771434  0.976538  0.893315
    Zn  Zn1  0.496822  0.491498  0.832241  0.995633
    Zn  Zn2  0.500248  0.503514  0.163738  0.920829
    C   C19  0.538235  0.304025  0.582554  -0.041787
    C   C20  0.557822  0.657181  0.595884  0.141426
    H   H7   0.488765  0.175562  0.606002  0.039227
    H   H8   0.529166  0.798937  0.641663  0.014436
    H   H9   0.614394  0.279192  0.639673  0.039240
    H   H10  0.636228  0.633738  0.644971  0.017979
    C   C21  0.545728  0.319661  0.415776  0.011054
    C   C22  0.558311  0.671664  0.427815  -0.324761
    H   H11  0.626192  0.316067  0.392852  0.033583
    H   H12  0.637279  0.659682  0.398551  0.091692
    H   H13  0.505957  0.190283  0.359301  -0.044976
    H   H14  0.527630  0.817571  0.385000  0.154129
    H   H15  0.349671  0.378959  0.596573  0.004114
    H   H16  0.358407  0.643868  0.614102  0.068063
    C   C23  0.394440  0.511706  0.567071  0.093362
    N   N1   0.496092  0.488429  0.636998  0.051074
    N   N2   0.500549  0.506647  0.358813  0.368498
    C   C24  0.396722  0.512688  0.397919  0.116835
    O   O9   0.348877  0.337289  0.344083  -0.269714
    C   C25  0.246803  0.372726  0.356684  0.115125
    H   H17  0.211604  0.434833  0.250199  -0.036864
    H   H18  0.238400  0.481818  0.448125  -0.023360
    H   H19  0.209302  0.229415  0.382740  0.019407
    O   O10  0.346451  0.677427  0.326679  0.015065
    C   C26  0.342147  0.837521  0.426875  -0.381722
    H   H20  0.412819  0.852685  0.499653  0.106059
    H   H21  0.274444  0.823181  0.489874  0.110646
    H   H22  0.333386  0.979161  0.361693  0.179244
