# Generated by REPEAT Assigner based on pymatgen
data_DB0-m2_o1_o12_f0_pcu.sym.83_sqe
_audit_creation_date              2022-05-24
_audit_creation_method            REPEAT_Assigner
_cell_length_a                    11.287409
_cell_length_b                    10.850602
_cell_length_c                    9.394886
_cell_angle_alpha                 90.020002
_cell_angle_beta                  102.336397
_cell_angle_gamma                 89.996985
_cell_volume                      1124.072000
_symmetry_space_group_name_H-M    P1
_symmetry_Int_Tables_number       1
loop_
    _symmetry_equiv_pos_site_id
    _symmetry_equiv_pos_as_xyz
    1  x,y,z
loop_
    _atom_site_type_symbol
    _atom_site_label
    _atom_site_fract_x
    _atom_site_fract_y
    _atom_site_fract_z
    _atom_type_partial_charge
    O   O1   0.508074  0.309614  0.634650  -0.570395
    O   O2   0.497125  0.668807  0.390591  -0.636394
    O   O3   0.501083  0.310675  0.388299  -0.521377
    O   O4   0.503128  0.667785  0.636145  -0.559428
    C   C1   0.501862  0.252363  0.510461  0.583126
    C   C2   0.496834  0.726317  0.512840  0.654901
    O   O5   0.325675  0.481939  0.594899  -0.420732
    O   O6   0.671512  0.488030  0.427944  -0.461048
    O   O7   0.319339  0.483666  0.349415  -0.587118
    O   O8   0.677973  0.487137  0.674283  -0.511876
    C   C3   0.265485  0.486512  0.459911  0.659116
    C   C4   0.731872  0.489479  0.563407  0.634978
    Cu  Cu1  0.501501  0.488324  0.654565  0.730429
    Cu  Cu2  0.496094  0.490235  0.368644  0.868237
    C   C5   0.421423  0.411782  0.061645  -0.042682
    C   C6   0.575283  0.565592  0.961231  -0.038364
    C   C7   0.428735  0.411168  0.917124  0.092482
    C   C8   0.567424  0.566785  0.106002  0.079711
    H   H1   0.360655  0.348636  0.099863  0.100971
    H   H2   0.638927  0.625247  0.923827  0.113180
    C   C9   0.133363  0.470071  0.430322  -0.329446
    C   C10  0.865477  0.496534  0.594001  -0.389584
    C   C11  0.064584  0.506227  0.523436  0.063484
    C   C12  0.932365  0.477964  0.492368  -0.006804
    H   H3   0.906958  0.525341  0.703132  0.189680
    H   H4   0.095552  0.418956  0.332764  0.150024
    H   H5   0.373336  0.347297  0.843162  0.062095
    H   H6   0.624607  0.628304  0.180959  0.069923
    C   C13  0.496853  0.052114  0.383250  -0.136676
    C   C14  0.504463  0.926676  0.640473  -0.056515
    H   H7   0.492811  0.099491  0.281249  0.118542
    H   H8   0.507146  0.879393  0.742349  0.093325
    C   C15  0.494698  0.925060  0.384055  -0.097004
    C   C16  0.506376  0.053739  0.639358  -0.145344
    H   H9   0.489270  0.876211  0.282597  0.114384
    H   H10  0.510000  0.102104  0.740742  0.122106
    C   C17  0.498827  0.861568  0.512702  -0.020062
    C   C18  0.502722  0.117227  0.510886  0.026279
    N   N1   0.506505  0.486510  0.868727  -0.044313
    N   N2   0.489080  0.491128  0.154094  -0.076392
    C   C19  0.875218  0.428499  0.348093  0.283971
    C   C20  0.876790  0.485544  0.217915  -0.176518
    C   C21  0.811445  0.411347  0.114034  -0.152865
    C   C22  0.774147  0.314497  0.187790  -0.108442
    O   O9   0.812801  0.324268  0.330672  -0.109710
    H   H11  0.919621  0.571799  0.200797  0.119046
    H   H12  0.791421  0.426990  0.997752  0.119848
    H   H13  0.717370  0.239746  0.136547  0.138118
    C   C23  0.120127  0.578730  0.652621  0.160811
    C   C24  0.181132  0.687236  0.646173  -0.166717
    C   C25  0.221821  0.722148  0.786754  -0.255024
    C   C26  0.183577  0.632061  0.869363  0.007315
    O   O10  0.121602  0.543985  0.788172  -0.119336
    H   H14  0.193546  0.734884  0.549379  0.128842
    H   H15  0.272287  0.804587  0.825018  0.158831
    H   H16  0.200768  0.632626  0.987087  0.096413
