# Generated by REPEAT Assigner based on pymatgen
data_DB0-m29_o93_o86_f0_pts.sym.14
_audit_creation_date              2022-05-24
_audit_creation_method            REPEAT_Assigner
_cell_length_a                    15.136819
_cell_length_b                    14.505386
_cell_length_c                    11.359576
_cell_angle_alpha                 86.919175
_cell_angle_beta                  101.453703
_cell_angle_gamma                 106.430539
_cell_volume                      2344.666718
_symmetry_space_group_name_H-M    P1
_symmetry_Int_Tables_number       1
loop_
    _symmetry_equiv_pos_site_id
    _symmetry_equiv_pos_as_xyz
    1  x,y,z
loop_
    _atom_site_type_symbol
    _atom_site_label
    _atom_site_fract_x
    _atom_site_fract_y
    _atom_site_fract_z
    _atom_type_partial_charge
    C   C1   0.802836  0.032678  0.191339  -0.099378
    H   H1   0.793113  0.039313  0.281906  0.165322
    C   C2   0.890543  0.036159  0.173236  -0.168056
    H   H2   0.948386  0.046880  0.248935  0.129151
    C   C3   0.904839  0.021759  0.060898  0.086761
    C   C4   0.829915  0.010558  0.962676  0.362093
    C   C5   0.740187  0.008490  0.979932  -0.311934
    C   C6   0.726913  0.015616  0.097419  -0.014703
    N   N1   0.997005  0.021898  0.050750  -0.052495
    N   N2   0.998902  0.981052  0.958310  -0.132575
    C   C7   0.100986  0.966020  0.830987  0.057063
    C   C8   0.188121  0.973094  0.808268  0.378150
    C   C9   0.266324  0.994044  0.899785  -0.327667
    C   C10  0.255635  0.003902  0.017768  0.003333
    C   C11  0.166937  0.000648  0.038100  -0.272782
    H   H3   0.157839  0.009108  0.128440  0.129965
    C   C12  0.090013  0.982959  0.943947  0.278068
    O   O1   0.525501  0.123464  0.654281  -0.631418
    C   C13  0.453324  0.147977  0.590103  0.721317
    O   O2   0.424869  0.088175  0.896533  -0.556953
    O   O3   0.368475  0.089103  0.579139  -0.549104
    O   O4   0.366341  0.950373  0.786874  -0.597409
    C   C14  0.357641  0.008833  0.865376  0.861856
    Fe  Fe1  0.487624  0.996992  0.732356  1.384825
    O   O5   0.578439  0.002290  0.888438  -0.517172
    O   O6   0.677762  0.005217  0.764062  -0.450275
    C   C15  0.662697  0.003852  0.874050  0.680585
    O   O7   0.483780  0.907832  0.601190  -0.465235
    O   O8   0.512197  0.817052  0.764024  -0.514018
    C   C16  0.493500  0.825314  0.646685  0.523700
    O   O9   0.507953  0.094010  0.399430  -0.491975
    O   O10  0.498148  0.191322  0.239033  -0.478185
    C   C17  0.509097  0.180080  0.355986  0.547535
    O   O11  0.414705  0.000735  0.111197  -0.516385
    O   O12  0.319212  0.023051  0.230792  -0.480824
    C   C18  0.333545  0.011972  0.122896  0.613582
    O   O13  0.626755  0.926041  0.435096  -0.501076
    O   O14  0.627359  0.058538  0.211887  -0.691548
    C   C19  0.635110  0.002330  0.130155  0.857899
    O   O15  0.472657  0.879589  0.343551  -0.669887
    C   C20  0.545761  0.859893  0.413019  0.659345
    O   O16  0.566942  0.924070  0.097333  -0.567073
    Fe  Fe2  0.506609  0.007270  0.266807  1.447368
    C   C21  0.534727  0.764552  0.469160  0.196571
    C   C22  0.493336  0.745432  0.570203  -0.144917
    C   C23  0.461462  0.650520  0.606869  0.158995
    C   C24  0.405650  0.627059  0.693525  -0.166953
    C   C25  0.378524  0.534421  0.733685  -0.198969
    C   C26  0.612545  0.708918  0.327888  0.567933
    C   C27  0.559391  0.691296  0.418655  -0.324155
    C   C28  0.532415  0.597727  0.461848  0.128577
    C   C29  0.636615  0.635394  0.283024  -0.458185
    C   C30  0.607189  0.543461  0.323553  0.280256
    C   C31  0.481818  0.577303  0.553286  -0.032423
    C   C32  0.453420  0.483429  0.593533  -0.003199
    C   C33  0.403850  0.463161  0.685680  0.209453
    C   C34  0.378343  0.371326  0.729551  -0.229804
    C   C35  0.554508  0.523582  0.412142  -0.115589
    C   C36  0.524717  0.429562  0.450991  0.049110
    C   C37  0.474549  0.409631  0.542443  0.029208
    C   C38  0.448513  0.316703  0.585872  -0.055891
    C   C39  0.401521  0.298596  0.681501  0.008301
    C   C40  0.633288  0.472073  0.276967  -0.173665
    C   C41  0.603481  0.379115  0.314546  -0.190351
    C   C42  0.545015  0.355802  0.397965  0.131492
    C   C43  0.510670  0.260617  0.432772  -0.099035
    C   C44  0.468963  0.242687  0.533361  0.011446
    H   H4   0.379291  0.678941  0.729699  0.164188
    H   H5   0.336560  0.517988  0.802779  0.136330
    H   H6   0.679665  0.650468  0.215069  0.173931
    H   H7   0.339975  0.355727  0.802347  0.143062
    H   H8   0.379548  0.228038  0.719598  0.078511
    H   H9   0.677984  0.488644  0.210924  0.135554
    H   H10  0.630572  0.327057  0.280092  0.163362
    O   O17  0.844364  0.005062  0.848405  -0.306911
    H   H11  0.824718  0.935321  0.830186  0.288369
    O   O18  0.025035  0.947412  0.738852  -0.460656
    H   H12  0.001256  0.876416  0.735920  0.349961
    O   O19  0.196990  0.964326  0.692311  -0.482832
    H   H13  0.195581  0.027470  0.655510  0.375757
    O   O20  0.647185  0.798670  0.284679  -0.503386
    H   H14  0.629820  0.790653  0.196440  0.336762
