# Generated by REPEAT Assigner based on pymatgen
data_DB0-m9_o11_o17_f0_sra.sym.20_sqe
_audit_creation_date              2022-05-24
_audit_creation_method            REPEAT_Assigner
_cell_length_a                    19.790100
_cell_length_b                    6.818000
_cell_length_c                    16.920701
_cell_angle_alpha                 90.000000
_cell_angle_beta                  108.145309
_cell_angle_gamma                 90.000000
_cell_volume                      2169.552846
_symmetry_space_group_name_H-M    P1
_symmetry_Int_Tables_number       1
loop_
    _symmetry_equiv_pos_site_id
    _symmetry_equiv_pos_as_xyz
    1  x,y,z
loop_
    _atom_site_type_symbol
    _atom_site_label
    _atom_site_fract_x
    _atom_site_fract_y
    _atom_site_fract_z
    _atom_type_partial_charge
    O  O1   0.415117  0.564895  0.424012  -0.552248
    O  O2   0.584883  0.064894  0.575988  -0.552241
    O  O3   0.555106  0.911364  0.417897  -0.509349
    O  O4   0.444895  0.411365  0.582103  -0.509335
    C  C1   0.582465  0.733295  0.415153  0.571982
    C  C2   0.417535  0.233296  0.584848  0.571970
    O  O5   0.412839  0.911360  0.396615  -0.519015
    O  O6   0.587161  0.411360  0.603385  -0.519007
    O  O7   0.433180  0.065286  0.553335  -0.502600
    O  O8   0.566820  0.565287  0.446665  -0.502595
    C  C3   0.385956  0.729797  0.385485  0.627626
    C  C4   0.614045  0.229798  0.614515  0.627604
    O  O9   0.510367  0.747349  0.550762  -0.479810
    O  O10  0.489633  0.247349  0.449238  -0.479832
    V  V1   0.496199  0.015252  0.484703  1.382624
    V  V2   0.503801  0.515253  0.515297  1.382440
    C  C5   0.783636  0.332539  0.796898  -0.000377
    C  C6   0.216364  0.832539  0.203103  -0.000373
    C  C7   0.815787  0.159810  0.820200  -0.287576
    C  C8   0.184213  0.659810  0.179800  -0.287568
    H  H1   0.808393  0.463618  0.829520  0.098555
    H  H2   0.191607  0.963618  0.170480  0.098554
    H  H3   0.792343  0.026517  0.788758  0.169149
    H  H4   0.207657  0.526517  0.211242  0.169146
    C  C9   0.715644  0.353853  0.728206  -0.073215
    C  C10  0.284356  0.853854  0.271794  -0.073220
    C  C11  0.681477  0.202573  0.682676  -0.265404
    C  C12  0.318523  0.702572  0.317323  -0.265414
    H  H5   0.692953  0.499299  0.714123  0.125499
    H  H6   0.307047  0.999299  0.285877  0.125502
    H  H7   0.703127  0.056000  0.695142  0.164340
    H  H8   0.296873  0.556001  0.304858  0.164346
    C  C13  0.329294  0.048853  0.632838  -0.255621
    C  C14  0.670706  0.548854  0.367162  -0.255627
    C  C15  0.368115  0.218284  0.634448  0.007144
    C  C16  0.631885  0.718284  0.365552  0.007132
    C  C17  0.358819  0.375422  0.681992  -0.265515
    C  C18  0.641181  0.875422  0.318008  -0.265496
    C  C19  0.311467  0.362780  0.727477  0.267792
    C  C20  0.688533  0.862780  0.272523  0.267880
    C  C21  0.271950  0.194769  0.724297  -0.130476
    C  C22  0.728050  0.694769  0.275703  -0.130716
    C  C23  0.280819  0.038300  0.676750  0.269046
    C  C24  0.719181  0.538300  0.323251  0.269122
    C  C25  0.303108  0.518485  0.775859  -0.298322
    C  C26  0.696892  0.018485  0.224141  -0.298477
    C  C27  0.255586  0.505834  0.820806  -0.096446
    C  C28  0.744414  0.005834  0.179193  -0.096133
    C  C29  0.215134  0.338702  0.816611  0.107397
    C  C30  0.784866  0.838702  0.183389  0.106810
    C  C31  0.223254  0.183762  0.768064  0.026180
    C  C32  0.776746  0.683763  0.231936  0.026762
    C  C33  0.181807  0.018747  0.762208  0.015427
    C  C34  0.818193  0.518747  0.237792  0.015051
    C  C35  0.191506  0.861200  0.715293  0.051161
    C  C36  0.808495  0.361200  0.284707  0.051224
    C  C37  0.240957  0.870799  0.673088  -0.317183
    C  C38  0.759043  0.370800  0.326912  -0.317232
    C  C39  0.167504  0.325692  0.861740  -0.189560
    C  C40  0.832497  0.825692  0.138260  -0.189229
    C  C41  0.125197  0.160882  0.856321  -0.126783
    C  C42  0.874803  0.660882  0.143679  -0.127124
    C  C43  0.130261  0.010175  0.802103  0.044878
    C  C44  0.869739  0.510175  0.197897  0.045314
    H  H9   0.335722  0.925350  0.595758  0.130133
    H  H10  0.664278  0.425350  0.404242  0.130131
    H  H11  0.388900  0.508654  0.683938  0.156703
    H  H12  0.611100  0.008654  0.316062  0.156708
    H  H13  0.334020  0.650577  0.778856  0.154901
    H  H14  0.665980  0.150577  0.221144  0.154917
    H  H15  0.249660  0.627972  0.858855  0.074586
    H  H16  0.750340  0.127972  0.141145  0.074517
    H  H17  0.163519  0.445449  0.901931  0.124574
    H  H18  0.836481  0.945449  0.098069  0.124532
    H  H19  0.161906  0.726984  0.713001  0.121742
    H  H20  0.838094  0.226984  0.286999  0.121750
    H  H21  0.248154  0.746880  0.636663  0.132025
    H  H22  0.751846  0.246880  0.363338  0.132027
    O  O11  0.936818  0.817902  0.058862  -0.545140
    O  O12  0.063182  0.317902  0.941138  -0.545096
    O  O13  0.087796  0.465894  0.098367  -0.523345
    O  O14  0.912204  0.965895  0.901633  -0.523349
    C  C45  0.116060  0.645623  0.111764  0.592246
    C  C46  0.883940  0.145624  0.888236  0.592254
    O  O15  0.946495  0.470765  0.081550  -0.601803
    O  O16  0.053505  0.970765  0.918450  -0.601743
    O  O17  0.912402  0.314635  0.923559  -0.508976
    O  O18  0.087598  0.814636  0.076440  -0.508986
    C  C47  0.921635  0.648577  0.090004  0.649711
    C  C48  0.078365  0.148577  0.909997  0.649580
    O  O19  0.990708  0.631894  0.951561  -0.555053
    O  O20  0.009293  0.131895  0.048439  -0.555051
    V  V3   0.002772  0.363327  0.012407  1.498591
    V  V4   0.997228  0.863327  0.987592  1.498432
    C  C49  0.078503  0.844066  0.778208  -0.010983
    C  C50  0.041560  0.851971  0.685110  -0.173244
    H  H23  0.999639  0.966254  0.671650  0.051866
    H  H24  0.079762  0.890296  0.651622  -0.000710
    H  H25  0.016740  0.707859  0.663313  0.032283
    H  H26  0.107381  0.703103  0.794916  0.031474
    H  H27  0.036074  0.851047  0.807268  0.109338
    C  C51  0.921497  0.344066  0.221792  -0.011194
    C  C52  0.958440  0.351971  0.314891  -0.173271
    H  H28  0.000361  0.466255  0.328350  0.051869
    H  H29  0.920238  0.390296  0.348378  -0.000702
    H  H30  0.983260  0.207859  0.336688  0.032308
    H  H31  0.892620  0.203103  0.205084  0.031514
    H  H32  0.963926  0.351047  0.192732  0.109395
