# Generated by REPEAT Assigner based on pymatgen
data_DB0-m3_o160_o79_f0_fsc.sym.15_sqe
_audit_creation_date              2022-05-24
_audit_creation_method            REPEAT_Assigner
_cell_length_a                    6.682351
_cell_length_b                    10.941789
_cell_length_c                    13.354408
_cell_angle_alpha                 90.000000
_cell_angle_beta                  89.913974
_cell_angle_gamma                 90.000000
_cell_volume                      976.431403
_symmetry_space_group_name_H-M    P1
_symmetry_Int_Tables_number       1
loop_
    _symmetry_equiv_pos_site_id
    _symmetry_equiv_pos_as_xyz
    1  x,y,z
loop_
    _atom_site_type_symbol
    _atom_site_label
    _atom_site_fract_x
    _atom_site_fract_y
    _atom_site_fract_z
    _atom_type_partial_charge
    C   C1   0.794828  0.889614  0.014069  -0.277630
    C   C2   0.794751  0.107817  0.014909  -0.272998
    H   H1   0.634843  0.890033  0.025305  0.159407
    H   H2   0.634713  0.107232  0.025945  0.137016
    C   C3   0.894586  0.779679  0.004834  -0.051860
    C   C4   0.894429  0.217873  0.006446  -0.067943
    C   C5   0.100634  0.779796  0.990730  -0.095672
    C   C6   0.100486  0.217910  0.992351  -0.039585
    C   C7   0.200302  0.889836  0.982290  -0.248519
    C   C8   0.200229  0.107988  0.983136  -0.296174
    H   H3   0.360341  0.890428  0.971256  0.143249
    H   H4   0.360214  0.107561  0.971900  0.168106
    C   C9   0.098641  0.998865  0.990112  0.192358
    C   C10  0.896400  0.998763  0.007094  0.215404
    O   O1   0.692892  0.367295  0.088335  -0.674006
    O   O2   0.693195  0.630852  0.087260  -0.712764
    O   O3   0.718128  0.371092  0.916196  -0.730374
    O   O4   0.718415  0.625739  0.915178  -0.737185
    C   C11  0.772309  0.328857  0.004096  0.853857
    C   C12  0.772661  0.668618  0.002861  0.843744
    O   O5   0.302215  0.366368  0.909837  -0.729019
    O   O6   0.302427  0.630686  0.908785  -0.690654
    O   O7   0.276948  0.371503  0.082116  -0.632431
    O   O8   0.277302  0.626960  0.081066  -0.638305
    C   C13  0.222341  0.328931  0.994308  0.784770
    C   C14  0.222659  0.668846  0.993069  0.795595
    Zn  Zn1  0.506237  0.498331  0.887553  1.074533
    Zn  Zn2  0.485110  0.499308  0.110456  0.970561
    C   C15  0.310159  0.507894  0.297342  -0.163669
    N   N1   0.477012  0.500161  0.241668  0.052174
    C   C16  0.656531  0.492968  0.285741  -0.140701
    C   C17  0.673677  0.489054  0.388624  -0.039428
    C   C18  0.504124  0.499953  0.447079  -0.194167
    C   C19  0.321847  0.513835  0.400291  0.475525
    C   C20  0.685682  0.472025  0.602251  -0.163467
    C   C21  0.512026  0.498231  0.550676  0.193880
    C   C22  0.340425  0.521458  0.604123  0.087396
    C   C23  0.163110  0.542003  0.554808  0.070080
    N   N2   0.155102  0.534618  0.454358  -0.436054
    C   C24  0.684924  0.472603  0.705743  -0.142012
    N   N3   0.515299  0.497542  0.756358  0.171469
    C   C25  0.344817  0.522653  0.707123  -0.221592
    H   H5   0.786175  0.489131  0.238345  0.271050
    H   H6   0.209361  0.541485  0.748700  0.173953
    H   H7   0.030023  0.562815  0.597435  0.106425
    H   H8   0.820464  0.481802  0.421463  0.094279
    H   H9   0.820303  0.446559  0.563101  0.135930
    H   H10  0.820439  0.451207  0.746222  0.168311
    C   C26  0.112148  0.502600  0.249178  0.365423
    O   O9   0.021703  0.392743  0.276928  -0.574529
    H   H11  0.130158  0.505421  0.166662  -0.014586
    H   H12  0.022532  0.581693  0.275508  -0.053681
    H   H13  0.126704  0.348269  0.314360  0.334509
