# Generated by REPEAT Assigner based on pymatgen
data_DB0-m29_o99_o1470_f0_pts.sym.36
_audit_creation_date              2022-05-24
_audit_creation_method            REPEAT_Assigner
_cell_length_a                    15.991374
_cell_length_b                    11.631094
_cell_length_c                    13.783233
_cell_angle_alpha                 88.776320
_cell_angle_beta                  97.552149
_cell_angle_gamma                 95.836614
_cell_volume                      2528.146686
_symmetry_space_group_name_H-M    P1
_symmetry_Int_Tables_number       1
loop_
    _symmetry_equiv_pos_site_id
    _symmetry_equiv_pos_as_xyz
    1  x,y,z
loop_
    _atom_site_type_symbol
    _atom_site_label
    _atom_site_fract_x
    _atom_site_fract_y
    _atom_site_fract_z
    _atom_type_partial_charge
    C   C1   0.201548  0.009151  0.855794  -0.154664
    H   H1   0.212765  0.008215  0.780183  0.157962
    C   C2   0.120072  0.008488  0.877399  -0.130350
    H   H2   0.067571  0.005126  0.819151  0.127231
    C   C3   0.105638  0.014260  0.973144  0.217756
    C   C4   0.172644  0.017283  0.047758  -0.197738
    H   H3   0.159403  0.018327  0.122595  0.197512
    C   C5   0.255164  0.016796  0.026850  0.047792
    C   C6   0.269129  0.016051  0.929472  0.015321
    C   C7   0.020304  0.014918  0.994746  -0.034718
    C   C8   0.948708  0.014533  0.013421  -0.223093
    C   C9   0.796043  0.009638  0.966544  -0.218871
    H   H4   0.808732  0.017495  0.891512  0.171574
    C   C10  0.713460  0.995991  0.988884  0.023450
    C   C11  0.700224  0.982463  0.087188  0.060277
    C   C12  0.769789  0.986564  0.159829  -0.201154
    C   C13  0.851537  0.001746  0.135793  -0.216428
    C   C14  0.864255  0.011722  0.039029  0.368267
    O   O1   0.508857  0.159870  0.741619  -0.508868
    C   C15  0.449528  0.170828  0.667241  0.588566
    O   O2   0.405615  0.121237  0.923839  -0.491684
    O   O3   0.387708  0.087632  0.650662  -0.524309
    O   O4   0.374561  0.951690  0.841963  -0.510912
    C   C16  0.353891  0.028121  0.900500  0.601786
    Fe  Fe1  0.484887  0.003577  0.797128  1.363198
    O   O5   0.564143  0.992684  0.921854  -0.499590
    O   O6   0.661967  0.012488  0.816829  -0.532382
    C   C17  0.643840  0.999214  0.906776  0.579190
    O   O7   0.495037  0.905099  0.682381  -0.509952
    O   O8   0.550743  0.770081  0.787211  -0.465121
    C   C18  0.520678  0.802012  0.698666  0.585197
    O   O9   0.463653  0.083948  0.328832  -0.536574
    O   O10  0.548641  0.228003  0.264981  -0.478694
    C   C19  0.501237  0.190203  0.332005  0.645887
    O   O11  0.398867  0.980131  0.093616  -0.486447
    O   O12  0.311381  0.034330  0.197432  -0.518245
    C   C20  0.324922  0.012566  0.108132  0.498468
    O   O13  0.577957  0.913971  0.368269  -0.484449
    O   O14  0.587757  0.038990  0.171641  -0.525014
    C   C21  0.614871  0.962646  0.117194  0.601611
    O   O15  0.461597  0.826939  0.280181  -0.605531
    C   C22  0.521793  0.823753  0.354507  0.698556
    O   O16  0.569430  0.863323  0.098379  -0.484558
    Fe  Fe2  0.479164  0.981368  0.218542  1.405945
    C   C23  0.530428  0.790593  0.528004  -0.112793
    C   C24  0.517700  0.729086  0.612045  0.021335
    C   C25  0.493292  0.609834  0.605915  -0.127115
    C   C26  0.475885  0.535759  0.694538  -0.038222
    C   C27  0.426328  0.421734  0.663775  -0.142231
    C   C28  0.514099  0.742251  0.436821  -0.114944
    C   C29  0.492067  0.623917  0.429464  0.069099
    C   C30  0.486596  0.557915  0.513887  0.110364
    C   C31  0.480297  0.431740  0.505818  -0.122357
    C   C32  0.463532  0.365935  0.586472  0.149771
    C   C33  0.467390  0.247929  0.585904  -0.100591
    C   C34  0.471463  0.564626  0.333209  -0.021259
    C   C35  0.513155  0.453456  0.334091  -0.142321
    C   C36  0.495751  0.379463  0.420754  0.133029
    C   C37  0.494530  0.259096  0.418700  -0.116330
    C   C38  0.481975  0.196279  0.502311  -0.074757
    H   H5   0.421005  0.365853  0.729050  0.078241
    H   H6   0.492659  0.619223  0.272665  0.074031
    H   H7   0.582588  0.473512  0.335289  0.090292
    H   H8   0.549037  0.882258  0.533264  0.131807
    H   H9   0.483126  0.103556  0.503561  0.178418
    H   H10  0.361068  0.438436  0.632822  0.094478
    H   H11  0.401782  0.543497  0.318361  0.058769
    H   H12  0.485981  0.409208  0.265162  0.093752
    C   C39  0.420011  0.590015  0.756066  0.726653
    O   O17  0.357236  0.632438  0.716938  -0.558764
    O   O18  0.435423  0.584474  0.854560  -0.402338
    C   C40  0.381681  0.625977  0.912114  0.421499
    C   C41  0.413483  0.604635  0.018698  -0.306787
    H   H13  0.317141  0.580614  0.894656  -0.036393
    H   H14  0.379644  0.720116  0.899253  -0.042103
    H   H15  0.413755  0.510356  0.032368  0.079901
    H   H16  0.371256  0.640401  0.065581  0.053996
    H   H17  0.478789  0.647325  0.036204  0.126855
    C   C42  0.757752  0.972662  0.263203  0.855140
    O   O19  0.722743  0.882582  0.291665  -0.568381
    O   O20  0.792800  0.054924  0.327966  -0.472215
    C   C43  0.789375  0.040631  0.426458  0.543813
    C   C44  0.836300  0.145005  0.480166  -0.424483
    H   H18  0.819795  0.962313  0.453119  -0.059493
    H   H19  0.722510  0.032237  0.440989  -0.042970
    H   H20  0.903360  0.154039  0.466051  0.118553
    H   H21  0.833705  0.133701  0.559844  0.095856
    H   H22  0.806211  0.223706  0.453940  0.109325
    C   C45  0.925113  0.999046  0.211926  0.751031
    O   O21  0.983320  0.075931  0.215590  -0.527682
    O   O22  0.928941  0.910858  0.277046  -0.444225
    C   C46  0.997341  0.906345  0.347890  0.504622
    C   C47  0.984835  0.797828  0.409099  -0.358322
    H   H23  0.003249  0.982965  0.395800  -0.049518
    H   H24  0.055937  0.904436  0.313122  -0.044990
    H   H25  0.926264  0.798907  0.443977  0.108477
    H   H26  0.040002  0.794100  0.466547  0.084738
    H   H27  0.979108  0.720923  0.361593  0.092886
    C   C48  0.558456  0.512544  0.753095  0.702808
    O   O23  0.559558  0.449826  0.825261  -0.498829
    O   O24  0.632023  0.557493  0.723345  -0.423242
    C   C49  0.708512  0.535940  0.774297  0.419687
    C   C50  0.779515  0.597509  0.724482  -0.286824
    H   H28  0.714422  0.441685  0.775726  -0.028157
    H   H29  0.713291  0.568279  0.850163  -0.018908
    H   H30  0.775117  0.565524  0.648581  0.073763
    H   H31  0.841452  0.580270  0.765556  0.065288
    H   H32  0.773974  0.691823  0.722807  0.073070
