# Generated by REPEAT Assigner based on pymatgen
data_DB0-m3_o105_o23_f0_fsc.sym.11_sqe
_audit_creation_date              2022-05-24
_audit_creation_method            REPEAT_Assigner
_cell_length_a                    15.724666
_cell_length_b                    10.793598
_cell_length_c                    14.100636
_cell_angle_alpha                 90.000000
_cell_angle_beta                  96.000354
_cell_angle_gamma                 90.000000
_cell_volume                      2380.128620
_symmetry_space_group_name_H-M    P1
_symmetry_Int_Tables_number       1
loop_
    _symmetry_equiv_pos_site_id
    _symmetry_equiv_pos_as_xyz
    1  x,y,z
loop_
    _atom_site_type_symbol
    _atom_site_label
    _atom_site_fract_x
    _atom_site_fract_y
    _atom_site_fract_z
    _atom_type_partial_charge
    C   C1   0.076478  0.938094  0.983443  0.005287
    C   C2   0.080256  0.057865  0.017911  -0.013859
    C   C3   0.997593  0.878135  0.974988  -0.174547
    C   C4   0.006121  0.111434  0.044918  -0.112532
    H   H1   0.996264  0.780094  0.965512  0.115384
    H   H2   0.011630  0.190407  0.090817  0.072491
    C   C5   0.921534  0.939349  0.988040  -0.002786
    C   C6   0.925991  0.058813  0.023019  -0.004548
    C   C7   0.230556  0.934365  0.991235  0.086600
    C   C8   0.232873  0.061024  0.010619  0.042761
    C   C9   0.305156  0.863563  0.996434  -0.219723
    C   C10  0.307982  0.129258  0.007607  -0.203110
    H   H3   0.365820  0.898472  0.028167  0.112988
    H   H4   0.366034  0.089202  0.986860  0.128962
    C   C11  0.303136  0.743031  0.964546  -0.068094
    C   C12  0.309166  0.254426  0.025653  -0.042681
    C   C13  0.227613  0.694237  0.923527  -0.070918
    C   C14  0.236497  0.313176  0.046493  -0.085079
    H   H5   0.225838  0.601028  0.895333  0.108130
    H   H6   0.237048  0.412171  0.058184  0.102269
    C   C15  0.152594  0.759095  0.925970  -0.217930
    C   C16  0.161044  0.249611  0.043531  -0.213396
    H   H7   0.095642  0.714035  0.893856  0.121887
    H   H8   0.105623  0.306043  0.050285  0.129291
    C   C17  0.152335  0.876800  0.966860  0.085269
    C   C18  0.157760  0.122534  0.025624  0.092976
    C   C19  0.851578  0.251128  0.054031  -0.210482
    C   C20  0.832464  0.762984  0.932657  -0.245760
    H   H9   0.908481  0.307054  0.058725  0.131829
    H   H10  0.881213  0.719206  0.896109  0.122980
    C   C21  0.776977  0.315506  0.059006  -0.080735
    C   C22  0.757343  0.698722  0.933144  -0.041930
    H   H11  0.779143  0.414778  0.069131  0.093430
    H   H12  0.752233  0.606923  0.902424  0.114238
    C   C23  0.699784  0.257097  0.041410  -0.054510
    C   C24  0.692033  0.746270  0.979097  -0.056883
    C   C25  0.697215  0.131475  0.024738  -0.206603
    C   C26  0.697294  0.865773  0.012927  -0.208968
    C   C27  0.772613  0.062918  0.024631  0.073464
    C   C28  0.770379  0.936448  0.004653  0.040562
    C   C29  0.850825  0.124000  0.035679  0.077948
    C   C30  0.842290  0.879141  0.975349  0.118232
    H   H13  0.643867  0.900489  0.047110  0.124967
    H   H14  0.634967  0.091506  0.005600  0.118560
    O   O1   0.415830  0.391711  0.092650  -0.715636
    O   O2   0.412259  0.641045  0.065554  -0.694624
    O   O3   0.408720  0.347914  0.931574  -0.673971
    O   O4   0.404505  0.608246  0.903247  -0.722032
    C   C31  0.384560  0.329938  0.016919  0.790008
    C   C32  0.379036  0.663921  0.978028  0.851593
    O   O5   0.586081  0.606903  0.913431  -0.697949
    O   O6   0.589742  0.356471  0.940641  -0.651953
    O   O7   0.593412  0.650525  0.074454  -0.698759
    O   O8   0.597258  0.388894  0.103023  -0.724868
    C   C33  0.617823  0.668217  0.989117  0.793619
    C   C34  0.622646  0.333236  0.028225  0.813264
    Zn  Zn1  0.494216  0.475681  0.898281  1.080488
    Zn  Zn2  0.507785  0.522332  0.107804  1.119578
    C   C35  0.545418  0.374450  0.551353  0.382786
    C   C36  0.538353  0.604914  0.575860  0.392574
    C   C37  0.555045  0.617358  0.472369  -0.381407
    C   C38  0.545259  0.391217  0.443953  -0.358839
    H   H15  0.609842  0.382927  0.419606  0.089455
    H   H16  0.624459  0.608225  0.465990  0.081543
    H   H17  0.496172  0.681851  0.593671  0.003035
    H   H18  0.513609  0.285231  0.563922  0.004466
    H   H19  0.533094  0.709654  0.445256  0.084339
    H   H20  0.505178  0.317577  0.407190  0.060894
    N   N1   0.514614  0.544401  0.231670  -0.119195
    C   C39  0.495092  0.480491  0.590799  0.321009
    C   C40  0.506491  0.516329  0.415074  0.665333
    C   C41  0.412931  0.519050  0.434148  -0.351490
    C   C42  0.405298  0.484902  0.538013  0.507654
    C   C43  0.511984  0.535196  0.313080  -0.057553
    C   C44  0.489864  0.462438  0.692944  -0.028619
    N   N2   0.487381  0.453671  0.774409  -0.095442
    H   H21  0.374409  0.458074  0.382919  0.077258
    H   H22  0.388420  0.614663  0.421677  0.082805
    O   O9   0.363583  0.371167  0.546162  -0.610348
    H   H23  0.375164  0.319429  0.491128  0.361999
    O   O10  0.357681  0.576349  0.578239  -0.641926
    H   H24  0.298299  0.544552  0.570626  0.431492
    O   O11  0.628420  0.367346  0.598133  -0.593017
    H   H25  0.665939  0.417855  0.561448  0.371160
    O   O12  0.614857  0.615121  0.634989  -0.603486
    H   H26  0.616570  0.702586  0.656258  0.369328
