data_DB0-m3_o11_o28_f0_pcu.sym.8_repeat\(2)
_audit_creation_date              2024-02-23
_audit_creation_method            'Materials Studio'
_symmetry_space_group_name_H-M    'P1'
_symmetry_Int_Tables_number       1
_symmetry_cell_setting            triclinic
loop_
_symmetry_equiv_pos_as_xyz
  x,y,z
_cell_length_a                    23.4216
_cell_length_b                    11.1385
_cell_length_c                    9.9337
_cell_angle_alpha                 89.9974
_cell_angle_beta                  89.9815
_cell_angle_gamma                 90.0113
loop_
_atom_site_label
_atom_site_type_symbol
_atom_site_fract_x
_atom_site_fract_y
_atom_site_fract_z
_atom_site_U_iso_or_equiv
_atom_site_adp_type
_atom_site_occupancy
O1     O     0.50527   0.32117   0.61533   0.00000  Uiso   1.00
O2     O     0.50024   0.32084   0.38374   0.00000  Uiso   1.00
C1     C     0.50279   0.26494   0.49982   0.00000  Uiso   1.00
O3     O     0.41924   0.49892   0.62970   0.00000  Uiso   1.00
O4     O     0.41509   0.49839   0.39769   0.00000  Uiso   1.00
C2     C     0.39043   0.49812   0.51613   0.00000  Uiso   1.00
Zn1    Zn    0.50526   0.49988   0.65255   0.00000  Uiso   1.00
Zn2    Zn    0.49878   0.49976   0.34662   0.00000  Uiso   1.00
O5     O     0.50407   0.67867   0.61580   0.00000  Uiso   1.00
O6     O     0.49903   0.67882   0.38331   0.00000  Uiso   1.00
O7     O     0.58895   0.50158   0.60150   0.00000  Uiso   1.00
O8     O     0.58480   0.50101   0.36946   0.00000  Uiso   1.00
C3     C     0.50123   0.73465   0.49984   0.00000  Uiso   1.00
C4     C     0.61361   0.50161   0.48304   0.00000  Uiso   1.00
C5     C     0.88358   0.59687   0.54022   0.00000  Uiso   1.00
N1     N     0.85562   0.50617   0.47873   0.00000  Uiso   1.00
C6     C     0.88468   0.41357   0.42414   0.00000  Uiso   1.00
C7     C     0.94367   0.40999   0.43130   0.00000  Uiso   1.00
C8     C     0.97263   0.50138   0.49491   0.00000  Uiso   1.00
C9     C     0.94250   0.59565   0.54936   0.00000  Uiso   1.00
C10    C     0.97386   0.31497   0.37696   0.00000  Uiso   1.00
C11    C     0.03256   0.31208   0.38616   0.00000  Uiso   1.00
C12    C     0.06154   0.40414   0.44984   0.00000  Uiso   1.00
C13    C     0.03141   0.49841   0.50429   0.00000  Uiso   1.00
C14    C     0.06037   0.58980   0.56791   0.00000  Uiso   1.00
C15    C     0.03018   0.68482   0.62224   0.00000  Uiso   1.00
C16    C     0.97148   0.68771   0.61304   0.00000  Uiso   1.00
C17    C     0.12046   0.40293   0.45898   0.00000  Uiso   1.00
N2     N     0.14842   0.49363   0.52046   0.00000  Uiso   1.00
C18    C     0.11936   0.58622   0.57506   0.00000  Uiso   1.00
O9     O     0.85392   0.68952   0.59141   0.00000  Uiso   1.00
O10    O     0.85600   0.32262   0.36647   0.00000  Uiso   1.00
H1     H     0.95228   0.24190   0.32668   0.00000  Uiso   1.00
H2     H     0.05511   0.23694   0.34253   0.00000  Uiso   1.00
O11    O     0.15012   0.31028   0.40777   0.00000  Uiso   1.00
O12    O     0.14805   0.67717   0.63273   0.00000  Uiso   1.00
H3     H     0.05176   0.75789   0.67252   0.00000  Uiso   1.00
H4     H     0.94893   0.76285   0.65667   0.00000  Uiso   1.00
C19    C     0.23880   0.49455   0.40102   0.00000  Uiso   1.00
H5     H     0.21587   0.49499   0.30658   0.00000  Uiso   1.00
C20    C     0.29754   0.49584   0.40004   0.00000  Uiso   1.00
H6     H     0.31915   0.49612   0.30394   0.00000  Uiso   1.00
C21    C     0.32778   0.49702   0.51965   0.00000  Uiso   1.00
C22    C     0.29836   0.49719   0.64044   0.00000  Uiso   1.00
H7     H     0.32097   0.49800   0.73524   0.00000  Uiso   1.00
C23    C     0.23935   0.49616   0.64110   0.00000  Uiso   1.00
H8     H     0.21675   0.49537   0.73601   0.00000  Uiso   1.00
C24    C     0.20938   0.49447   0.52124   0.00000  Uiso   1.00
C25    C     0.76524   0.50526   0.59816   0.00000  Uiso   1.00
H9     H     0.78817   0.50482   0.69260   0.00000  Uiso   1.00
C26    C     0.70650   0.50396   0.59914   0.00000  Uiso   1.00
H10    H     0.68489   0.50366   0.69523   0.00000  Uiso   1.00
C27    C     0.67626   0.50278   0.47952   0.00000  Uiso   1.00
C28    C     0.70568   0.50260   0.35874   0.00000  Uiso   1.00
H11    H     0.68308   0.50178   0.26393   0.00000  Uiso   1.00
C29    C     0.76469   0.50364   0.35808   0.00000  Uiso   1.00
H12    H     0.78730   0.50443   0.26318   0.00000  Uiso   1.00
C30    C     0.79467   0.50534   0.47794   0.00000  Uiso   1.00
C31    C     0.49975   0.93329   0.39220   0.00000  Uiso   1.00
C32    C     0.50093   0.86614   0.50404   0.00000  Uiso   1.00
H13    H     0.49858   0.88930   0.29497   0.00000  Uiso   1.00
H14    H     0.50164   0.90549   0.60321   0.00000  Uiso   1.00
C33    C     0.49958   0.06640   0.39233   0.00000  Uiso   1.00
C34    C     0.50334   0.13345   0.50393   0.00000  Uiso   1.00
H15    H     0.49642   0.11050   0.29540   0.00000  Uiso   1.00
H16    H     0.50701   0.09405   0.60271   0.00000  Uiso   1.00
C35    C     0.49620   0.58960   0.92660   0.00000  Uiso   1.00
N3     N     0.51216   0.50064   0.85325   0.00000  Uiso   1.00
H17    H     0.47511   0.66565   0.88022   0.00000  Uiso   1.00
C36    C     0.50631   0.59136   0.07310   0.00000  Uiso   1.00
N4     N     0.49316   0.50012   0.14568   0.00000  Uiso   1.00
H18    H     0.52012   0.67388   0.12074   0.00000  Uiso   1.00
H19    H     0.47350   0.43076   0.09540   0.00000  Uiso   1.00
Cl1    Cl    0.56360   0.40733   0.92114   0.00000  Uiso   1.00
