# Generated by REPEAT Assigner based on pymatgen
data_DB0-m3_o11_o22_f0_pcu.sym.62
_audit_creation_date              2022-05-24
_audit_creation_method            REPEAT_Assigner
_cell_length_a                    10.785433
_cell_length_b                    11.139535
_cell_length_c                    9.916788
_cell_angle_alpha                 89.997369
_cell_angle_beta                  89.988639
_cell_angle_gamma                 90.006244
_cell_volume                      1191.449557
_symmetry_space_group_name_H-M    P1
_symmetry_Int_Tables_number       1
loop_
    _symmetry_equiv_pos_site_id
    _symmetry_equiv_pos_as_xyz
    1  x,y,z
loop_
    _atom_site_type_symbol
    _atom_site_label
    _atom_site_fract_x
    _atom_site_fract_y
    _atom_site_fract_z
    _atom_type_partial_charge
    O   O1   0.492045  0.307909  0.648032  -0.740159
    O   O2   0.492674  0.307343  0.415734  -0.677485
    C   C1   0.492536  0.251530  0.532111  0.840810
    O   O3   0.305871  0.485857  0.641708  -0.705320
    O   O4   0.305789  0.485384  0.409531  -0.706811
    C   C2   0.247690  0.484524  0.525866  0.738933
    Zn  Zn1  0.489958  0.487205  0.681788  1.129010
    Zn  Zn2  0.491005  0.485604  0.374971  1.067283
    O   O5   0.489488  0.665357  0.641467  -0.713472
    O   O6   0.489248  0.665222  0.408215  -0.663212
    O   O7   0.675280  0.488237  0.647669  -0.660706
    O   O8   0.675225  0.488921  0.414480  -0.683782
    C   C3   0.488508  0.721181  0.525112  0.763499
    C   C4   0.733313  0.488521  0.530854  0.698950
    C   C5   0.060984  0.419293  0.650966  -0.130589
    H   H1   0.101139  0.457148  0.744683  0.027161
    H   H2   0.085795  0.322878  0.644370  0.008652
    C   C6   0.921536  0.432855  0.659771  0.065371
    H   H3   0.879066  0.343765  0.678418  -0.030580
    H   H4   0.899158  0.490361  0.747482  -0.013615
    H   H5   0.089377  0.652837  0.630332  0.014998
    C   C7   0.063219  0.613658  0.531599  -0.056635
    C   C8   0.060019  0.424746  0.400980  -0.273173
    C   C9   0.108996  0.485289  0.527163  0.174122
    H   H6   0.083748  0.479668  0.311284  0.037501
    H   H7   0.104024  0.335377  0.389919  0.034048
    C   C10  0.872461  0.487891  0.529548  -0.141229
    C   C11  0.923200  0.616220  0.512620  0.201045
    C   C12  0.919595  0.414008  0.408880  0.432984
    H   H8   0.882226  0.453130  0.314490  -0.099944
    H   H9   0.107892  0.666415  0.450105  -0.013893
    H   H10  0.903647  0.645212  0.407802  -0.026654
    C   C13  0.490777  0.921016  0.419401  -0.054063
    C   C14  0.486493  0.852620  0.530227  -0.241073
    H   H11  0.494544  0.878183  0.321391  0.087233
    H   H12  0.481152  0.891134  0.629826  0.135499
    C   C15  0.489851  0.054118  0.422063  0.044248
    C   C16  0.493698  0.119946  0.535241  -0.362431
    H   H13  0.486860  0.099336  0.325395  0.080596
    H   H14  0.498213  0.079543  0.633973  0.173558
    C   C17  0.569244  0.546873  0.954481  0.064867
    N   N1   0.487679  0.491421  0.883414  -0.267548
    H   H15  0.646072  0.591017  0.904434  0.127420
    H   H16  0.407821  0.465388  0.931537  0.246310
    C   C18  0.557812  0.558009  0.102923  0.138242
    N   N2   0.494566  0.482885  0.173337  -0.293253
    H   H17  0.608341  0.628974  0.153614  0.124623
    H   H18  0.462690  0.407517  0.124923  0.262826
    C   C19  0.864511  0.709307  0.607473  -0.417591
    C   C20  0.905811  0.835735  0.569880  0.350991
    C   C21  0.841277  0.926556  0.659563  -0.338809
    H   H19  0.739520  0.920998  0.645230  0.072842
    H   H20  0.864352  0.908635  0.766663  0.066034
    H   H21  0.873115  0.018100  0.632494  0.060988
    H   H22  0.007206  0.846448  0.582993  -0.055347
    H   H23  0.881006  0.854300  0.463426  -0.062637
    H   H24  0.762309  0.708153  0.598764  0.120093
    H   H25  0.890103  0.691647  0.713801  0.114452
    C   C22  0.880825  0.281599  0.413737  -0.213212
    C   C23  0.881562  0.228736  0.272263  0.110138
    C   C24  0.858352  0.094695  0.278850  -0.119645
    H   H26  0.935013  0.050385  0.334255  0.013491
    H   H27  0.769198  0.076864  0.330812  0.039679
    H   H28  0.854080  0.058000  0.175000  0.011389
    H   H29  0.807267  0.271119  0.211330  -0.026511
    H   H30  0.972205  0.244602  0.222708  -0.021089
    H   H31  0.944409  0.229273  0.478931  0.078156
    H   H32  0.785848  0.271292  0.454448  0.052427
