# Generated by REPEAT Assigner based on pymatgen
data_DB0-m29_o88_o43_f0_pts.sym.71
_audit_creation_date              2022-05-24
_audit_creation_method            REPEAT_Assigner
_cell_length_a                    15.291551
_cell_length_b                    9.308456
_cell_length_c                    20.342892
_cell_angle_alpha                 93.501604
_cell_angle_beta                  104.458822
_cell_angle_gamma                 107.293912
_cell_volume                      2648.329861
_symmetry_space_group_name_H-M    P1
_symmetry_Int_Tables_number       1
loop_
    _symmetry_equiv_pos_site_id
    _symmetry_equiv_pos_as_xyz
    1  x,y,z
loop_
    _atom_site_type_symbol
    _atom_site_label
    _atom_site_fract_x
    _atom_site_fract_y
    _atom_site_fract_z
    _atom_type_partial_charge
    C   C1   0.817687  0.067364  0.118335  -0.155671
    C   C2   0.902301  0.072725  0.104769  -0.039031
    H   H1   0.966474  0.098568  0.146846  0.069426
    C   C3   0.904627  0.037748  0.038645  0.142080
    C   C4   0.822372  0.007255  0.985347  -0.111281
    H   H2   0.825503  0.991273  0.933179  0.130802
    C   C5   0.736740  0.003094  0.997941  -0.098295
    C   C6   0.733937  0.029088  0.065494  0.181275
    C   C7   0.995900  0.038580  0.026921  -0.172346
    C   C8   0.000856  0.955481  0.972591  -0.178803
    H   H3   0.060204  0.107838  0.065221  0.169014
    H   H4   0.936427  0.886354  0.934323  0.154455
    C   C9   0.094985  0.914985  0.895839  -0.186346
    H   H5   0.030896  0.885877  0.853468  0.135682
    C   C10  0.180017  0.918626  0.883309  -0.086387
    H   H6   0.181723  0.894847  0.831051  0.132787
    C   C11  0.263444  0.961318  0.936240  -0.012955
    C   C12  0.260269  0.991024  0.003335  0.049485
    C   C13  0.174464  0.987790  0.015225  -0.183193
    H   H7   0.171335  0.006052  0.067271  0.134796
    C   C14  0.092309  0.954891  0.961493  0.205575
    O   O1   0.521804  0.178150  0.818904  -0.589887
    C   C15  0.475339  0.177159  0.755097  0.592835
    O   O2   0.423992  0.113557  0.944747  -0.448822
    O   O3   0.417277  0.049518  0.716860  -0.518828
    O   O4   0.359762  0.893539  0.870133  -0.572505
    C   C16  0.353526  0.986372  0.918755  0.589446
    Fe  Fe1  0.484611  0.978889  0.851471  1.373205
    O   O5   0.574588  0.000019  0.944805  -0.421751
    O   O6   0.661029  0.951482  0.876315  -0.507499
    C   C17  0.653382  0.979351  0.938265  0.546145
    O   O7   0.486452  0.838753  0.773198  -0.441624
    O   O8   0.488286  0.692787  0.858113  -0.423433
    C   C18  0.488682  0.709198  0.794560  0.467955
    O   O9   0.510852  0.152668  0.228137  -0.463866
    O   O10  0.513267  0.301033  0.144175  -0.433519
    C   C19  0.511242  0.283669  0.207376  0.485183
    O   O11  0.420468  0.988485  0.056859  -0.405014
    O   O12  0.336841  0.050295  0.124828  -0.487753
    C   C20  0.343447  0.016070  0.063130  0.487673
    O   O13  0.581795  0.943848  0.284969  -0.433622
    O   O14  0.635941  0.099501  0.129572  -0.506701
    C   C21  0.643767  0.003638  0.082970  0.505702
    O   O15  0.477443  0.813539  0.183121  -0.544711
    C   C22  0.524425  0.815571  0.246903  0.491060
    O   O16  0.574273  0.874757  0.058261  -0.443243
    Fe  Fe2  0.512297  0.012319  0.149717  1.344335
    H   H8   0.487431  0.433899  0.824971  0.154428
    C   C23  0.489448  0.581998  0.748458  0.094175
    C   C24  0.490420  0.595067  0.681190  -0.172404
    H   H9   0.492230  0.701446  0.662171  0.146083
    C   C25  0.486581  0.470972  0.637774  0.078300
    C   C26  0.479591  0.333208  0.661721  -0.198481
    H   H10  0.477894  0.235757  0.629145  0.145881
    C   C27  0.481738  0.321625  0.729178  0.090973
    C   C28  0.487830  0.445989  0.772564  -0.181748
    C   C29  0.440148  0.366265  0.514560  -0.164979
    H   H11  0.390795  0.264522  0.523670  0.126132
    C   C30  0.448237  0.377442  0.448904  -0.144512
    H   H12  0.404612  0.284696  0.408328  0.122755
    C   C31  0.508437  0.507760  0.434913  0.132400
    C   C32  0.560439  0.626709  0.487602  -0.163326
    H   H13  0.609796  0.728453  0.478496  0.122685
    C   C33  0.552338  0.615540  0.553255  -0.135665
    H   H14  0.595944  0.708291  0.593834  0.119540
    C   C34  0.492146  0.485220  0.567245  0.106175
    C   C35  0.521042  0.659876  0.340478  -0.172632
    H   H15  0.522660  0.757265  0.373054  0.127437
    C   C36  0.518856  0.671489  0.273019  0.107460
    C   C37  0.512756  0.547154  0.229612  -0.207309
    H   H16  0.512961  0.559201  0.177170  0.164793
    C   C38  0.510926  0.411019  0.253631  0.091177
    C   C39  0.509941  0.397880  0.320893  -0.135976
    H   H17  0.508002  0.291411  0.339857  0.127111
    C   C40  0.513997  0.522045  0.364383  0.041649
    I   I1   0.818131  0.102453  0.221803  0.056048
