# Generated by REPEAT Assigner based on pymatgen
data_DB0-m2_o2_o26_f0_pcu.sym.29_sqe
_audit_creation_date              2022-05-24
_audit_creation_method            REPEAT_Assigner
_cell_length_a                    13.670493
_cell_length_b                    15.094018
_cell_length_c                    17.347321
_cell_angle_alpha                 90.003060
_cell_angle_beta                  86.244749
_cell_angle_gamma                 89.996842
_cell_volume                      3571.807120
_symmetry_space_group_name_H-M    P1
_symmetry_Int_Tables_number       1
loop_
    _symmetry_equiv_pos_site_id
    _symmetry_equiv_pos_as_xyz
    1  x,y,z
loop_
    _atom_site_type_symbol
    _atom_site_label
    _atom_site_fract_x
    _atom_site_fract_y
    _atom_site_fract_z
    _atom_type_partial_charge
    O   O1   0.411073  0.620185  0.513612  -0.501042
    O   O2   0.583766  0.365740  0.518565  -0.592622
    O   O3   0.578436  0.623211  0.520526  -0.568192
    O   O4   0.416181  0.362740  0.514561  -0.561343
    C   C1   0.493947  0.663313  0.515901  0.712195
    C   C2   0.501078  0.322479  0.515316  0.678533
    O   O5   0.404413  0.488948  0.629147  -0.588218
    O   O6   0.590098  0.498723  0.404782  -0.509229
    O   O7   0.572173  0.496465  0.629279  -0.554222
    O   O8   0.422531  0.488038  0.404612  -0.582016
    C   C3   0.485068  0.494006  0.665650  0.631797
    C   C4   0.509395  0.494951  0.368259  0.706785
    Cu  Cu1  0.399592  0.491279  0.516929  0.844223
    Cu  Cu2  0.595112  0.494705  0.516941  0.858772
    C   C5   0.478333  0.493241  0.750684  -0.079338
    C   C6   0.516370  0.494873  0.283210  -0.031941
    C   C7   0.554566  0.456143  0.788224  -0.052450
    C   C8   0.444352  0.451518  0.245372  -0.136248
    C   C9   0.549637  0.449050  0.867599  -0.191563
    C   C10  0.450054  0.444898  0.165969  -0.123524
    C   C11  0.467943  0.479355  0.910842  0.222486
    C   C12  0.528293  0.481935  0.122955  0.163766
    C   C13  0.391522  0.515826  0.873722  -0.211745
    C   C14  0.600611  0.524624  0.160336  -0.201589
    C   C15  0.396248  0.524566  0.794262  -0.054840
    C   C16  0.595003  0.532934  0.239852  -0.016978
    C   C17  0.459269  0.474633  0.995721  -0.222980
    C   C18  0.537475  0.477921  0.038054  -0.181005
    H   H1   0.618163  0.430041  0.755543  0.097257
    H   H2   0.383681  0.420126  0.277799  0.119045
    H   H3   0.609897  0.486660  0.009985  0.134066
    H   H4   0.386271  0.477315  0.023828  0.142460
    H   H5   0.329366  0.542235  0.907954  0.119023
    H   H6   0.659850  0.556049  0.126271  0.120682
    H   H7   0.393778  0.408356  0.138785  0.107742
    H   H8   0.609455  0.417401  0.894574  0.122205
    C   C19  0.433072  0.899600  0.468434  -0.130881
    C   C20  0.574667  0.084609  0.476994  -0.122787
    C   C21  0.431932  0.807518  0.467699  -0.062058
    C   C22  0.578144  0.176674  0.476632  -0.118806
    C   C23  0.492402  0.760554  0.514638  -0.108808
    C   C24  0.502314  0.224981  0.514270  -0.137260
    C   C25  0.551858  0.805890  0.562371  -0.045898
    C   C26  0.425546  0.180498  0.552797  -0.010741
    H   H9   0.598362  0.770028  0.599614  0.102096
    H   H10  0.366758  0.216945  0.583018  0.091231
    C   C27  0.550511  0.897002  0.564718  -0.084002
    C   C28  0.424379  0.089376  0.555437  -0.125118
    H   H11  0.596929  0.931773  0.602764  0.094687
    H   H12  0.364447  0.055502  0.586691  0.108744
    C   C29  0.492460  0.944175  0.517287  0.014408
    C   C30  0.497871  0.041131  0.516961  0.058259
    C   C31  0.895729  0.461314  0.454151  -0.226198
    C   C32  0.101401  0.558647  0.550775  -0.235993
    H   H13  0.935893  0.435652  0.403307  0.108796
    H   H14  0.063114  0.614375  0.577614  0.117776
    C   C33  0.794818  0.462837  0.455921  0.233381
    C   C34  0.202062  0.555875  0.550975  0.211165
    H   H15  0.758951  0.435728  0.407580  0.070035
    H   H16  0.239596  0.608208  0.579469  0.076832
    N   N1   0.741515  0.497376  0.516763  -0.191745
    N   N2   0.253237  0.488616  0.516982  -0.172481
    C   C35  0.786648  0.529291  0.577689  0.058801
    C   C36  0.206678  0.425010  0.479101  0.044827
    H   H17  0.744298  0.556456  0.626830  0.118985
    H   H18  0.248053  0.372477  0.449934  0.125687
    C   C37  0.887529  0.527730  0.578257  -0.234185
    C   C38  0.105696  0.425019  0.478680  -0.226349
    H   H19  0.921090  0.551787  0.628884  0.129798
    H   H20  0.070363  0.370880  0.450764  0.129328
    C   C39  0.943606  0.493738  0.515865  0.135416
    C   C40  0.051559  0.492205  0.515211  0.140069
    C   C41  0.668279  0.589071  0.274764  0.578556
    O   O9   0.641840  0.646575  0.320947  -0.482847
    C   C42  0.774752  0.580477  0.250800  -0.439238
    H   H21  0.788017  0.521737  0.213192  0.078643
    H   H22  0.816625  0.572462  0.302968  0.111135
    H   H23  0.800155  0.641128  0.219454  0.138166
    C   C43  0.317987  0.574735  0.759549  0.662921
    O   O10  0.339020  0.634252  0.713885  -0.537042
    C   C44  0.212674  0.557637  0.783073  -0.422390
    H   H24  0.205073  0.498487  0.820872  0.081238
    H   H25  0.172223  0.545544  0.730736  0.107598
    H   H26  0.181024  0.616284  0.814093  0.128703
    C   C45  0.376741  0.949992  0.413946  0.738698
    O   O11  0.307856  0.995881  0.437804  -0.523994
    C   C46  0.403843  0.946469  0.329285  -0.566723
    H   H27  0.468977  0.903510  0.317942  0.145256
    H   H28  0.421051  0.014270  0.307884  0.149362
    H   H29  0.341564  0.919704  0.298675  0.158247
    C   C47  0.648452  0.033074  0.430680  0.714107
    O   O12  0.706255  0.986129  0.462423  -0.510358
    C   C48  0.652930  0.037153  0.344597  -0.573272
    H   H30  0.594134  0.081058  0.325549  0.134249
    H   H31  0.642862  0.969650  0.321207  0.166485
    H   H32  0.725353  0.063102  0.322648  0.159035
    C   C49  0.370891  0.760599  0.414169  0.594484
    O   O13  0.409285  0.712685  0.364293  -0.476250
    C   C50  0.261829  0.768034  0.422136  -0.518012
    H   H33  0.239181  0.809773  0.472799  0.109610
    H   H34  0.229607  0.701051  0.430464  0.137684
    H   H35  0.235011  0.797817  0.369036  0.153977
    C   C51  0.660123  0.221656  0.433729  0.735039
    O   O14  0.644232  0.271233  0.380451  -0.572032
    C   C52  0.762805  0.209226  0.456277  -0.452026
    H   H36  0.763578  0.164954  0.507231  0.098226
    H   H37  0.793897  0.274167  0.471457  0.107843
    H   H38  0.808127  0.180119  0.407315  0.127957
