# Generated by REPEAT Assigner based on pymatgen
data_DB0-m2_o12_o12_f0_pcu.sym.62
_audit_creation_date              2022-05-24
_audit_creation_method            REPEAT_Assigner
_cell_length_a                    15.167413
_cell_length_b                    16.254548
_cell_length_c                    9.782958
_cell_angle_alpha                 90.000000
_cell_angle_beta                  61.312088
_cell_angle_gamma                 90.000000
_cell_volume                      2115.820111
_symmetry_space_group_name_H-M    P1
_symmetry_Int_Tables_number       1
loop_
    _symmetry_equiv_pos_site_id
    _symmetry_equiv_pos_as_xyz
    1  x,y,z
loop_
    _atom_site_type_symbol
    _atom_site_label
    _atom_site_fract_x
    _atom_site_fract_y
    _atom_site_fract_z
    _atom_type_partial_charge
    O   O1   0.417873  0.095426  0.418497  -0.660800
    O   O2   0.581958  0.922922  0.580675  -0.484410
    O   O3   0.582010  0.096441  0.581198  -0.650314
    O   O4   0.420715  0.923211  0.416106  -0.530621
    O   O5   0.917859  0.595266  0.419011  -0.653495
    O   O6   0.081022  0.423073  0.582150  -0.522630
    O   O7   0.081267  0.596285  0.582021  -0.658115
    O   O8   0.918837  0.422236  0.419793  -0.511007
    O   O9   0.379769  0.092253  0.675660  -0.607409
    O   O10  0.620822  0.926704  0.323225  -0.544491
    O   O11  0.622238  0.092927  0.322678  -0.633992
    O   O12  0.379903  0.927372  0.674934  -0.550567
    O   O13  0.879046  0.592503  0.677462  -0.623261
    O   O14  0.120912  0.426905  0.323848  -0.552377
    O   O15  0.120451  0.592225  0.323428  -0.612006
    O   O16  0.878482  0.427376  0.678044  -0.549755
    C   C1   0.366672  0.121478  0.561565  0.773626
    C   C2   0.633356  0.897036  0.437424  0.601113
    C   C3   0.634273  0.122513  0.436981  0.777898
    C   C4   0.368375  0.897932  0.560392  0.637673
    C   C5   0.866062  0.620937  0.562894  0.781490
    C   C6   0.132486  0.396908  0.438192  0.628445
    C   C7   0.133221  0.621519  0.437429  0.778038
    C   C8   0.866772  0.397089  0.563909  0.623325
    C   C9   0.516318  0.990520  0.913985  0.097165
    C   C10  0.487313  0.991119  0.082248  0.181301
    C   C11  0.014488  0.491043  0.916312  0.140740
    C   C12  0.984930  0.489861  0.084742  0.104064
    Cu  Cu1  0.521494  0.010202  0.349569  0.988365
    Cu  Cu2  0.480778  0.009605  0.647919  0.860404
    Cu  Cu3  0.019609  0.509289  0.351752  0.900998
    Cu  Cu4  0.980131  0.509584  0.649592  0.938136
    N   N1   0.450678  0.009570  0.870985  -0.196249
    N   N2   0.552164  0.011324  0.126399  -0.338040
    N   N3   0.949232  0.510212  0.872856  -0.256444
    N   N4   0.049881  0.508724  0.128701  -0.224201
    H   H1   0.623101  0.027789  0.042687  0.215429
    H   H2   0.384857  0.035217  0.955906  0.169100
    H   H3   0.116752  0.533039  0.044193  0.177480
    H   H4   0.881887  0.531357  0.959139  0.185627
    H   H5   0.665950  0.208427  0.637040  0.109077
    H   H6   0.338241  0.807821  0.361519  0.150276
    H   H7   0.332904  0.208603  0.361805  0.109569
    H   H8   0.662628  0.807017  0.638072  0.140870
    H   H9   0.166851  0.707708  0.636109  0.108261
    H   H10  0.838336  0.309005  0.364312  0.136990
    H   H11  0.833495  0.707073  0.361154  0.110920
    H   H12  0.162309  0.307855  0.638177  0.147610
    C   C13  0.294980  0.831402  0.596120  -0.286671
    C   C14  0.708943  0.187246  0.402123  -0.336360
    C   C15  0.707118  0.831088  0.402824  -0.276330
    C   C16  0.292186  0.187009  0.596869  -0.340390
    C   C17  0.792928  0.331557  0.599672  -0.287776
    C   C18  0.208267  0.686795  0.401223  -0.349423
    C   C19  0.205520  0.330655  0.403417  -0.280740
    C   C20  0.792319  0.686342  0.596398  -0.338371
    C   C21  0.288771  0.791517  0.481365  -0.063779
    C   C22  0.715343  0.225547  0.517590  0.007350
    C   C23  0.712568  0.791165  0.517714  -0.050361
    C   C24  0.284685  0.225180  0.482184  0.016886
    C   C25  0.787761  0.292334  0.484063  -0.042282
    C   C26  0.215798  0.724771  0.516021  0.022126
    C   C27  0.211669  0.291508  0.517909  -0.056211
    C   C28  0.785076  0.724254  0.481697  0.010136
    H   H13  0.757194  0.204797  0.282055  0.159313
    H   H14  0.247519  0.814060  0.716873  0.152602
    H   H15  0.244563  0.205950  0.716876  0.155533
    H   H16  0.756335  0.813728  0.282900  0.147391
    H   H17  0.255903  0.704937  0.280995  0.161942
    H   H18  0.744341  0.313914  0.720094  0.152664
    H   H19  0.745643  0.705216  0.716166  0.155369
    H   H20  0.254028  0.312431  0.282994  0.148979
    N   N5   0.387328  0.972670  0.194993  -0.221792
    C   C29  0.336374  0.917525  0.156866  0.718468
    O   O17  0.381080  0.870456  0.048008  -0.522848
    C   C30  0.224102  0.912388  0.250366  -0.642361
    H   H21  0.346520  0.014786  0.280395  0.214193
    H   H22  0.194095  0.959107  0.344822  0.133697
    H   H23  0.201260  0.850467  0.302936  0.189514
    H   H24  0.191530  0.923551  0.172211  0.178387
    N   N6   0.616415  0.971170  0.801288  -0.272731
    C   C31  0.667186  0.917015  0.842428  0.764253
    O   O18  0.622277  0.872062  0.955068  -0.521777
    C   C32  0.778928  0.911111  0.749001  -0.677138
    H   H25  0.655789  0.010935  0.710435  0.228487
    H   H26  0.807128  0.955364  0.650877  0.141399
    H   H27  0.800884  0.847991  0.702300  0.197546
    H   H28  0.812749  0.926020  0.824326  0.186697
    N   N7   0.884898  0.469579  0.197229  -0.222887
    C   C33  0.834516  0.415834  0.154931  0.744982
    O   O19  0.879777  0.371455  0.041970  -0.524517
    C   C34  0.723042  0.408950  0.247764  -0.667394
    H   H29  0.844195  0.509474  0.287383  0.211791
    H   H30  0.692193  0.451985  0.348290  0.141530
    H   H31  0.703226  0.345052  0.290862  0.192863
    H   H32  0.690183  0.423262  0.170858  0.184034
    N   N8   0.115239  0.474285  0.803150  -0.245130
    C   C35  0.166064  0.419463  0.842195  0.746184
    O   O20  0.121083  0.373083  0.952167  -0.523533
    C   C36  0.277343  0.413777  0.748241  -0.661451
    H   H33  0.154796  0.515874  0.715707  0.220090
    H   H34  0.305515  0.456586  0.647782  0.139425
    H   H35  0.298523  0.350038  0.704498  0.192050
    H   H36  0.311566  0.430094  0.822556  0.182570
