data_DB0-m2_o11_o23_f0_pcu.sym.20_repeat
_audit_creation_date              2024-02-23
_audit_creation_method            'Materials Studio'
_symmetry_space_group_name_H-M    'P1'
_symmetry_Int_Tables_number       1
_symmetry_cell_setting            triclinic
loop_
_symmetry_equiv_pos_as_xyz
  x,y,z
_cell_length_a                    15.8578
_cell_length_b                    11.0294
_cell_length_c                    9.5357
_cell_angle_alpha                 90.0205
_cell_angle_beta                  89.9973
_cell_angle_gamma                 89.9983
loop_
_atom_site_label
_atom_site_type_symbol
_atom_site_fract_x
_atom_site_fract_y
_atom_site_fract_z
_atom_site_U_iso_or_equiv
_atom_site_adp_type
_atom_site_occupancy
O1     O     0.49760   0.32595   0.62407   0.00000  Uiso   1.00
O2     O     0.49321   0.32502   0.38232   0.00000  Uiso   1.00
C1     C     0.49551   0.26896   0.50354   0.00000  Uiso   1.00
O3     O     0.37139   0.49648   0.61927   0.00000  Uiso   1.00
O4     O     0.37342   0.50488   0.37734   0.00000  Uiso   1.00
C2     C     0.33322   0.50030   0.49745   0.00000  Uiso   1.00
Cu1    Cu    0.49373   0.50222   0.64157   0.00000  Uiso   1.00
Cu2    Cu    0.49617   0.50111   0.36096   0.00000  Uiso   1.00
O5     O     0.49583   0.67808   0.61958   0.00000  Uiso   1.00
O6     O     0.49261   0.67754   0.37877   0.00000  Uiso   1.00
O7     O     0.61645   0.49900   0.62463   0.00000  Uiso   1.00
O8     O     0.61846   0.50575   0.38399   0.00000  Uiso   1.00
C3     C     0.49394   0.73446   0.49934   0.00000  Uiso   1.00
C4     C     0.65677   0.50255   0.50514   0.00000  Uiso   1.00
C5     C     0.04388   0.42690   0.62375   0.00000  Uiso   1.00
C6     C     0.04210   0.44015   0.36438   0.00000  Uiso   1.00
C7     C     0.94658   0.42884   0.37178   0.00000  Uiso   1.00
H1     H     0.92003   0.34888   0.65250   0.00000  Uiso   1.00
H2     H     0.06128   0.33012   0.61148   0.00000  Uiso   1.00
H3     H     0.05933   0.49773   0.27347   0.00000  Uiso   1.00
H4     H     0.07231   0.35029   0.35111   0.00000  Uiso   1.00
H5     H     0.91927   0.47334   0.27796   0.00000  Uiso   1.00
C8     C     0.74720   0.50136   0.50633   0.00000  Uiso   1.00
C9     C     0.07462   0.49836   0.49790   0.00000  Uiso   1.00
C10    C     0.94900   0.43905   0.63479   0.00000  Uiso   1.00
C11    C     0.91542   0.49696   0.50158   0.00000  Uiso   1.00
C12    C     0.94718   0.62659   0.49447   0.00000  Uiso   1.00
C13    C     0.04228   0.62731   0.50754   0.00000  Uiso   1.00
C14    C     0.82315   0.49963   0.50508   0.00000  Uiso   1.00
C15    C     0.16682   0.49911   0.49630   0.00000  Uiso   1.00
C16    C     0.24278   0.49967   0.49597   0.00000  Uiso   1.00
H6     H     0.06053   0.66692   0.61005   0.00000  Uiso   1.00
H7     H     0.06977   0.68291   0.42210   0.00000  Uiso   1.00
H8     H     0.91937   0.68061   0.58100   0.00000  Uiso   1.00
H9     H     0.07346   0.46255   0.72074   0.00000  Uiso   1.00
H10    H     0.93341   0.49784   0.72554   0.00000  Uiso   1.00
H11    H     0.92862   0.66783   0.39302   0.00000  Uiso   1.00
C17    C     0.49350   0.93525   0.38817   0.00000  Uiso   1.00
C18    C     0.49303   0.86704   0.50413   0.00000  Uiso   1.00
H12    H     0.49406   0.89132   0.28652   0.00000  Uiso   1.00
H13    H     0.49173   0.90628   0.60767   0.00000  Uiso   1.00
C19    C     0.49285   0.06953   0.38992   0.00000  Uiso   1.00
C20    C     0.49621   0.13629   0.50725   0.00000  Uiso   1.00
H14    H     0.48997   0.11476   0.28920   0.00000  Uiso   1.00
H15    H     0.50003   0.09603   0.61009   0.00000  Uiso   1.00
C21    C     0.45191   0.42479   0.92457   0.00000  Uiso   1.00
N1     N     0.49202   0.50383   0.85130   0.00000  Uiso   1.00
H16    H     0.42019   0.35034   0.87243   0.00000  Uiso   1.00
H17    H     0.50983   0.58244   0.90074   0.00000  Uiso   1.00
C22    C     0.44563   0.43450   0.07930   0.00000  Uiso   1.00
N2     N     0.49772   0.49873   0.15123   0.00000  Uiso   1.00
H18    H     0.39648   0.38425   0.13268   0.00000  Uiso   1.00
H19    H     0.55100   0.52910   0.10119   0.00000  Uiso   1.00
C23    C     0.91987   0.29534   0.37070   0.00000  Uiso   1.00
C24    C     0.92351   0.24462   0.22266   0.00000  Uiso   1.00
H20    H     0.87795   0.29332   0.15474   0.00000  Uiso   1.00
H21    H     0.98783   0.25373   0.17847   0.00000  Uiso   1.00
H22    H     0.90624   0.14721   0.22523   0.00000  Uiso   1.00
H23    H     0.96128   0.24038   0.43944   0.00000  Uiso   1.00
H24    H     0.85416   0.28482   0.40804   0.00000  Uiso   1.00
