# Generated by REPEAT Assigner based on pymatgen
data_DB0-m3_o96_o159_f0_fsc.sym.67
_audit_creation_date              2022-05-24
_audit_creation_method            REPEAT_Assigner
_cell_length_a                    13.303820
_cell_length_b                    13.340049
_cell_length_c                    16.241840
_cell_angle_alpha                 94.735559
_cell_angle_beta                  90.046144
_cell_angle_gamma                 90.612831
_cell_volume                      2872.489759
_symmetry_space_group_name_H-M    P1
_symmetry_Int_Tables_number       1
loop_
    _symmetry_equiv_pos_site_id
    _symmetry_equiv_pos_as_xyz
    1  x,y,z
loop_
    _atom_site_type_symbol
    _atom_site_label
    _atom_site_fract_x
    _atom_site_fract_y
    _atom_site_fract_z
    _atom_type_partial_charge
    C   C1   0.819371  0.032703  0.213372  0.166368
    C   C2   0.757850  0.073214  0.158385  -0.005737
    C   C3   0.808685  0.073198  0.084812  0.295137
    N   N1   0.902302  0.037139  0.093982  -0.461793
    C   C4   0.909444  0.013690  0.173503  0.280516
    C   C5   0.766755  0.097410  0.014166  -0.351582
    C   C6   0.808983  0.074830  0.931174  0.075596
    C   C7   0.752819  0.061257  0.859558  0.092611
    C   C8   0.816975  0.036935  0.795926  0.162074
    C   C9   0.912817  0.037264  0.830530  0.061455
    N   N2   0.906768  0.061823  0.912903  -0.117391
    C   C10  0.007853  0.019996  0.785698  -0.379857
    C   C11  0.091316  0.988265  0.821327  0.311027
    C   C12  0.181377  0.969241  0.781434  0.061402
    C   C13  0.242967  0.928882  0.836456  0.022280
    C   C14  0.192177  0.928978  0.910060  0.317352
    N   N3   0.098526  0.964947  0.900879  -0.478382
    C   C15  0.234150  0.904869  0.980728  -0.379520
    C   C16  0.191861  0.927316  0.063726  0.124229
    C   C17  0.247960  0.940760  0.135391  0.061777
    C   C18  0.183742  0.964951  0.199010  0.137404
    C   C19  0.087935  0.964669  0.164350  0.093809
    N   N4   0.094058  0.940264  0.081960  -0.154716
    C   C20  0.992861  0.981862  0.209137  -0.386096
    H   H1   0.690349  0.123610  0.016204  0.156501
    H   H2   0.008092  0.029059  0.720089  0.182176
    H   H3   0.310588  0.878760  0.978698  0.159448
    H   H4   0.992561  0.972694  0.274729  0.169942
    H   H5   0.966045  0.075904  0.954151  0.252132
    H   H6   0.034810  0.926243  0.040675  0.258307
    C   C21  0.349382  0.932005  0.147593  -0.219030
    C   C22  0.385419  0.947376  0.227281  -0.087618
    C   C23  0.322356  0.975110  0.293237  -0.035487
    C   C24  0.219094  0.984273  0.279571  -0.288132
    C   C25  0.785863  0.011784  0.290509  -0.489467
    C   C26  0.688010  0.037922  0.310494  0.107373
    C   C27  0.628498  0.086113  0.256010  -0.117475
    C   C28  0.661911  0.102162  0.178349  -0.207506
    C   C29  0.651382  0.069994  0.847417  -0.223265
    C   C30  0.615262  0.054489  0.767766  -0.107183
    C   C31  0.678265  0.026637  0.701801  -0.005648
    C   C32  0.781538  0.017476  0.715408  -0.369510
    C   C33  0.214809  0.990013  0.704232  -0.326528
    C   C34  0.312660  0.963875  0.684218  0.046585
    C   C35  0.372236  0.915833  0.738757  -0.074418
    C   C36  0.338901  0.899939  0.816473  -0.236456
    H   H7   0.400368  0.911788  0.097419  0.137035
    H   H8   0.168498  0.003482  0.330321  0.142795
    H   H9   0.832475  0.975540  0.333486  0.214641
    H   H10  0.552666  0.107434  0.272936  0.126924
    H   H11  0.612572  0.135950  0.135973  0.119911
    H   H12  0.600448  0.090310  0.897606  0.137689
    H   H13  0.832076  0.998169  0.664635  0.188181
    H   H14  0.168132  0.026139  0.661229  0.147961
    H   H15  0.448069  0.894523  0.721827  0.109340
    H   H16  0.388293  0.866266  0.858876  0.127051
    H   H17  0.464671  0.937952  0.238416  0.127012
    H   H18  0.536003  0.063925  0.756668  0.138902
    O   O1   0.387910  0.076715  0.411612  -0.698469
    O   O2   0.414663  0.905844  0.399059  -0.736561
    C   C37  0.370232  0.986046  0.375467  0.830831
    O   O3   0.621603  0.926892  0.405213  -0.664403
    O   O4   0.595853  0.097568  0.424240  -0.708783
    C   C38  0.641503  0.019821  0.388513  0.735129
    O   O5   0.612365  0.925192  0.583549  -0.625864
    O   O6   0.585853  0.095570  0.595953  -0.713759
    C   C39  0.630380  0.015658  0.619585  0.775727
    O   O7   0.378904  0.075019  0.589463  -0.696987
    O   O8   0.404837  0.903895  0.570518  -0.719486
    C   C40  0.359165  0.981899  0.606166  0.753895
    Zn  Zn1  0.517544  0.890073  0.488111  1.041664
    Zn  Zn2  0.483278  0.111525  0.506726  1.088219
    C   C41  0.563406  0.290029  0.522680  -0.103967
    N   N5   0.473321  0.243043  0.515839  0.056504
    C   C42  0.390443  0.295916  0.502769  -0.127742
    C   C43  0.397201  0.398566  0.496494  -0.114908
    C   C44  0.490247  0.448771  0.501444  -0.050187
    C   C45  0.574063  0.392188  0.515482  0.277308
    C   C46  0.422002  0.613494  0.478443  -0.162313
    C   C47  0.502395  0.552303  0.492009  0.092813
    C   C48  0.597513  0.596968  0.496315  0.164073
    C   C49  0.679590  0.537834  0.510378  -0.006126
    C   C50  0.668587  0.437341  0.520199  -0.195105
    C   C51  0.436131  0.714598  0.473249  -0.138402
    N   N6   0.527969  0.758356  0.479038  0.159395
    C   C52  0.609699  0.700533  0.488369  -0.157596
    H   H19  0.318524  0.257909  0.494669  0.161845
    H   H20  0.755174  0.566771  0.515523  -0.008048
    H   H21  0.327485  0.435079  0.485382  0.135013
    H   H22  0.345433  0.587328  0.473991  0.134364
    H   H23  0.628661  0.245193  0.529575  0.109586
    H   H24  0.369732  0.758916  0.467200  0.176036
    I   I1   0.755632  0.768116  0.489944  0.075817
    I   I2   0.803915  0.361715  0.542852  0.050342
