data_DB0-m3_o11_o29_f0_pcu.sym.16_repeat
_audit_creation_date              2024-02-23
_audit_creation_method            'Materials Studio'
_symmetry_space_group_name_H-M    'P1'
_symmetry_Int_Tables_number       1
_symmetry_cell_setting            triclinic
loop_
_symmetry_equiv_pos_as_xyz
  x,y,z
_cell_length_a                    27.6514
_cell_length_b                    11.1193
_cell_length_c                    9.9800
_cell_angle_alpha                 89.9974
_cell_angle_beta                  89.9930
_cell_angle_gamma                 89.9936
loop_
_atom_site_label
_atom_site_type_symbol
_atom_site_fract_x
_atom_site_fract_y
_atom_site_fract_z
_atom_site_U_iso_or_equiv
_atom_site_adp_type
_atom_site_occupancy
O1     O     0.49955   0.32783   0.63029   0.00000  Uiso   1.00
O2     O     0.49752   0.32421   0.39983   0.00000  Uiso   1.00
C1     C     0.49790   0.26966   0.51571   0.00000  Uiso   1.00
O3     O     0.42893   0.51171   0.62089   0.00000  Uiso   1.00
O4     O     0.42750   0.50639   0.38937   0.00000  Uiso   1.00
C2     C     0.40560   0.51036   0.50611   0.00000  Uiso   1.00
Zn1    Zn    0.50126   0.50896   0.65348   0.00000  Uiso   1.00
Zn2    Zn    0.49924   0.50034   0.34874   0.00000  Uiso   1.00
O5     O     0.50313   0.68506   0.60319   0.00000  Uiso   1.00
O6     O     0.50074   0.68174   0.37148   0.00000  Uiso   1.00
O7     O     0.57295   0.50231   0.61238   0.00000  Uiso   1.00
O8     O     0.57154   0.49790   0.38172   0.00000  Uiso   1.00
C3     C     0.50238   0.73936   0.48718   0.00000  Uiso   1.00
C4     C     0.59492   0.49874   0.49606   0.00000  Uiso   1.00
C5     C     0.17647   0.42679   0.57715   0.00000  Uiso   1.00
O9     O     0.20130   0.34037   0.64144   0.00000  Uiso   1.00
N1     N     0.20057   0.51365   0.51077   0.00000  Uiso   1.00
C6     C     0.17614   0.59909   0.44302   0.00000  Uiso   1.00
C7     C     0.27706   0.50640   0.39035   0.00000  Uiso   1.00
C8     C     0.32689   0.50574   0.38910   0.00000  Uiso   1.00
C9     C     0.32765   0.52005   0.62783   0.00000  Uiso   1.00
C10    C     0.27775   0.52087   0.62877   0.00000  Uiso   1.00
C11    C     0.25223   0.51391   0.51005   0.00000  Uiso   1.00
C12    C     0.10077   0.51013   0.50692   0.00000  Uiso   1.00
C13    C     0.12642   0.42415   0.57611   0.00000  Uiso   1.00
C14    C     0.10196   0.33586   0.64440   0.00000  Uiso   1.00
C15    C     0.12610   0.59823   0.44023   0.00000  Uiso   1.00
C16    C     0.35254   0.51237   0.50788   0.00000  Uiso   1.00
H1     H     0.34673   0.52570   0.72209   0.00000  Uiso   1.00
H2     H     0.25876   0.52803   0.72313   0.00000  Uiso   1.00
H3     H     0.12099   0.26857   0.70200   0.00000  Uiso   1.00
C17    C     0.64797   0.49666   0.49423   0.00000  Uiso   1.00
C18    C     0.97518   0.40989   0.55937   0.00000  Uiso   1.00
C19    C     0.97461   0.59857   0.44010   0.00000  Uiso   1.00
C20    C     0.94996   0.50302   0.49827   0.00000  Uiso   1.00
C21    C     0.94899   0.31241   0.60897   0.00000  Uiso   1.00
C22    C     0.89940   0.31063   0.60409   0.00000  Uiso   1.00
C23    C     0.87446   0.40532   0.54910   0.00000  Uiso   1.00
C24    C     0.89961   0.50064   0.49547   0.00000  Uiso   1.00
C25    C     0.87380   0.59368   0.43928   0.00000  Uiso   1.00
C26    C     0.82375   0.59071   0.43813   0.00000  Uiso   1.00
N2     N     0.79986   0.49660   0.49140   0.00000  Uiso   1.00
C27    C     0.82441   0.40426   0.54623   0.00000  Uiso   1.00
C28    C     0.72343   0.49262   0.61197   0.00000  Uiso   1.00
C29    C     0.67359   0.49338   0.61324   0.00000  Uiso   1.00
C30    C     0.67287   0.49904   0.37402   0.00000  Uiso   1.00
C31    C     0.72277   0.49893   0.37309   0.00000  Uiso   1.00
C32    C     0.74824   0.49573   0.49204   0.00000  Uiso   1.00
O10    O     0.80004   0.30985   0.59631   0.00000  Uiso   1.00
C33    C     0.02570   0.41559   0.56834   0.00000  Uiso   1.00
C34    C     0.05043   0.50787   0.50420   0.00000  Uiso   1.00
C35    C     0.02528   0.59781   0.43718   0.00000  Uiso   1.00
C36    C     0.05238   0.33163   0.64119   0.00000  Uiso   1.00
H4     H     0.65514   0.49164   0.70867   0.00000  Uiso   1.00
H5     H     0.74298   0.49138   0.70577   0.00000  Uiso   1.00
H6     H     0.88075   0.23326   0.64431   0.00000  Uiso   1.00
H7     H     0.96538   0.23291   0.64984   0.00000  Uiso   1.00
H8     H     0.03638   0.26192   0.70106   0.00000  Uiso   1.00
O11    O     0.20062   0.68692   0.38007   0.00000  Uiso   1.00
C37    C     0.10135   0.68459   0.36972   0.00000  Uiso   1.00
H9     H     0.34530   0.49910   0.29388   0.00000  Uiso   1.00
H10    H     0.25754   0.49934   0.29682   0.00000  Uiso   1.00
H11    H     0.12018   0.75356   0.31414   0.00000  Uiso   1.00
C38    C     0.94767   0.69337   0.38717   0.00000  Uiso   1.00
C39    C     0.89806   0.69051   0.38665   0.00000  Uiso   1.00
O12    O     0.79870   0.68343   0.38671   0.00000  Uiso   1.00
C40    C     0.05173   0.68444   0.36766   0.00000  Uiso   1.00
H12    H     0.96340   0.77431   0.34783   0.00000  Uiso   1.00
H13    H     0.65379   0.50160   0.27958   0.00000  Uiso   1.00
H14    H     0.87884   0.76612   0.34438   0.00000  Uiso   1.00
H15    H     0.74183   0.50039   0.27850   0.00000  Uiso   1.00
H16    H     0.03561   0.75290   0.30629   0.00000  Uiso   1.00
C41    C     0.49773   0.94280   0.38924   0.00000  Uiso   1.00
C42    C     0.50405   0.87078   0.49437   0.00000  Uiso   1.00
H17    H     0.49254   0.90362   0.29086   0.00000  Uiso   1.00
H18    H     0.51032   0.90722   0.59304   0.00000  Uiso   1.00
C43    C     0.49836   0.07565   0.40028   0.00000  Uiso   1.00
C44    C     0.49702   0.13757   0.51623   0.00000  Uiso   1.00
H19    H     0.49935   0.12418   0.30646   0.00000  Uiso   1.00
H20    H     0.49481   0.09385   0.61267   0.00000  Uiso   1.00
C45    C     0.46646   0.53733   0.92782   0.00000  Uiso   1.00
N3     N     0.50384   0.52307   0.85320   0.00000  Uiso   1.00
H21    H     0.43091   0.54351   0.88282   0.00000  Uiso   1.00
H22    H     0.53639   0.53828   0.90012   0.00000  Uiso   1.00
C46    C     0.47159   0.55502   0.07417   0.00000  Uiso   1.00
N4     N     0.49835   0.48739   0.14866   0.00000  Uiso   1.00
H23    H     0.45139   0.62752   0.12042   0.00000  Uiso   1.00
C47    C     0.51038   0.36779   0.10076   0.00000  Uiso   1.00
C48    C     0.46523   0.29057   0.08688   0.00000  Uiso   1.00
H24    H     0.44179   0.30233   0.17604   0.00000  Uiso   1.00
H25    H     0.44458   0.31384   0.99545   0.00000  Uiso   1.00
H26    H     0.47615   0.19489   0.07904   0.00000  Uiso   1.00
H27    H     0.53164   0.36737   0.00740   0.00000  Uiso   1.00
H28    H     0.53439   0.32443   0.17514   0.00000  Uiso   1.00
