# Generated by REPEAT Assigner based on pymatgen
data_DB0-m29_o89_o51_f0_pts.sym.50
_audit_creation_date              2022-05-24
_audit_creation_method            REPEAT_Assigner
_cell_length_a                    14.310870
_cell_length_b                    9.404188
_cell_length_c                    17.948658
_cell_angle_alpha                 89.205051
_cell_angle_beta                  90.973151
_cell_angle_gamma                 109.813094
_cell_volume                      2272.162299
_symmetry_space_group_name_H-M    P1
_symmetry_Int_Tables_number       1
loop_
    _symmetry_equiv_pos_site_id
    _symmetry_equiv_pos_as_xyz
    1  x,y,z
loop_
    _atom_site_type_symbol
    _atom_site_label
    _atom_site_fract_x
    _atom_site_fract_y
    _atom_site_fract_z
    _atom_type_partial_charge
    C   C1   0.848677  0.030705  0.086951  -0.259023
    C   C2   0.760227  0.028098  0.053883  0.108288
    C   C3   0.750168  0.019988  0.976759  -0.154236
    C   C4   0.828927  0.014544  0.933386  0.079019
    C   C5   0.918115  0.017533  0.968018  -0.008782
    C   C6   0.927064  0.022151  0.045042  0.210196
    C   C7   0.998819  0.015064  0.926793  -0.140890
    C   C8   0.085013  0.012790  0.961123  0.051140
    C   C9   0.093443  0.012847  0.037487  0.252914
    C   C10  0.014731  0.019828  0.079882  -0.250084
    C   C11  0.163087  0.010910  0.917642  -0.155807
    C   C12  0.251578  0.011500  0.949610  0.049503
    C   C13  0.260473  0.009874  0.026691  0.067396
    C   C14  0.180944  0.006815  0.070080  -0.295470
    H   H1   0.855185  0.040364  0.146614  0.158022
    H   H2   0.998032  0.016458  0.866876  0.184980
    H   H3   0.154647  0.010403  0.857719  0.133198
    H   H4   0.191532  0.005783  0.129669  0.174379
    N   N1   0.971973  0.917076  0.207830  -0.220470
    C   C15  0.001811  0.963527  0.277549  -0.095858
    C   C16  0.074584  0.104473  0.275359  -0.177037
    C   C17  0.089400  0.144907  0.201162  -0.196802
    C   C18  0.025029  0.026814  0.161239  0.278169
    H   H5   0.918090  0.814962  0.192789  0.311083
    H   H6   0.972394  0.898599  0.327223  0.150168
    H   H7   0.112588  0.170355  0.322587  0.157006
    H   H8   0.141110  0.248547  0.178805  0.142214
    O   O1   0.596850  0.047265  0.076964  -0.466610
    C   C19  0.678715  0.030037  0.103076  0.522097
    O   O2   0.518915  0.747705  0.148650  -0.458780
    O   O3   0.687492  0.012790  0.175244  -0.537942
    O   O4   0.496058  0.885939  0.244653  -0.479189
    C   C20  0.508516  0.762472  0.220329  0.498283
    Fe  Fe1  0.503333  0.025725  0.159722  1.445353
    O   O5   0.365604  0.939553  0.116535  -0.623824
    O   O6   0.432134  0.153645  0.048200  -0.485089
    C   C21  0.356270  0.032095  0.063710  0.617724
    O   O7   0.550534  0.236134  0.200498  -0.608050
    O   O8   0.443773  0.117960  0.292283  -0.543822
    C   C22  0.503780  0.242422  0.261983  0.576042
    O   O9   0.463935  0.802338  0.803580  -0.597972
    O   O10  0.570797  0.922437  0.712144  -0.485134
    C   C23  0.511470  0.797315  0.742340  0.562788
    O   O11  0.644559  0.099195  0.891158  -0.603141
    O   O12  0.578620  0.877779  0.954068  -0.487675
    C   C24  0.653864  0.002014  0.941564  0.700914
    O   O13  0.325701  0.036944  0.828628  -0.507951
    O   O14  0.517698  0.153096  0.760532  -0.518312
    C   C25  0.506770  0.277678  0.784766  0.560387
    O   O15  0.412046  0.987314  0.926288  -0.458008
    C   C26  0.332970  0.012996  0.900344  0.507169
    O   O16  0.496442  0.292990  0.856416  -0.468579
    Fe  Fe2  0.508447  0.012075  0.845240  1.400717
    C   C27  0.506612  0.399647  0.732853  0.073599
    C   C28  0.514303  0.383993  0.656921  -0.238102
    H   H9   0.517600  0.279523  0.634817  0.158081
    C   C29  0.516697  0.500975  0.608525  0.260238
    C   C30  0.516983  0.637081  0.636962  -0.278239
    H   H10  0.526113  0.734032  0.601347  0.143478
    C   C31  0.506836  0.651700  0.712296  0.117520
    C   C32  0.499669  0.532397  0.760034  -0.188719
    C   C33  0.523078  0.479050  0.528014  -0.197354
    C   C34  0.493391  0.560298  0.476745  -0.179703
    C   C35  0.501950  0.655832  0.347999  -0.279804
    H   H11  0.498464  0.760063  0.370266  0.166794
    C   C36  0.509448  0.640555  0.272031  0.123302
    C   C37  0.516456  0.507976  0.244594  -0.204028
    C   C38  0.509534  0.388488  0.292170  0.116946
    C   C39  0.499727  0.402893  0.367581  -0.259483
    H   H12  0.490708  0.305837  0.403101  0.164384
    C   C40  0.499873  0.538757  0.396219  0.245917
    H   H13  0.494296  0.546868  0.819227  0.160598
    H   H14  0.521390  0.493616  0.185346  0.157251
    H   H15  0.552308  0.392514  0.511352  0.133297
    H   H16  0.464077  0.646718  0.493429  0.146564
    C   C41  0.814844  0.994321  0.850138  -0.055062
    C   C42  0.859541  0.145436  0.810215  0.014504
    C   C43  0.859464  0.120840  0.726820  0.271942
    C   C44  0.900977  0.271650  0.686730  -0.250618
    H   H17  0.736130  0.943858  0.832833  0.021604
    H   H18  0.847802  0.911055  0.830381  0.003085
    H   H19  0.936608  0.203656  0.830120  -0.022428
    H   H20  0.814814  0.218115  0.822107  0.028568
    H   H21  0.782435  0.061932  0.706781  -0.041419
    H   H22  0.906111  0.051149  0.714457  -0.065643
    H   H23  0.854231  0.341753  0.697928  0.044262
    H   H24  0.901045  0.252288  0.625922  0.051262
    H   H25  0.978145  0.331413  0.706252  0.042787
