# Generated by REPEAT Assigner based on pymatgen
data_DB0-m2_o25_frl
_audit_creation_date              2022-05-24
_audit_creation_method            REPEAT_Assigner
_cell_length_a                    31.952200
_cell_length_b                    24.024796
_cell_length_c                    41.848992
_cell_angle_alpha                 90.535447
_cell_angle_beta                  90.764451
_cell_angle_gamma                 48.416391
_cell_volume                      24027.099698
_symmetry_space_group_name_H-M    P1
_symmetry_Int_Tables_number       1
loop_
    _symmetry_equiv_pos_site_id
    _symmetry_equiv_pos_as_xyz
    1  x,y,z
loop_
    _atom_site_type_symbol
    _atom_site_label
    _atom_site_fract_x
    _atom_site_fract_y
    _atom_site_fract_z
    _atom_type_partial_charge
    O   O1    0.961124  0.576789  0.462135  -0.643202
    O   O2    0.020821  0.456453  0.444540  -0.639213
    C   C1    0.984982  0.528198  0.438692  0.829187
    O   O3    0.040213  0.541929  0.506232  -0.639649
    O   O4    0.099930  0.421652  0.488612  -0.642607
    C   C2    0.090395  0.481807  0.497422  0.805878
    Cu  Cu1   0.974620  0.551089  0.507529  1.078856
    Cu  Cu2   0.043377  0.412504  0.487228  1.065983
    O   O5    0.997271  0.506943  0.550228  -0.643899
    O   O6    0.056943  0.386658  0.532576  -0.624523
    O   O7    0.917995  0.542173  0.506085  -0.627135
    O   O8    0.977623  0.421896  0.488466  -0.638441
    C   C3    0.033130  0.435155  0.556041  0.810145
    C   C4    0.927427  0.482133  0.497231  0.772081
    O   O9    0.477075  0.544115  0.444502  -0.637858
    O   O10   0.537473  0.423767  0.462013  -0.641880
    C   C5    0.512831  0.472376  0.438604  0.827051
    O   O11   0.521467  0.578883  0.488601  -0.637748
    O   O12   0.581797  0.458589  0.506130  -0.624511
    C   C6    0.571974  0.518716  0.497366  0.770097
    Cu  Cu3   0.455779  0.588039  0.487220  1.064114
    Cu  Cu4   0.525347  0.449429  0.507425  1.076573
    O   O13   0.443585  0.613838  0.532587  -0.621889
    O   O14   0.503960  0.493540  0.550155  -0.641975
    O   O15   0.399400  0.578646  0.488457  -0.641579
    O   O16   0.459819  0.458352  0.505987  -0.639354
    C   C7    0.468180  0.565324  0.556019  0.805910
    C   C8    0.409325  0.518405  0.497177  0.804445
    O   O17   0.250132  0.923886  0.844011  -0.641197
    O   O18   0.321486  0.924151  0.845387  -0.638575
    C   C9    0.298340  0.898625  0.855664  0.814630
    O   O19   0.251190  0.923821  0.778185  -0.641041
    O   O20   0.322542  0.924082  0.779561  -0.639003
    C   C10   0.299750  0.898534  0.767904  0.813911
    Cu  Cu5   0.206925  0.000388  0.810999  1.067288
    Cu  Cu6   0.289155  0.000693  0.812584  1.069359
    O   O21   0.174602  0.076923  0.778192  -0.638010
    O   O22   0.245955  0.077189  0.779569  -0.641741
    O   O23   0.173552  0.076979  0.844030  -0.639960
    O   O24   0.244906  0.077241  0.845406  -0.643202
    C   C11   0.197748  0.102447  0.767915  0.812788
    C   C12   0.196349  0.102520  0.855689  0.819577
    O   O25   0.992277  0.507552  0.073432  -0.642762
    O   O26   0.052646  0.387251  0.090998  -0.622954
    C   C13   0.028053  0.435769  0.067567  0.802933
    O   O27   0.036427  0.542721  0.117611  -0.638128
    O   O28   0.096839  0.422426  0.135141  -0.643466
    C   C14   0.086919  0.482666  0.126424  0.803455
    Cu  Cu7   0.970891  0.551664  0.116162  1.076834
    Cu  Cu8   0.040442  0.413063  0.136363  1.068235
    O   O29   0.958756  0.577323  0.161575  -0.641553
    O   O30   0.019151  0.456971  0.179084  -0.640446
    O   O31   0.914425  0.542531  0.117453  -0.626199
    O   O32   0.974748  0.422235  0.134983  -0.639135
    C   C15   0.983396  0.528711  0.184983  0.826463
    C   C16   0.924243  0.482408  0.126218  0.776874
    O   O33   0.439250  0.614444  0.091008  -0.623133
    O   O34   0.498953  0.494153  0.073360  -0.642468
    C   C17   0.463073  0.565941  0.067545  0.803772
    O   O35   0.518581  0.579236  0.135108  -0.639056
    O   O36   0.578229  0.458961  0.117488  -0.627335
    C   C18   0.568779  0.519013  0.126339  0.778901
    Cu  Cu9   0.452841  0.588599  0.136356  1.066121
    Cu  Cu10  0.521621  0.450011  0.116060  1.076691
    O   O37   0.475412  0.544652  0.179045  -0.639766
    O   O38   0.535146  0.424311  0.161454  -0.641726
    O   O39   0.396306  0.579416  0.134983  -0.641136
    O   O40   0.456041  0.459143  0.117359  -0.636880
    C   C19   0.511276  0.472908  0.184895  0.824092
    C   C20   0.405857  0.519250  0.126173  0.803989
    C   C21   0.791090  0.438653  0.482315  -0.156774
    C   C22   0.762436  0.442643  0.512125  -0.180072
    H   H1    0.771958  0.394698  0.524504  0.072938
    H   H2    0.826622  0.387092  0.469918  0.066857
    H   H3    0.778518  0.496739  0.551750  0.078154
    C   C23   0.617101  0.518597  0.497335  -0.060767
    C   C24   0.882215  0.482419  0.497108  -0.061570
    C   C25   0.734492  0.502494  0.467456  -0.196862
    C   C26   0.706668  0.506371  0.497265  0.773279
    C   C27   0.736875  0.558385  0.482337  -0.197275
    C   C28   0.792643  0.494657  0.497196  0.767853
    C   C29   0.708221  0.562375  0.512147  -0.170321
    C   C30   0.764819  0.498534  0.527006  -0.189607
    C   C31   0.657537  0.513063  0.497304  -0.444291
    C   C32   0.841774  0.487964  0.497156  -0.441736
    H   H4    0.672689  0.613936  0.524544  0.075105
    H   H5    0.727352  0.606330  0.469958  0.084238
    H   H6    0.720793  0.504288  0.442712  0.079298
    C   C33   0.255574  0.463550  0.471424  -0.198488
    C   C34   0.243111  0.536664  0.471455  -0.197232
    H   H7    0.238414  0.567268  0.450028  0.081710
    H   H8    0.259340  0.433092  0.449974  0.083381
    H   H9    0.156822  0.622793  0.497395  0.079757
    C   C35   0.364393  0.518128  0.497057  -0.092986
    C   C36   0.135407  0.481920  0.497390  -0.094702
    C   C37   0.300219  0.432886  0.497149  -0.174372
    C   C38   0.287038  0.505886  0.497181  0.758995
    C   C39   0.256695  0.463374  0.523016  -0.179527
    C   C40   0.212767  0.494151  0.497290  0.756602
    C   C41   0.244232  0.536488  0.523047  -0.183412
    C   C42   0.199587  0.567151  0.497322  -0.172143
    C   C43   0.329482  0.512591  0.497119  -0.415727
    C   C44   0.170323  0.487447  0.497351  -0.414358
    H   H10   0.240466  0.566945  0.544497  0.075276
    H   H11   0.261392  0.432769  0.544443  0.074208
    H   H12   0.342984  0.377245  0.497077  0.080282
    C   C45   0.089685  0.349790  0.673235  -0.134521
    C   C46   0.068956  0.313705  0.687208  -0.224672
    H   H13   0.036465  0.338070  0.705759  0.081201
    H   H14   0.073253  0.406424  0.678757  0.070519
    H   H15   0.032810  0.294066  0.643665  0.071401
    C   C47   0.170011  0.158657  0.743543  -0.086191
    C   C48   0.046500  0.409288  0.588503  -0.115393
    C   C49   0.150005  0.277509  0.677379  -0.231951
    C   C50   0.128872  0.242242  0.690848  0.827717
    C   C51   0.148632  0.252194  0.644230  -0.130301
    C   C52   0.088717  0.323656  0.640591  0.689378
    C   C53   0.127904  0.216108  0.658204  -0.235730
    C   C54   0.067584  0.288389  0.654059  -0.133396
    C   C55   0.151804  0.195747  0.719554  -0.452612
    C   C56   0.065781  0.370159  0.611888  -0.382085
    H   H16   0.144337  0.159472  0.652685  0.095089
    H   H17   0.181119  0.227834  0.625677  0.063361
    H   H18   0.184779  0.271832  0.687773  0.091275
    C   C57   0.923709  0.610844  0.322155  -0.186543
    C   C58   0.962686  0.610758  0.301628  -0.175913
    H   H19   0.954025  0.660593  0.292271  0.073834
    H   H20   0.882712  0.660745  0.331591  0.081801
    H   H21   0.044777  0.550397  0.332318  0.073703
    C   C59   0.971083  0.554320  0.217490  -0.145814
    C   C60   0.971720  0.553835  0.406204  -0.149817
    C   C61   0.933958  0.550878  0.301137  -0.183008
    C   C62   0.972938  0.550792  0.281227  0.718631
    C   C63   0.983547  0.490660  0.322062  -0.165117
    C   C64   0.973294  0.550628  0.342463  0.718824
    C   C65   0.022524  0.490575  0.301533  -0.167811
    C   C66   0.012276  0.550540  0.322552  -0.176402
    C   C67   0.972730  0.550898  0.246253  -0.349130
    C   C68   0.973490  0.550547  0.377436  -0.346865
    H   H22   0.063518  0.440677  0.292093  0.077309
    H   H23   0.992208  0.440829  0.331424  0.073776
    H   H24   0.901457  0.551020  0.291371  0.078355
    C   C69   0.343136  0.736722  0.672006  -0.227142
    C   C70   0.356639  0.755526  0.641407  -0.129255
    H   H25   0.328253  0.785683  0.620527  0.062297
    H   H26   0.302357  0.753609  0.677958  0.088353
    H   H27   0.377001  0.829519  0.657316  0.092370
    C   C71   0.455751  0.591167  0.588498  -0.115120
    C   C72   0.328272  0.842270  0.743526  -0.086631
    C   C73   0.399192  0.657353  0.670672  -0.134758
    C   C74   0.412278  0.676977  0.640578  0.687557
    C   C75   0.426480  0.680031  0.689990  -0.223112
    C   C76   0.370841  0.758580  0.690820  0.825819
    C   C77   0.439982  0.698835  0.659391  -0.133617
    C   C78   0.383927  0.778205  0.660726  -0.232008
    C   C79   0.435944  0.630368  0.611883  -0.380799
    C   C80   0.347177  0.805182  0.719517  -0.452518
    H   H28   0.480761  0.681950  0.653440  0.070610
    H   H29   0.454872  0.649865  0.710867  0.081028
    H   H30   0.406116  0.606040  0.674083  0.069878
    C   C81   0.572694  0.390273  0.322304  -0.186297
    C   C82   0.533636  0.390330  0.301086  -0.181244
    H   H31   0.542315  0.340489  0.291362  0.075353
    H   H32   0.613789  0.340379  0.331947  0.081440
    H   H33   0.451791  0.450334  0.330950  0.070952
    C   C83   0.524554  0.447278  0.217384  -0.143482
    C   C84   0.525138  0.446764  0.406098  -0.148704
    C   C85   0.562188  0.450425  0.301728  -0.176380
    C   C86   0.523131  0.450479  0.281127  0.723035
    C   C87   0.512716  0.510456  0.322401  -0.169873
    C   C88   0.523222  0.450305  0.342360  0.718521
    C   C89   0.473658  0.510514  0.301182  -0.173351
    C   C90   0.484164  0.450362  0.321759  -0.169481
    C   C91   0.523084  0.450566  0.246154  -0.352272
    C   C92   0.523282  0.450194  0.377332  -0.347668
    H   H34   0.432567  0.560405  0.291534  0.079371
    H   H35   0.504037  0.560295  0.332130  0.076143
    H   H36   0.594560  0.450454  0.292536  0.075270
    C   C93   0.088219  0.245360  0.955935  -0.231167
    C   C94   0.122279  0.240511  0.983341  -0.120575
    H   H37   0.136338  0.206163  0.005185  0.060019
    H   H38   0.075194  0.212699  0.953598  0.089866
    H   H39   0.206161  0.197069  0.960436  0.087783
    C   C95   0.040481  0.409931  0.035086  -0.110754
    C   C96   0.167833  0.158770  0.880072  -0.091862
    C   C97   0.049461  0.329800  0.956103  -0.142681
    C   C98   0.083938  0.324130  0.983003  0.688433
    C   C99   0.086969  0.326110  0.932435  -0.215650
    C   C100  0.125311  0.242490  0.932772  0.818762
    C   C101  0.121031  0.321259  0.959840  -0.135998
    C   C102  0.159788  0.236819  0.959672  -0.225553
    C   C103  0.060307  0.370761  0.011692  -0.383447
    C   C104  0.148940  0.195866  0.904080  -0.447165
    H   H40   0.134057  0.353919  0.962177  0.068526
    H   H41   0.072906  0.360467  0.910594  0.080956
    H   H42   0.003089  0.369548  0.955337  0.073448
    C   C105  0.344161  0.726908  0.947210  -0.223707
    C   C106  0.403648  0.652612  0.950715  -0.139691
    H   H43   0.417766  0.597078  0.945500  0.071216
    H   H44   0.307762  0.735358  0.937654  0.089113
    H   H45   0.458101  0.659318  0.916649  0.081573
    C   C107  0.449690  0.591801  0.035082  -0.110883
    C   C108  0.326080  0.842411  0.880034  -0.088450
    C   C109  0.348340  0.750897  0.979990  -0.138215
    C   C110  0.407423  0.677419  0.982989  0.697465
    C   C111  0.371006  0.783642  0.965006  -0.230267
    C   C112  0.367232  0.758834  0.932732  0.822805
    C   C113  0.430494  0.709346  0.968511  -0.138772
    C   C114  0.426315  0.685355  0.935731  -0.222410
    C   C115  0.430378  0.630918  0.011692  -0.385860
    C   C116  0.344281  0.805329  0.904025  -0.450634
    H   H46   0.466892  0.700896  0.978067  0.072400
    H   H47   0.356888  0.839177  0.970219  0.093946
    H   H48   0.316559  0.776929  0.999074  0.065137
    C   C117  0.200777  0.558934  0.111548  -0.171287
    C   C118  0.226656  0.562834  0.141295  -0.189042
    H   H49   0.211229  0.614357  0.153696  0.082309
    H   H50   0.161946  0.606916  0.099230  0.078089
    H   H51   0.223475  0.497081  0.180950  0.075554
    C   C119  0.360858  0.519111  0.126209  -0.096028
    C   C120  0.131852  0.482939  0.126551  -0.091444
    C   C121  0.258339  0.503086  0.096565  -0.198431
    C   C122  0.283501  0.506874  0.126313  0.751007
    C   C123  0.266062  0.439201  0.111447  -0.164493
    C   C124  0.209217  0.495162  0.126429  0.752792
    C   C125  0.291941  0.443102  0.141194  -0.164114
    C   C126  0.234379  0.498949  0.156177  -0.192512
    C   C127  0.325952  0.513565  0.126247  -0.412035
    C   C128  0.166766  0.488471  0.126496  -0.416368
    H   H52   0.330772  0.395119  0.153511  0.072612
    H   H53   0.281489  0.387678  0.099045  0.069710
    H   H54   0.269244  0.504954  0.071792  0.080438
    C   C129  0.783279  0.448919  0.105632  -0.168811
    C   C130  0.762168  0.436201  0.134553  -0.191609
    H   H55   0.774056  0.382788  0.141378  0.081523
    H   H56   0.814907  0.405776  0.088420  0.073952
    H   H57   0.789227  0.466261  0.179238  0.074291
    C   C131  0.613977  0.518757  0.126454  -0.070264
    C   C132  0.879111  0.482537  0.126248  -0.070094
    C   C133  0.723830  0.519350  0.097452  -0.180056
    C   C134  0.703550  0.506518  0.126372  0.755578
    C   C135  0.730916  0.565101  0.118129  -0.180135
    C   C136  0.789534  0.494783  0.126310  0.754958
    C   C137  0.709805  0.552382  0.147050  -0.156133
    C   C138  0.769254  0.481951  0.155230  -0.182778
    C   C139  0.654414  0.513223  0.126409  -0.432726
    C   C140  0.838671  0.488078  0.126274  -0.431189
    H   H58   0.678177  0.595525  0.164261  0.065139
    H   H59   0.719028  0.618512  0.111303  0.073922
    H   H60   0.703857  0.535040  0.073444  0.075167
