# Generated by REPEAT Assigner based on pymatgen
data_DB0-m2_o24_o27_f0_nbo.sym.19_sqe
_audit_creation_date              2022-05-24
_audit_creation_method            REPEAT_Assigner
_cell_length_a                    30.395274
_cell_length_b                    30.294157
_cell_length_c                    24.559023
_cell_angle_alpha                 90.000000
_cell_angle_beta                  128.222857
_cell_angle_gamma                 90.000000
_cell_volume                      17765.731533
_symmetry_space_group_name_H-M    P1
_symmetry_Int_Tables_number       1
loop_
    _symmetry_equiv_pos_site_id
    _symmetry_equiv_pos_as_xyz
    1  x,y,z
loop_
    _atom_site_type_symbol
    _atom_site_label
    _atom_site_fract_x
    _atom_site_fract_y
    _atom_site_fract_z
    _atom_type_partial_charge
    C   C1    0.809847  0.811094  0.499833  0.404590
    C   C2    0.310949  0.691614  0.502594  0.488740
    C   C3    0.644951  0.246791  0.291024  -0.462598
    C   C4    0.034751  0.743166  0.069619  0.921842
    C   C5    0.965249  0.743166  0.930381  0.921774
    C   C6    0.534751  0.243166  0.069619  0.921860
    C   C7    0.465249  0.243166  0.930381  0.921742
    C   C8    0.596992  0.642210  0.437782  -0.015836
    C   C9    0.403008  0.642210  0.562218  -0.016601
    C   C10   0.096992  0.142210  0.437782  -0.015828
    C   C11   0.903008  0.142210  0.562218  -0.016537
    C   C12   0.578336  0.643085  0.482137  0.326169
    C   C13   0.189051  0.191614  0.497406  0.488948
    C   C14   0.421664  0.643085  0.517863  0.326136
    C   C15   0.078336  0.143085  0.482137  0.326166
    C   C16   0.921664  0.143085  0.517863  0.326080
    C   C17   0.594825  0.594981  0.501528  0.123005
    C   C18   0.405175  0.594981  0.498472  0.123138
    C   C19   0.094825  0.094981  0.501528  0.123023
    C   C20   0.905175  0.094981  0.498472  0.123211
    C   C21   0.613847  0.594491  0.457109  0.245720
    C   C22   0.386153  0.594491  0.542890  0.246551
    C   C23   0.113847  0.094491  0.457109  0.245708
    C   C24   0.810949  0.191614  0.502594  0.488842
    C   C25   0.886153  0.094491  0.542890  0.246483
    C   C26   0.671777  0.608809  0.518332  0.019904
    C   C27   0.328223  0.608809  0.481668  0.019265
    C   C28   0.171777  0.108809  0.518332  0.019907
    C   C29   0.828223  0.108809  0.481668  0.019354
    C   C30   0.653149  0.609731  0.562772  0.216470
    C   C31   0.346851  0.609731  0.437227  0.216232
    C   C32   0.153149  0.109731  0.562772  0.216475
    C   C33   0.846851  0.109731  0.437227  0.216176
    C   C34   0.636325  0.657447  0.543454  -0.051086
    C   C35   0.817267  0.748920  0.632545  0.869887
    C   C36   0.363675  0.657447  0.456545  -0.050884
    C   C37   0.136325  0.157447  0.543454  -0.051093
    C   C38   0.863675  0.157447  0.456545  -0.050795
    C   C39   0.655334  0.656953  0.498997  0.452379
    C   C40   0.344666  0.656953  0.501003  0.452948
    C   C41   0.155334  0.156953  0.498997  0.452379
    C   C42   0.844666  0.156953  0.501003  0.452778
    C   C43   0.439754  0.560335  0.498617  0.632718
    C   C44   0.560246  0.560335  0.501383  0.633039
    C   C45   0.939754  0.060335  0.498617  0.632699
    C   C46   0.182733  0.748920  0.367454  0.869873
    C   C47   0.060246  0.060335  0.501383  0.633036
    C   C48   0.939686  0.940515  0.498528  0.638510
    C   C49   0.060314  0.940515  0.501472  0.638328
    C   C50   0.439686  0.440515  0.498528  0.638491
    C   C51   0.560314  0.440515  0.501472  0.638376
    C   C52   0.317267  0.248920  0.632545  0.869893
    C   C53   0.682733  0.248920  0.367454  0.869722
    C   C54   0.611675  0.792570  0.254663  0.292294
    C   C55   0.388325  0.792570  0.745337  0.292282
    C   C56   0.111675  0.292570  0.254663  0.292281
    C   C57   0.190153  0.811094  0.500167  0.404403
    C   C58   0.888325  0.292570  0.745337  0.292232
    C   C59   0.575763  0.793445  0.183217  0.444434
    C   C60   0.424237  0.793445  0.816783  0.444222
    C   C61   0.075763  0.293445  0.183217  0.444436
    C   C62   0.924237  0.293445  0.816783  0.444240
    C   C63   0.571248  0.757097  0.145674  -0.611213
    C   C64   0.428751  0.757097  0.854326  -0.611072
    C   C65   0.071248  0.257097  0.145674  -0.611209
    C   C66   0.928751  0.257097  0.854326  -0.611087
    C   C67   0.603165  0.720053  0.180948  0.032586
    C   C68   0.309847  0.311094  0.499833  0.404574
    C   C69   0.396835  0.720053  0.819052  0.032615
    C   C70   0.103165  0.220053  0.180948  0.032584
    C   C71   0.896835  0.220053  0.819052  0.032624
    C   C72   0.639572  0.719420  0.252387  -0.116678
    C   C73   0.360428  0.719420  0.747613  -0.116786
    C   C74   0.139572  0.219420  0.252387  -0.116683
    C   C75   0.860428  0.219420  0.747613  -0.116820
    C   C76   0.643865  0.755487  0.289810  -0.239378
    C   C77   0.356135  0.755487  0.710189  -0.239310
    C   C78   0.143865  0.255487  0.289810  -0.239363
    C   C79   0.690153  0.311094  0.500167  0.404795
    C   C80   0.856135  0.255487  0.710189  -0.239213
    C   C81   0.466340  0.757288  0.930576  0.946054
    C   C82   0.533660  0.757288  0.069424  0.946111
    C   C83   0.966340  0.257288  0.930576  0.946065
    C   C84   0.033660  0.257288  0.069424  0.946109
    C   C85   0.890954  0.871994  0.563910  -0.372905
    C   C86   0.109046  0.871994  0.436089  -0.373154
    C   C87   0.390954  0.371994  0.563910  -0.372954
    C   C88   0.609046  0.371994  0.436089  -0.373224
    C   C89   0.868025  0.912665  0.518220  0.416811
    C   C90   0.682436  0.754100  0.365898  0.781278
    C   C91   0.131975  0.912665  0.481780  0.417037
    C   C92   0.368025  0.412665  0.518220  0.416816
    C   C93   0.631975  0.412665  0.481780  0.417197
    C   C94   0.904977  0.905718  0.497823  0.112300
    C   C95   0.095023  0.905718  0.502177  0.112368
    C   C96   0.404977  0.405718  0.497823  0.112290
    C   C97   0.595023  0.405718  0.502177  0.112202
    C   C98   0.927063  0.864667  0.541521  0.306171
    C   C99   0.072936  0.864667  0.458479  0.306284
    C   C100  0.427063  0.364667  0.541521  0.306215
    C   C101  0.317564  0.754100  0.634102  0.781256
    C   C102  0.572936  0.364667  0.458479  0.306424
    C   C103  0.881652  0.838642  0.479948  0.132810
    C   C104  0.118348  0.838642  0.520052  0.132990
    C   C105  0.381652  0.338642  0.479948  0.132788
    C   C106  0.618348  0.338642  0.520052  0.132965
    C   C107  0.858702  0.879457  0.434643  -0.106526
    C   C108  0.141298  0.879457  0.565357  -0.106769
    C   C109  0.358702  0.379457  0.434643  -0.106515
    C   C110  0.641298  0.379457  0.565357  -0.106684
    C   C111  0.821040  0.887076  0.455552  -0.351260
    C   C112  0.182436  0.254100  0.365898  0.781281
    C   C113  0.178960  0.887076  0.544447  -0.351343
    C   C114  0.321040  0.387076  0.455552  -0.351275
    C   C115  0.678960  0.387076  0.544447  -0.351369
    C   C116  0.844719  0.845761  0.500418  0.473282
    C   C117  0.155281  0.845761  0.499582  0.473454
    C   C118  0.344719  0.345761  0.500418  0.473339
    C   C119  0.655281  0.345761  0.499582  0.473194
    C   C120  0.837003  0.760580  0.746086  0.253089
    C   C121  0.162997  0.760580  0.253913  0.252825
    C   C122  0.337003  0.260580  0.746086  0.253121
    C   C123  0.817564  0.254100  0.634102  0.781156
    C   C124  0.662997  0.260580  0.253913  0.252798
    C   C125  0.872553  0.759405  0.817476  0.409788
    C   C126  0.127447  0.759405  0.182524  0.409988
    C   C127  0.372553  0.259405  0.817476  0.409738
    C   C128  0.627447  0.259405  0.182524  0.409971
    C   C129  0.926996  0.743976  0.853767  -0.716389
    C   C130  0.073004  0.743976  0.146233  -0.716551
    C   C131  0.426996  0.243976  0.853767  -0.716331
    C   C132  0.573004  0.243976  0.146233  -0.716563
    C   C133  0.944837  0.729691  0.816581  0.370695
    C   C134  0.689051  0.691614  0.497406  0.488955
    C   C135  0.055163  0.729691  0.183419  0.370778
    C   C136  0.444837  0.229691  0.816581  0.370641
    C   C137  0.555163  0.229691  0.183419  0.370797
    C   C138  0.909322  0.731164  0.745105  0.287833
    C   C139  0.090678  0.731164  0.254895  0.287988
    C   C140  0.409322  0.231164  0.745105  0.287876
    C   C141  0.590678  0.231164  0.254895  0.287947
    C   C142  0.855048  0.746791  0.708976  -0.462775
    C   C143  0.144951  0.746791  0.291024  -0.462723
    C   C144  0.355048  0.246791  0.708976  -0.462803
    Cu  Cu1   0.779572  0.720195  0.497123  0.974833
    Cu  Cu2   0.034050  0.000461  0.569064  0.985847
    Cu  Cu3   0.465950  0.500461  0.430935  0.986013
    Cu  Cu4   0.534050  0.500461  0.569064  0.985859
    Cu  Cu5   0.220428  0.720195  0.502877  0.974813
    Cu  Cu6   0.279572  0.220195  0.497123  0.974841
    Cu  Cu7   0.720428  0.220195  0.502877  0.974813
    Cu  Cu8   0.719760  0.782519  0.501062  0.924192
    Cu  Cu9   0.280240  0.782519  0.498938  0.924134
    Cu  Cu10  0.219760  0.282519  0.501062  0.924183
    Cu  Cu11  0.780240  0.282519  0.498938  0.924135
    Cu  Cu12  0.965950  0.000461  0.430935  0.986005
    H   H1    0.600853  0.691347  0.153171  0.076040
    H   H2    0.095921  0.869507  0.382841  0.128561
    H   H3    0.404079  0.369507  0.617159  0.128487
    H   H4    0.595921  0.369507  0.382841  0.128571
    H   H5    0.846162  0.881645  0.381652  0.084711
    H   H6    0.153838  0.881645  0.618347  0.084715
    H   H7    0.346162  0.381645  0.381652  0.084710
    H   H8    0.653838  0.381645  0.618347  0.084705
    H   H9    0.776365  0.897064  0.421087  0.119883
    H   H10   0.223635  0.897064  0.578912  0.119904
    H   H11   0.276365  0.397064  0.421087  0.119881
    H   H12   0.399147  0.691347  0.846828  0.076055
    H   H13   0.723635  0.397064  0.578912  0.119903
    H   H14   0.645638  0.847289  0.294857  0.368926
    H   H15   0.354362  0.847289  0.705143  0.368837
    H   H16   0.145638  0.347289  0.294857  0.368922
    H   H17   0.854362  0.347289  0.705143  0.368828
    H   H18   0.762403  0.747865  0.707417  0.360140
    H   H19   0.237597  0.747865  0.292582  0.360165
    H   H20   0.262403  0.247865  0.707417  0.360137
    H   H21   0.737597  0.247865  0.292582  0.360166
    H   H22   0.860661  0.807136  0.855759  0.396059
    H   H23   0.100853  0.191347  0.153171  0.076041
    H   H24   0.139339  0.807136  0.144241  0.396043
    H   H25   0.360661  0.307136  0.855759  0.396058
    H   H26   0.639339  0.307136  0.144241  0.396042
    H   H27   0.993243  0.680848  0.852335  0.341690
    H   H28   0.006757  0.680848  0.147665  0.341732
    H   H29   0.493243  0.180848  0.852335  0.341695
    H   H30   0.506757  0.180848  0.147665  0.341731
    H   H31   0.925952  0.685387  0.708829  0.324825
    H   H32   0.074047  0.685387  0.291171  0.324845
    H   H33   0.425952  0.185387  0.708829  0.324821
    H   H34   0.899147  0.191347  0.846828  0.076055
    H   H35   0.574047  0.185387  0.291171  0.324848
    H   H36   0.531856  0.693421  0.456302  0.373587
    H   H37   0.468144  0.693421  0.543698  0.373609
    H   H38   0.031856  0.193421  0.456302  0.373587
    H   H39   0.968144  0.193421  0.543698  0.373605
    H   H40   0.531021  0.642592  0.343960  0.377176
    H   H41   0.468979  0.642592  0.656040  0.377156
    H   H42   0.031021  0.142592  0.343960  0.377182
    H   H43   0.968979  0.142592  0.656040  0.377155
    H   H44   0.621653  0.570250  0.392094  0.365833
    H   H45   0.664058  0.690028  0.278510  0.141855
    H   H46   0.378347  0.570250  0.607906  0.365784
    H   H47   0.121653  0.070250  0.392094  0.365840
    H   H48   0.878347  0.070250  0.607906  0.365782
    H   H49   0.717863  0.558134  0.544863  0.378370
    H   H50   0.282137  0.558134  0.455137  0.378342
    H   H51   0.217863  0.058134  0.544863  0.378374
    H   H52   0.782137  0.058134  0.455137  0.378346
    H   H53   0.719355  0.609829  0.656450  0.366924
    H   H54   0.280645  0.609829  0.343550  0.366917
    H   H55   0.219355  0.109829  0.656450  0.366927
    H   H56   0.335942  0.690028  0.721490  0.141884
    H   H57   0.780645  0.109829  0.343550  0.366919
    H   H58   0.510014  0.825440  0.147054  0.385690
    H   H59   0.489985  0.825440  0.852946  0.385644
    H   H60   0.010014  0.325440  0.147054  0.385687
    H   H61   0.989985  0.325440  0.852946  0.385640
    H   H62   0.629101  0.681263  0.609192  0.375794
    H   H63   0.370899  0.681263  0.390808  0.375839
    H   H64   0.129101  0.181263  0.609192  0.375798
    H   H65   0.870899  0.181263  0.390808  0.375840
    H   H66   0.829281  0.949195  0.538963  0.360072
    H   H67   0.164058  0.190028  0.278510  0.141856
    H   H68   0.170719  0.949195  0.461037  0.360087
    H   H69   0.329281  0.449195  0.538963  0.360055
    H   H70   0.670719  0.449195  0.461037  0.360094
    H   H71   0.983974  0.824265  0.606177  0.384975
    H   H72   0.016026  0.824265  0.393823  0.384979
    H   H73   0.483974  0.324265  0.606177  0.384980
    H   H74   0.516026  0.324265  0.393822  0.384997
    H   H75   0.915244  0.804774  0.449291  0.364729
    H   H76   0.084756  0.804774  0.550709  0.364676
    H   H77   0.415244  0.304774  0.449291  0.364727
    H   H78   0.835942  0.190028  0.721490  0.141893
    H   H79   0.584756  0.304774  0.550709  0.364678
    H   H80   0.904079  0.869507  0.617159  0.128482
    N   N1    0.516732  0.718923  0.034268  -0.363056
    N   N2    0.978925  0.743113  0.034204  -0.276349
    N   N3    0.521075  0.243113  0.965796  -0.276398
    N   N4    0.478925  0.243113  0.034204  -0.276349
    N   N5    0.055259  0.743014  0.034295  -0.345607
    N   N6    0.944741  0.743014  0.965705  -0.345586
    N   N7    0.555259  0.243014  0.034295  -0.345626
    N   N8    0.444741  0.243014  0.965705  -0.345584
    N   N9    0.483268  0.718923  0.965732  -0.363177
    N   N10   0.016732  0.218923  0.034268  -0.363056
    N   N11   0.983268  0.218923  0.965732  -0.363179
    N   N12   0.483384  0.795599  0.965778  -0.315402
    N   N13   0.516616  0.795599  0.034222  -0.315558
    N   N14   0.983384  0.295599  0.965778  -0.315407
    N   N15   0.016616  0.295599  0.034222  -0.315558
    N   N16   0.021075  0.743113  0.965796  -0.276420
    O   O1    0.822205  0.769652  0.500069  -0.526837
    O   O2    0.277265  0.724656  0.603339  -0.639942
    O   O3    0.639033  0.453597  0.462185  -0.588648
    O   O4    0.983304  0.852345  0.585066  -0.607278
    O   O5    0.016696  0.852345  0.414934  -0.607297
    O   O6    0.483304  0.352345  0.585066  -0.607295
    O   O7    0.516696  0.352345  0.414934  -0.607339
    O   O8    0.889943  0.798068  0.460758  -0.572771
    O   O9    0.110057  0.798068  0.539241  -0.572837
    O   O10   0.389943  0.298068  0.460758  -0.572772
    O   O11   0.610057  0.298068  0.539241  -0.572842
    O   O12   0.222735  0.224656  0.396661  -0.639943
    O   O13   0.777265  0.224656  0.603339  -0.639935
    O   O14   0.672047  0.779352  0.400087  -0.517385
    O   O15   0.327953  0.779352  0.599913  -0.517363
    O   O16   0.172047  0.279352  0.400087  -0.517387
    O   O17   0.827953  0.279352  0.599913  -0.517355
    O   O18   0.731538  0.679068  0.499906  -0.550341
    O   O19   0.268462  0.679068  0.500094  -0.550295
    O   O20   0.231538  0.179068  0.499906  -0.550337
    O   O21   0.177795  0.769652  0.499931  -0.526758
    O   O22   0.768462  0.179068  0.500094  -0.550297
    O   O23   0.678649  0.733048  0.501250  -0.591709
    O   O24   0.321351  0.733048  0.498749  -0.591645
    O   O25   0.178649  0.233048  0.501250  -0.591699
    O   O26   0.821351  0.233048  0.498749  -0.591650
    O   O27   0.825894  0.721913  0.598117  -0.615081
    O   O28   0.174106  0.721913  0.401883  -0.615121
    O   O29   0.325894  0.221913  0.598117  -0.615084
    O   O30   0.674106  0.221913  0.401883  -0.615102
    O   O31   0.773288  0.774841  0.601395  -0.494543
    O   O32   0.322205  0.269652  0.500069  -0.526843
    O   O33   0.226712  0.774841  0.398604  -0.494573
    O   O34   0.273288  0.274841  0.601395  -0.494545
    O   O35   0.726712  0.274841  0.398604  -0.494545
    O   O36   0.422850  0.543898  0.439110  -0.552478
    O   O37   0.577150  0.543898  0.560889  -0.552645
    O   O38   0.922850  0.043898  0.439110  -0.552484
    O   O39   0.077150  0.043898  0.560889  -0.552649
    O   O40   0.485673  0.547697  0.558514  -0.634197
    O   O41   0.514327  0.547697  0.441486  -0.634278
    O   O42   0.985673  0.047697  0.558514  -0.634198
    O   O43   0.677795  0.269652  0.499931  -0.526835
    O   O44   0.014327  0.047697  0.441486  -0.634276
    O   O45   0.924053  0.955659  0.438946  -0.632453
    O   O46   0.075947  0.955659  0.561054  -0.632290
    O   O47   0.424053  0.455659  0.438946  -0.632458
    O   O48   0.575947  0.455659  0.561054  -0.632304
    O   O49   0.984336  0.954463  0.558598  -0.559373
    O   O50   0.015664  0.954463  0.441401  -0.559266
    O   O51   0.484336  0.454463  0.558598  -0.559378
    O   O52   0.515664  0.454463  0.441401  -0.559274
    O   O53   0.616077  0.829393  0.289890  -0.534364
    O   O54   0.771552  0.823437  0.505510  -0.645394
    O   O55   0.383923  0.829393  0.710109  -0.534189
    O   O56   0.116077  0.329393  0.289890  -0.534357
    O   O57   0.883923  0.329393  0.710109  -0.534167
    O   O58   0.783312  0.774790  0.712962  -0.497697
    O   O59   0.216688  0.774790  0.287037  -0.497579
    O   O60   0.283312  0.274790  0.712962  -0.497697
    O   O61   0.716688  0.274790  0.287037  -0.497570
    O   O62   0.853223  0.774998  0.851382  -0.558334
    O   O63   0.146777  0.774998  0.148618  -0.558295
    O   O64   0.353223  0.274998  0.851382  -0.558323
    O   O65   0.228448  0.823437  0.494490  -0.645324
    O   O66   0.646777  0.274998  0.148618  -0.558286
    O   O67   0.997477  0.713003  0.849633  -0.518225
    O   O68   0.002523  0.713003  0.150366  -0.518310
    O   O69   0.497477  0.213003  0.849633  -0.518216
    O   O70   0.502523  0.213003  0.150366  -0.518313
    O   O71   0.929318  0.717966  0.710882  -0.440470
    O   O72   0.070682  0.717966  0.289117  -0.440628
    O   O73   0.429318  0.217966  0.710882  -0.440477
    O   O74   0.570682  0.217966  0.289117  -0.440622
    O   O75   0.528562  0.661684  0.462810  -0.590894
    O   O76   0.271552  0.323437  0.505510  -0.645386
    O   O77   0.471438  0.661684  0.537190  -0.590854
    O   O78   0.028562  0.161684  0.462810  -0.590895
    O   O79   0.971438  0.161684  0.537190  -0.590843
    O   O80   0.566662  0.659275  0.370873  -0.561570
    O   O81   0.433338  0.659275  0.629127  -0.561431
    O   O82   0.066662  0.159275  0.370873  -0.561581
    O   O83   0.933338  0.159275  0.629127  -0.561436
    O   O84   0.602186  0.561030  0.410904  -0.544184
    O   O85   0.397814  0.561030  0.589095  -0.544396
    O   O86   0.102186  0.061030  0.410904  -0.544195
    O   O87   0.728448  0.323437  0.494490  -0.645414
    O   O88   0.897814  0.061030  0.589095  -0.544379
    O   O89   0.721368  0.589719  0.537793  -0.564994
    O   O90   0.278632  0.589719  0.462207  -0.564877
    O   O91   0.221368  0.089719  0.537793  -0.565000
    O   O92   0.778632  0.089719  0.462207  -0.564897
    O   O93   0.683919  0.592878  0.629861  -0.576612
    O   O94   0.316081  0.592878  0.370138  -0.576428
    O   O95   0.183919  0.092878  0.629861  -0.576616
    O   O96   0.816081  0.092878  0.370138  -0.576425
    O   O97   0.543917  0.830321  0.150597  -0.581791
    O   O98   0.722735  0.724656  0.396661  -0.639935
    O   O99   0.456083  0.830321  0.849403  -0.581767
    O   O100  0.043917  0.330321  0.150597  -0.581787
    O   O101  0.956083  0.330321  0.849403  -0.581762
    O   O102  0.648001  0.690824  0.589785  -0.518321
    O   O103  0.351999  0.690824  0.410215  -0.518399
    O   O104  0.148001  0.190824  0.589785  -0.518324
    O   O105  0.851999  0.190824  0.410215  -0.518416
    O   O106  0.860967  0.953597  0.537815  -0.588527
    O   O107  0.139033  0.953597  0.462185  -0.588611
    O   O108  0.360967  0.453597  0.537815  -0.588492
