data_DB0-m3_o12_o23_f0_pcu.sym.2_repeat
_audit_creation_date              2024-02-23
_audit_creation_method            'Materials Studio'
_symmetry_space_group_name_H-M    'P1'
_symmetry_Int_Tables_number       1
_symmetry_cell_setting            triclinic
loop_
_symmetry_equiv_pos_as_xyz
  x,y,z
_cell_length_a                    10.1641
_cell_length_b                    11.2457
_cell_length_c                    15.9379
_cell_angle_alpha                 90.0009
_cell_angle_beta                  80.5583
_cell_angle_gamma                 92.4860
loop_
_atom_site_label
_atom_site_type_symbol
_atom_site_fract_x
_atom_site_fract_y
_atom_site_fract_z
_atom_site_U_iso_or_equiv
_atom_site_adp_type
_atom_site_occupancy
O1     O     0.42686   0.68576   0.50987   0.00000  Uiso   1.00
O2     O     0.65328   0.65448   0.49284   0.00000  Uiso   1.00
C1     C     0.55211   0.72488   0.50072   0.00000  Uiso   1.00
O3     O     0.37314   0.50973   0.63801   0.00000  Uiso   1.00
O4     O     0.59966   0.47852   0.62125   0.00000  Uiso   1.00
C2     C     0.48354   0.49376   0.66879   0.00000  Uiso   1.00
Zn1    Zn    0.35156   0.51571   0.51389   0.00000  Uiso   1.00
Zn2    Zn    0.64943   0.47416   0.49298   0.00000  Uiso   1.00
O5     O     0.34817   0.33542   0.51379   0.00000  Uiso   1.00
O6     O     0.57373   0.30424   0.49737   0.00000  Uiso   1.00
O7     O     0.40264   0.51211   0.38570   0.00000  Uiso   1.00
O8     O     0.62765   0.47999   0.36891   0.00000  Uiso   1.00
C3     C     0.44887   0.26493   0.50634   0.00000  Uiso   1.00
C4     C     0.51799   0.49658   0.33799   0.00000  Uiso   1.00
C5     C     0.38621   0.57597   0.97184   0.00000  Uiso   1.00
C6     C     0.62862   0.54487   0.93676   0.00000  Uiso   1.00
C7     C     0.64378   0.53355   0.02934   0.00000  Uiso   1.00
H1     H     0.39790   0.66597   0.94243   0.00000  Uiso   1.00
H2     H     0.70608   0.49347   0.89707   0.00000  Uiso   1.00
H3     H     0.64175   0.63969   0.91680   0.00000  Uiso   1.00
H4     H     0.68523   0.61818   0.05192   0.00000  Uiso   1.00
H5     H     0.71470   0.46316   0.03572   0.00000  Uiso   1.00
C8     C     0.52212   0.49689   0.24754   0.00000  Uiso   1.00
C9     C     0.49086   0.49690   0.92530   0.00000  Uiso   1.00
C10    C     0.40159   0.58303   0.06486   0.00000  Uiso   1.00
C11    C     0.50892   0.49883   0.08164   0.00000  Uiso   1.00
C12    C     0.46836   0.37425   0.05617   0.00000  Uiso   1.00
C13    C     0.46797   0.37144   0.96117   0.00000  Uiso   1.00
C14    C     0.51881   0.49766   0.17229   0.00000  Uiso   1.00
C15    C     0.48212   0.49560   0.83455   0.00000  Uiso   1.00
C16    C     0.47933   0.49470   0.75924   0.00000  Uiso   1.00
H6     H     0.37053   0.33337   0.94883   0.00000  Uiso   1.00
H7     H     0.54857   0.31495   0.93024   0.00000  Uiso   1.00
H8     H     0.36715   0.34861   0.09048   0.00000  Uiso   1.00
H9     H     0.28530   0.53792   0.96687   0.00000  Uiso   1.00
H10    H     0.30537   0.55281   0.10385   0.00000  Uiso   1.00
H11    H     0.53972   0.30977   0.07274   0.00000  Uiso   1.00
H12    H     0.62050   0.09018   0.49531   0.00000  Uiso   1.00
H13    H     0.38045   0.89972   0.51197   0.00000  Uiso   1.00
C17    C     0.58145   0.85373   0.49867   0.00000  Uiso   1.00
C18    C     0.48413   0.93071   0.50497   0.00000  Uiso   1.00
H14    H     0.31639   0.10335   0.51551   0.00000  Uiso   1.00
C19    C     0.41953   0.13608   0.50845   0.00000  Uiso   1.00
C20    C     0.51685   0.05913   0.50226   0.00000  Uiso   1.00
H15    H     0.68459   0.88647   0.49152   0.00000  Uiso   1.00
H16    H     0.90027   0.60825   0.52516   0.00000  Uiso   1.00
N1     N     0.84445   0.44551   0.48098   0.00000  Uiso   1.00
C21    C     0.93197   0.52416   0.49729   0.00000  Uiso   1.00
H17    H     0.10887   0.58498   0.57888   0.00000  Uiso   1.00
N2     N     0.15594   0.54326   0.52550   0.00000  Uiso   1.00
C22    C     0.07580   0.50213   0.47648   0.00000  Uiso   1.00
H18    H     0.87915   0.36370   0.46199   0.00000  Uiso   1.00
C23    C     0.43031   0.71195   0.08850   0.00000  Uiso   1.00
H19    H     0.34330   0.76470   0.08076   0.00000  Uiso   1.00
H20    H     0.44443   0.71886   0.15583   0.00000  Uiso   1.00
H21    H     0.51935   0.75164   0.04680   0.00000  Uiso   1.00
C24    C     0.12737   0.44169   0.39452   0.00000  Uiso   1.00
H22    H     0.04568   0.40831   0.36153   0.00000  Uiso   1.00
H23    H     0.18528   0.50772   0.35016   0.00000  Uiso   1.00
H24    H     0.18813   0.36588   0.40608   0.00000  Uiso   1.00
