# Generated by REPEAT Assigner based on pymatgen
data_DB0-m3_o10_o20_f0_pcu.sym.19
_audit_creation_date              2022-05-24
_audit_creation_method            REPEAT_Assigner
_cell_length_a                    7.838973
_cell_length_b                    8.919990
_cell_length_c                    14.533855
_cell_angle_alpha                 89.998872
_cell_angle_beta                  83.388360
_cell_angle_gamma                 91.459219
_cell_volume                      1009.168327
_symmetry_space_group_name_H-M    P1
_symmetry_Int_Tables_number       1
loop_
    _symmetry_equiv_pos_site_id
    _symmetry_equiv_pos_as_xyz
    1  x,y,z
loop_
    _atom_site_type_symbol
    _atom_site_label
    _atom_site_fract_x
    _atom_site_fract_y
    _atom_site_fract_z
    _atom_type_partial_charge
    O   O1   0.442210  0.749361  0.497288  -0.680122
    O   O2   0.681816  0.277818  0.485224  -0.693381
    O   O3   0.736776  0.723190  0.481330  -0.725998
    O   O4   0.387395  0.304001  0.501858  -0.673984
    C   C1   0.600143  0.805512  0.488127  0.793827
    C   C2   0.523945  0.221670  0.494166  0.819506
    O   O5   0.409959  0.527581  0.636754  -0.495059
    O   O6   0.714063  0.499816  0.345931  -0.564555
    O   O7   0.704349  0.500648  0.620653  -0.605066
    O   O8   0.419563  0.525852  0.362057  -0.606883
    C   C3   0.556110  0.514128  0.671472  0.682660
    C   C4   0.567776  0.512737  0.311221  0.807443
    Zn  Zn1  0.367637  0.529871  0.501834  1.023390
    Zn  Zn2  0.756352  0.497308  0.480867  1.015232
    C   C5   0.554347  0.513449  0.770315  -0.175875
    C   C6   0.568988  0.512185  0.212400  -0.276793
    C   C7   0.555669  0.512890  0.853141  0.076045
    C   C8   0.567168  0.511998  0.129601  0.138336
    C   C9   0.559319  0.512364  0.950054  -0.003857
    C   C10  0.563115  0.512083  0.032710  -0.072702
    C   C11  0.627988  0.968240  0.485429  -0.212849
    C   C12  0.496018  0.058985  0.495757  -0.226964
    H   H1   0.757826  0.014916  0.475102  0.156579
    H   H2   0.366131  0.012408  0.505539  0.146286
    N   N1   0.012004  0.479303  0.467392  -0.032134
    N   N2   0.111890  0.547894  0.515328  -0.089033
    C   C13  0.088773  0.416473  0.383911  0.585207
    O   O9   0.207969  0.332011  0.384418  -0.342568
    O   O10  0.014800  0.433495  0.305598  -0.297729
    C   C14  0.082629  0.365314  0.225642  0.302656
    C   C15  0.978717  0.404271  0.147769  -0.182698
    H   H3   0.078994  0.242041  0.235942  -0.018127
    H   H4   0.217556  0.404992  0.207624  -0.002447
    H   H5   0.843887  0.364188  0.165532  0.079082
    H   H6   0.034207  0.349588  0.082992  0.042027
    H   H7   0.982036  0.527596  0.137714  0.053404
    C   C16  0.036578  0.602773  0.601434  0.658498
    O   O11  0.103754  0.576849  0.671123  -0.441840
    O   O12  0.909144  0.701423  0.605887  -0.260267
    C   C17  0.854884  0.764647  0.689855  0.356558
    C   C18  0.709219  0.869482  0.680247  -0.328521
    H   H8   0.963322  0.828503  0.715177  -0.004408
    H   H9   0.810299  0.674955  0.740389  -0.019167
    H   H10  0.754649  0.960676  0.631024  0.099736
    H   H11  0.666036  0.918832  0.748764  0.074182
    H   H12  0.600473  0.806136  0.654981  0.122374
