data_DB0-m3_o11_o23_f0_pcu.sym.103_repeat
_audit_creation_date              2024-02-23
_audit_creation_method            'Materials Studio'
_symmetry_space_group_name_H-M    'P1'
_symmetry_Int_Tables_number       1
_symmetry_cell_setting            triclinic
loop_
_symmetry_equiv_pos_as_xyz
  x,y,z
_cell_length_a                    15.9320
_cell_length_b                    11.1135
_cell_length_c                    9.9082
_cell_angle_alpha                 89.9974
_cell_angle_beta                  89.9750
_cell_angle_gamma                 89.9982
loop_
_atom_site_label
_atom_site_type_symbol
_atom_site_fract_x
_atom_site_fract_y
_atom_site_fract_z
_atom_site_U_iso_or_equiv
_atom_site_adp_type
_atom_site_occupancy
O1     O     0.49065   0.31374   0.63083   0.00000  Uiso   1.00
O2     O     0.49339   0.31195   0.39833   0.00000  Uiso   1.00
C1     C     0.49515   0.25666   0.51519   0.00000  Uiso   1.00
O3     O     0.35669   0.48030   0.62045   0.00000  Uiso   1.00
O4     O     0.36013   0.47935   0.38777   0.00000  Uiso   1.00
C2     C     0.31947   0.47634   0.50277   0.00000  Uiso   1.00
Zn1    Zn    0.48055   0.49299   0.66410   0.00000  Uiso   1.00
Zn2    Zn    0.48565   0.49013   0.35686   0.00000  Uiso   1.00
O5     O     0.47294   0.67115   0.62320   0.00000  Uiso   1.00
O6     O     0.47741   0.66985   0.38963   0.00000  Uiso   1.00
O7     O     0.60606   0.50525   0.63364   0.00000  Uiso   1.00
O8     O     0.60962   0.50218   0.40002   0.00000  Uiso   1.00
C3     C     0.47211   0.72626   0.50616   0.00000  Uiso   1.00
C4     C     0.64667   0.50690   0.51818   0.00000  Uiso   1.00
C5     C     0.03024   0.41914   0.62963   0.00000  Uiso   1.00
C6     C     0.02569   0.42881   0.38023   0.00000  Uiso   1.00
C7     C     0.93088   0.42738   0.39109   0.00000  Uiso   1.00
H1     H     0.90566   0.34615   0.65112   0.00000  Uiso   1.00
H2     H     0.04517   0.32202   0.62032   0.00000  Uiso   1.00
H3     H     0.04470   0.48171   0.29036   0.00000  Uiso   1.00
H4     H     0.04919   0.33537   0.36945   0.00000  Uiso   1.00
H5     H     0.90866   0.33312   0.39988   0.00000  Uiso   1.00
H6     H     0.90331   0.46835   0.29917   0.00000  Uiso   1.00
C8     C     0.73673   0.50730   0.52041   0.00000  Uiso   1.00
C9     C     0.06212   0.48567   0.50623   0.00000  Uiso   1.00
C10    C     0.93611   0.43540   0.64059   0.00000  Uiso   1.00
C11    C     0.90402   0.49798   0.51483   0.00000  Uiso   1.00
C12    C     0.94035   0.62383   0.50771   0.00000  Uiso   1.00
C13    C     0.03518   0.61640   0.51392   0.00000  Uiso   1.00
C14    C     0.81234   0.50437   0.51913   0.00000  Uiso   1.00
C15    C     0.15381   0.47921   0.50194   0.00000  Uiso   1.00
C16    C     0.22941   0.47617   0.50062   0.00000  Uiso   1.00
H7     H     0.05753   0.65630   0.61000   0.00000  Uiso   1.00
H8     H     0.06254   0.66738   0.42832   0.00000  Uiso   1.00
H9     H     0.91695   0.67836   0.59358   0.00000  Uiso   1.00
H10    H     0.06079   0.45522   0.72169   0.00000  Uiso   1.00
H11    H     0.92126   0.49066   0.73069   0.00000  Uiso   1.00
H12    H     0.92112   0.66724   0.41179   0.00000  Uiso   1.00
C17    C     0.48763   0.92643   0.40471   0.00000  Uiso   1.00
C18    C     0.46555   0.85764   0.50925   0.00000  Uiso   1.00
H13    H     0.50355   0.88507   0.30902   0.00000  Uiso   1.00
H14    H     0.44497   0.89896   0.60255   0.00000  Uiso   1.00
C19    C     0.48311   0.05905   0.41208   0.00000  Uiso   1.00
C20    C     0.50916   0.12598   0.51740   0.00000  Uiso   1.00
H15    H     0.45559   0.10416   0.32586   0.00000  Uiso   1.00
C21    C     0.52549   0.56571   0.93502   0.00000  Uiso   1.00
N1     N     0.47675   0.49727   0.86582   0.00000  Uiso   1.00
H16    H     0.57069   0.62208   0.88317   0.00000  Uiso   1.00
H17    H     0.42766   0.45760   0.91619   0.00000  Uiso   1.00
C22    C     0.51856   0.57474   0.08365   0.00000  Uiso   1.00
N2     N     0.49046   0.48710   0.15515   0.00000  Uiso   1.00
H18    H     0.54102   0.65546   0.13320   0.00000  Uiso   1.00
H19    H     0.48006   0.40710   0.10608   0.00000  Uiso   1.00
C23    C     0.55986   0.07633   0.63279   0.00000  Uiso   1.00
C24    C     0.63533   0.15362   0.65486   0.00000  Uiso   1.00
C25    C     0.64961   0.20542   0.77381   0.00000  Uiso   1.00
H20    H     0.58407   0.98509   0.61174   0.00000  Uiso   1.00
H21    H     0.52061   0.07418   0.72519   0.00000  Uiso   1.00
H22    H     0.67968   0.16657   0.57313   0.00000  Uiso   1.00
H23    H     0.60656   0.19326   0.85745   0.00000  Uiso   1.00
H24    H     0.70508   0.26053   0.78752   0.00000  Uiso   1.00
