# Generated by REPEAT Assigner based on pymatgen
data_DB0-m2_o8_o22_f0_pcu.sym.140
_audit_creation_date              2022-05-24
_audit_creation_method            REPEAT_Assigner
_cell_length_a                    10.734374
_cell_length_b                    15.566921
_cell_length_c                    17.036219
_cell_angle_alpha                 96.353093
_cell_angle_beta                  90.002440
_cell_angle_gamma                 92.843053
_cell_volume                      2825.763007
_symmetry_space_group_name_H-M    P1
_symmetry_Int_Tables_number       1
loop_
    _symmetry_equiv_pos_site_id
    _symmetry_equiv_pos_as_xyz
    1  x,y,z
loop_
    _atom_site_type_symbol
    _atom_site_label
    _atom_site_fract_x
    _atom_site_fract_y
    _atom_site_fract_z
    _atom_type_partial_charge
    O   O1   0.486764  0.411079  0.381560  -0.534448
    O   O2   0.505693  0.558798  0.387381  -0.562108
    C   C1   0.498609  0.481945  0.346797  0.717136
    O   O3   0.308297  0.418826  0.492109  -0.684098
    O   O4   0.318167  0.567161  0.503382  -0.523701
    C   C2   0.254001  0.492717  0.500130  0.747975
    Cu  Cu1  0.488649  0.407480  0.495774  0.921690
    Cu  Cu2  0.499699  0.579923  0.502507  0.733742
    O   O5   0.483232  0.428310  0.610847  -0.540203
    O   O6   0.501521  0.576671  0.616768  -0.587557
    O   O7   0.670323  0.420184  0.495074  -0.621709
    O   O8   0.680506  0.568810  0.506397  -0.627884
    C   C3   0.491194  0.505208  0.650829  0.741789
    C   C4   0.734011  0.494579  0.501351  0.612784
    C   C5   0.054247  0.398096  0.490487  0.202856
    H   H1   0.076956  0.368862  0.430669  0.006811
    C   C6   0.913502  0.401300  0.495220  -0.343714
    H   H2   0.873932  0.364829  0.440497  0.069748
    H   H3   0.879323  0.368338  0.545790  0.124060
    H   H4   0.074391  0.488519  0.628729  0.085680
    C   C7   0.065154  0.533427  0.583854  -0.044752
    C   C8   0.066683  0.543557  0.438261  0.127001
    C   C9   0.113152  0.491723  0.503655  -0.249609
    H   H5   0.090902  0.612880  0.454981  -0.028271
    C   C10  0.873437  0.494332  0.502153  0.205459
    C   C11  0.926663  0.548041  0.576577  0.044724
    C   C12  0.925311  0.534100  0.430890  -0.150143
    H   H6   0.896936  0.492562  0.376195  0.044816
    H   H7   0.887972  0.598903  0.428423  0.027300
    H   H8   0.914012  0.617074  0.570016  0.022442
    C   C13  0.507999  0.476372  0.259494  -0.264331
    C   C14  0.524976  0.552986  0.225608  0.067319
    C   C15  0.536755  0.554145  0.144903  -0.245515
    C   C16  0.522937  0.476412  0.095697  0.379473
    C   C17  0.509214  0.399437  0.128979  -0.191001
    C   C18  0.504237  0.398286  0.210242  0.049602
    C   C19  0.501446  0.444981  0.857131  -0.285878
    C   C20  0.504235  0.439168  0.775842  -0.016324
    C   C21  0.479787  0.523200  0.900983  0.654766
    N   N1   0.527395  0.471391  0.012159  -0.250255
    N   N2   0.475597  0.531233  0.984476  -0.246637
    C   C22  0.487708  0.511515  0.737344  -0.261351
    H   H9   0.521703  0.377298  0.743391  0.110689
    H   H10  0.514146  0.386648  0.884483  0.125923
    C   C23  0.467286  0.589724  0.781227  0.287474
    C   C24  0.461394  0.594926  0.862526  -0.526072
    H   H11  0.454340  0.647296  0.752650  0.042605
    H   H12  0.444350  0.655849  0.896778  0.178166
    H   H13  0.536332  0.613542  0.262961  0.111646
    N   N3   0.509265  0.709054  0.507619  0.015343
    C   C25  0.438274  0.749092  0.459314  -0.036964
    C   C26  0.444167  0.838013  0.462470  -0.110476
    C   C27  0.526084  0.887018  0.514788  0.345612
    C   C28  0.601120  0.844187  0.562715  -0.275352
    C   C29  0.590129  0.754859  0.558094  -0.047605
    C   C30  0.550581  0.149229  0.534033  -0.426290
    C   C31  0.555647  0.238268  0.536836  0.091422
    C   C32  0.467436  0.100459  0.482707  0.627725
    N   N4   0.533055  0.978678  0.520671  -0.054629
    N   N5   0.458421  0.008846  0.476371  -0.346992
    N   N6   0.479969  0.278330  0.490901  -0.176562
    H   H14  0.620074  0.275839  0.577312  0.133162
    H   H15  0.611978  0.120873  0.573193  0.188045
    H   H16  0.648035  0.720992  0.594880  0.178415
    C   C33  0.398816  0.232065  0.440916  0.252834
    C   C34  0.391092  0.143037  0.436438  -0.466143
    H   H17  0.338787  0.264964  0.404443  0.090270
    H   H18  0.383293  0.866185  0.422789  0.075699
    H   H19  0.324620  0.106823  0.396511  0.155842
    H   H20  0.374804  0.711524  0.418417  0.152100
    C   C35  0.093670  0.334000  0.545229  0.617236
    O   O9   0.164432  0.354871  0.600834  -0.512801
    N   N7   0.049573  0.245665  0.529954  -0.763161
    H   H21  0.088696  0.212101  0.572894  0.322333
    H   H22  0.084426  0.220957  0.475260  0.277059
    C   C36  0.135959  0.614628  0.618280  0.707423
    O   O10  0.198144  0.612665  0.677874  -0.533652
    N   N8   0.126010  0.694963  0.586239  -0.852966
    H   H23  0.216072  0.717962  0.573933  0.308341
    H   H24  0.089401  0.738429  0.630281  0.321943
    C   C37  0.500663  0.317989  0.076145  0.597971
    O   O11  0.422153  0.307299  0.023758  -0.436478
    N   N9   0.585893  0.251946  0.084206  -0.696155
    H   H25  0.565585  0.201989  0.039289  0.322114
    H   H26  0.675479  0.277820  0.074537  0.269089
    C   C38  0.491622  0.313790  0.241010  0.663063
    O   O12  0.396611  0.268125  0.228137  -0.512994
    N   N10  0.593516  0.282456  0.281569  -0.686332
    H   H27  0.568604  0.219149  0.292390  0.296214
    H   H28  0.670030  0.280581  0.243687  0.274113
    C   C39  0.576321  0.637349  0.116359  0.752099
    O   O13  0.650788  0.639408  0.062435  -0.495608
    N   N11  0.534918  0.716655  0.155505  -0.888183
    H   H29  0.490730  0.748532  0.113314  0.337117
    H   H30  0.613830  0.754691  0.175613  0.339471
    C   C40  0.692708  0.890239  0.619160  0.856263
    O   O14  0.736797  0.851897  0.670385  -0.559599
    N   N12  0.735265  0.977598  0.613346  -0.943298
    H   H31  0.831717  0.978182  0.605193  0.353475
    H   H32  0.717988  0.013265  0.667499  0.335617
    C   C41  0.860598  0.529510  0.650966  0.610634
    O   O15  0.851211  0.456477  0.670526  -0.534034
    N   N13  0.815551  0.599586  0.702394  -0.688600
    H   H33  0.776641  0.574066  0.751524  0.305214
    H   H34  0.744387  0.625953  0.672684  0.243918
    C   C42  0.129020  0.522785  0.359882  0.737057
    O   O16  0.199273  0.577523  0.335241  -0.550378
    N   N14  0.101546  0.443491  0.311118  -0.878872
    H   H35  0.185654  0.413698  0.299644  0.322943
    H   H36  0.067236  0.459373  0.257509  0.338830
