# Generated by REPEAT Assigner based on pymatgen
data_DB0-m29_o90_o1500_f0_pts.sym.23
_audit_creation_date              2022-05-24
_audit_creation_method            REPEAT_Assigner
_cell_length_a                    16.366667
_cell_length_b                    16.716754
_cell_length_c                    13.198992
_cell_angle_alpha                 106.432698
_cell_angle_beta                  91.685123
_cell_angle_gamma                 115.901563
_cell_volume                      3066.393435
_symmetry_space_group_name_H-M    P1
_symmetry_Int_Tables_number       1
loop_
    _symmetry_equiv_pos_site_id
    _symmetry_equiv_pos_as_xyz
    1  x,y,z
loop_
    _atom_site_type_symbol
    _atom_site_label
    _atom_site_fract_x
    _atom_site_fract_y
    _atom_site_fract_z
    _atom_type_partial_charge
    H   H1   0.379730  0.940792  0.991435  0.135616
    C   C1   0.283685  0.963663  0.083026  0.014978
    C   C2   0.206822  0.977598  0.084452  -0.163907
    H   H2   0.184777  0.996043  0.160160  0.121950
    C   C3   0.161037  0.972117  0.990899  0.085988
    C   C4   0.197276  0.959382  0.897112  -0.174948
    H   H3   0.164640  0.958998  0.824518  0.121244
    C   C5   0.276013  0.947705  0.896488  0.085482
    C   C6   0.316088  0.945617  0.988680  -0.122329
    C   C7   0.014172  0.947239  0.055460  -0.164517
    H   H4   0.022410  0.903555  0.097386  0.117257
    C   C8   0.937416  0.961663  0.061611  -0.147955
    H   H5   0.887478  0.928443  0.107555  0.138604
    C   C9   0.923302  0.014966  0.006650  0.122233
    C   C10  0.987213  0.053505  0.945510  -0.165517
    H   H6   0.978979  0.097196  0.903591  0.118280
    C   C11  0.063970  0.039084  0.939362  -0.144921
    H   H7   0.113913  0.072315  0.893428  0.140279
    C   C12  0.078090  0.985789  0.994331  0.119882
    C   C13  0.804198  0.041473  0.103951  -0.180446
    H   H8   0.836835  0.041835  0.176529  0.123171
    C   C14  0.725543  0.053295  0.104660  0.084808
    C   C15  0.685450  0.055404  0.012490  -0.122605
    H   H9   0.621803  0.060226  0.009761  0.134892
    C   C16  0.717794  0.037294  0.918107  0.016416
    C   C17  0.794600  0.023262  0.916620  -0.175649
    H   H10  0.816571  0.004745  0.840878  0.122646
    C   C18  0.840388  0.028697  0.010137  0.090963
    O   O1   0.602132  0.063152  0.189528  -0.572868
    C   C19  0.675900  0.050881  0.195699  0.533903
    O   O2   0.512218  0.841147  0.193999  -0.498343
    O   O3   0.694734  0.021269  0.270976  -0.476133
    O   O4   0.513245  0.932117  0.358166  -0.565630
    C   C20  0.514093  0.855578  0.297273  0.634971
    Fe  Fe1  0.511519  0.018054  0.282208  1.480151
    O   O5   0.387558  0.939184  0.186198  -0.625227
    O   O6   0.373087  0.072546  0.252464  -0.503658
    C   C21  0.343254  0.987992  0.182857  0.659899
    O   O7   0.538363  0.139853  0.395201  -0.649980
    O   O8   0.416916  0.041432  0.452004  -0.467884
    C   C22  0.484756  0.125955  0.467391  0.768465
    O   O9   0.462746  0.861640  0.606015  -0.638156
    O   O10  0.584954  0.959149  0.549253  -0.460396
    C   C23  0.516745  0.874893  0.534138  0.779597
    O   O11  0.614711  0.062346  0.814416  -0.636797
    O   O12  0.627216  0.927754  0.749534  -0.522079
    C   C24  0.658138  0.012830  0.818294  0.677838
    O   O13  0.306188  0.978717  0.729517  -0.474752
    O   O14  0.488635  0.069768  0.643088  -0.573585
    C   C25  0.486631  0.145675  0.704089  0.652177
    O   O15  0.400188  0.939155  0.812407  -0.574407
    C   C26  0.325759  0.950230  0.805537  0.531242
    O   O16  0.488053  0.158891  0.807090  -0.450332
    Fe  Fe2  0.490359  0.983795  0.719014  1.471622
    C   C27  0.487788  0.207963  0.549284  -0.085539
    C   C28  0.493104  0.279550  0.513006  0.050757
    H   H11  0.494524  0.270768  0.428956  0.114169
    C   C29  0.493103  0.359151  0.580489  -0.399468
    C   C30  0.488924  0.367658  0.686937  -0.010157
    H   H12  0.488720  0.429215  0.742021  0.078202
    C   C31  0.485514  0.297803  0.725500  0.274600
    C   C32  0.485273  0.216758  0.657947  -0.096920
    N   N1   0.494897  0.510183  0.602575  -0.241029
    N   N2   0.497563  0.575813  0.563607  -0.245057
    C   C33  0.501654  0.565829  0.459252  0.780238
    N   N3   0.503082  0.488255  0.394914  -0.171495
    N   N4   0.500417  0.422624  0.433790  -0.280900
    C   C34  0.496333  0.432679  0.538066  0.791830
    C   C35  0.508701  0.632496  0.310213  0.572161
    C   C36  0.512788  0.703842  0.274282  -0.321881
    H   H13  0.514121  0.694814  0.190124  0.184512
    C   C37  0.514620  0.784576  0.343290  0.090423
    C   C38  0.512543  0.792587  0.451544  -0.187586
    C   C39  0.506463  0.719872  0.486110  0.157324
    H   H14  0.505395  0.728128  0.570104  0.096666
    C   C40  0.505287  0.639927  0.417058  -0.584420
    F   F1   0.482563  0.310917  0.831184  -0.153152
    F   F2   0.507332  0.555565  0.238398  -0.244811
