# Generated by REPEAT Assigner based on pymatgen
data_DB0-m3_o7_o20_f0_nbo.sym.27
_audit_creation_date              2022-05-24
_audit_creation_method            REPEAT_Assigner
_cell_length_a                    35.519399
_cell_length_b                    35.519438
_cell_length_c                    29.068351
_cell_angle_alpha                 90.000000
_cell_angle_beta                  90.000000
_cell_angle_gamma                 90.000000
_cell_volume                      36673.476411
_symmetry_space_group_name_H-M    P1
_symmetry_Int_Tables_number       1
loop_
    _symmetry_equiv_pos_site_id
    _symmetry_equiv_pos_as_xyz
    1  x,y,z
loop_
    _atom_site_type_symbol
    _atom_site_label
    _atom_site_fract_x
    _atom_site_fract_y
    _atom_site_fract_z
    _atom_type_partial_charge
    O   O1    0.966651  0.443783  0.498750  -0.650684
    O   O2    0.444040  0.031676  0.501226  -0.671933
    O   O3    0.033329  0.556226  0.501114  -0.655117
    O   O4    0.556005  0.968366  0.498839  -0.666895
    O   O5    0.968332  0.555990  0.499078  -0.671330
    O   O6    0.443798  0.966680  0.499189  -0.655993
    O   O7    0.031642  0.444018  0.500984  -0.666538
    O   O8    0.556248  0.033357  0.501074  -0.650643
    O   O9    0.468387  0.944022  0.001117  -0.671420
    O   O10   0.943966  0.531575  0.000983  -0.670292
    O   O11   0.531706  0.055985  0.998946  -0.665685
    O   O12   0.055987  0.468360  0.998879  -0.666728
    O   O13   0.466714  0.056229  0.001169  -0.649454
    O   O14   0.943781  0.466577  0.999023  -0.654866
    O   O15   0.533384  0.943778  0.999092  -0.655298
    O   O16   0.056172  0.533353  0.001037  -0.649707
    C   C1    0.999199  0.426342  0.499863  0.465863
    C   C2    0.426362  0.999231  0.500274  0.480085
    C   C3    0.000778  0.573665  0.500104  0.477384
    C   C4    0.573685  0.000808  0.499886  0.468155
    C   C5    0.500831  0.926343  0.000142  0.478781
    C   C6    0.926316  0.499114  0.000041  0.476362
    C   C7    0.499264  0.073665  0.000015  0.465315
    C   C8    0.073637  0.500819  0.999916  0.467754
    O   O17   0.966677  0.499274  0.431259  -0.635994
    O   O18   0.500857  0.031744  0.431674  -0.657543
    O   O19   0.031714  0.500946  0.431575  -0.649553
    O   O20   0.499008  0.966711  0.431363  -0.644433
    O   O21   0.968265  0.498974  0.568387  -0.658313
    O   O22   0.499277  0.968293  0.568491  -0.649352
    O   O23   0.033299  0.500821  0.568704  -0.644847
    O   O24   0.500950  0.033330  0.568802  -0.635961
    O   O25   0.468335  0.000925  0.931668  -0.657778
    O   O26   0.000871  0.531630  0.931535  -0.658382
    O   O27   0.533368  0.999071  0.931368  -0.643823
    O   O28   0.999076  0.466595  0.931301  -0.644413
    O   O29   0.466725  0.000848  0.068796  -0.636003
    O   O30   0.999170  0.468301  0.068427  -0.649334
    O   O31   0.531762  0.999170  0.068496  -0.648780
    O   O32   0.000789  0.533339  0.068661  -0.635944
    C   C9    0.999253  0.500167  0.410066  0.768069
    C   C10   0.499929  0.999286  0.410168  0.785022
    C   C11   0.000725  0.499840  0.589896  0.787364
    C   C12   0.500117  0.000754  0.589998  0.766961
    C   C13   0.500797  0.000023  0.910167  0.785629
    C   C14   0.999998  0.499153  0.910067  0.786641
    C   C15   0.499299  0.999985  0.089997  0.767613
    C   C16   0.999955  0.500780  0.089895  0.767024
    Zn  Zn1   0.957318  0.500029  0.499992  1.317748
    Zn  Zn2   0.499999  0.042690  0.500073  1.317362
    Zn  Zn3   0.042659  0.499978  0.499973  1.317324
    Zn  Zn4   0.500048  0.957349  0.500090  1.317420
    Zn  Zn5   0.457377  0.999983  0.000063  1.317131
    Zn  Zn6   0.999916  0.542636  0.999918  1.316857
    Zn  Zn7   0.542718  0.000026  0.000099  1.315888
    Zn  Zn8   0.000038  0.457296  0.000042  1.317114
    C   C17   0.999405  0.500257  0.360725  -0.133796
    C   C18   0.499882  0.999438  0.360827  -0.137720
    C   C19   0.000575  0.499730  0.639237  -0.139037
    C   C20   0.500182  0.000602  0.639338  -0.133035
    C   C21   0.500654  0.000092  0.860827  -0.137882
    C   C22   0.000068  0.499263  0.860726  -0.138131
    C   C23   0.499442  0.999929  0.139338  -0.133620
    C   C24   0.999899  0.500669  0.139236  -0.132658
    C   C25   0.999523  0.500329  0.319278  0.026745
    C   C26   0.499828  0.999556  0.319380  0.028886
    C   C27   0.000460  0.499640  0.680684  0.029261
    C   C28   0.500250  0.000486  0.680786  0.026364
    C   C29   0.500545  0.000166  0.819380  0.028255
    C   C30   0.000142  0.499351  0.819279  0.028086
    C   C31   0.499552  0.999866  0.180785  0.026096
    C   C32   0.999835  0.500583  0.180684  0.025954
    C   C33   0.999648  0.500414  0.270707  -0.000867
    C   C34   0.499749  0.999681  0.270809  -0.002708
    C   C35   0.000337  0.499537  0.729255  -0.002088
    C   C36   0.500342  0.000361  0.729356  -0.000349
    C   C37   0.500430  0.000266  0.770809  -0.001430
    C   C38   0.000242  0.499452  0.770708  -0.000484
    C   C39   0.499666  0.999774  0.229356  0.000802
    C   C40   0.999742  0.500489  0.229255  -0.000293
    C   C41   0.000941  0.173254  0.540329  -0.205989
    C   C42   0.173429  0.998998  0.541874  -0.203297
    C   C43   0.000848  0.826576  0.541731  -0.204613
    C   C44   0.826752  0.999217  0.540183  -0.207291
    C   C45   0.999268  0.826749  0.459719  -0.206121
    C   C46   0.173300  0.000947  0.459874  -0.205169
    C   C47   0.999047  0.173427  0.458327  -0.204786
    C   C48   0.826622  0.000851  0.458173  -0.204735
    C   C49   0.501056  0.673424  0.041639  -0.205341
    C   C50   0.673403  0.500551  0.041623  -0.205469
    C   C51   0.500711  0.326757  0.040204  -0.208314
    C   C52   0.326727  0.501238  0.040195  -0.206661
    C   C53   0.499079  0.326578  0.958195  -0.205275
    C   C54   0.673231  0.498929  0.959613  -0.205309
    C   C55   0.499111  0.673267  0.959639  -0.206731
    C   C56   0.326551  0.499302  0.958195  -0.205359
    H   H1    0.001658  0.188433  0.572545  0.143117
    H   H2    0.188725  0.998206  0.574004  0.142546
    H   H3    0.001493  0.811262  0.573853  0.142336
    H   H4    0.811557  0.998604  0.572390  0.142980
    H   H5    0.998675  0.811570  0.427500  0.142352
    H   H6    0.188496  0.001687  0.427671  0.142325
    H   H7    0.998275  0.188741  0.426209  0.143511
    H   H8    0.811324  0.001518  0.426039  0.142823
    H   H9    0.501846  0.688732  0.073761  0.143013
    H   H10   0.688717  0.501157  0.073747  0.142812
    H   H11   0.501330  0.311581  0.072425  0.143212
    H   H12   0.311550  0.502025  0.072410  0.143272
    H   H13   0.498421  0.311261  0.926074  0.142830
    H   H14   0.688409  0.498264  0.927395  0.141960
    H   H15   0.498371  0.688452  0.927428  0.142811
    H   H16   0.311235  0.498568  0.926076  0.143491
    C   C57   0.000988  0.134444  0.540298  -0.152025
    C   C58   0.134619  0.999044  0.542061  -0.153944
    C   C59   0.000807  0.865385  0.541948  -0.152640
    C   C60   0.865562  0.999165  0.540183  -0.150340
    C   C61   0.999217  0.865559  0.459750  -0.150676
    C   C62   0.134490  0.000991  0.459874  -0.150859
    C   C63   0.999096  0.134617  0.458110  -0.154458
    C   C64   0.865431  0.000808  0.457986  -0.152954
    C   C65   0.501009  0.634615  0.041846  -0.151468
    C   C66   0.634594  0.500625  0.041837  -0.152998
    C   C67   0.500749  0.365567  0.040170  -0.149639
    C   C68   0.365537  0.501171  0.040166  -0.152227
    C   C69   0.499109  0.365388  0.957974  -0.153195
    C   C70   0.634421  0.498993  0.959640  -0.151099
    C   C71   0.499065  0.634457  0.959659  -0.150110
    C   C72   0.365360  0.499238  0.957979  -0.154336
    H   H17   0.001752  0.119769  0.572839  0.138284
    H   H18   0.120065  0.998278  0.574682  0.137743
    H   H19   0.001425  0.879921  0.574586  0.137756
    H   H20   0.880219  0.998504  0.572739  0.138180
    H   H21   0.998578  0.880233  0.427205  0.138338
    H   H22   0.119833  0.001777  0.427321  0.138109
    H   H23   0.998352  0.120082  0.425475  0.137543
    H   H24   0.879985  0.001448  0.425360  0.137365
    H   H25   0.501771  0.620073  0.074476  0.137043
    H   H26   0.620058  0.501296  0.074473  0.138021
    H   H27   0.501407  0.380242  0.072714  0.137948
    H   H28   0.380213  0.501918  0.072707  0.138533
    H   H29   0.498469  0.379922  0.925335  0.137679
    H   H30   0.619747  0.498373  0.927094  0.138430
    H   H31   0.498278  0.619788  0.927115  0.138061
    H   H32   0.379895  0.498442  0.925346  0.137495
    C   C73   0.000058  0.114894  0.499141  0.108139
    C   C74   0.114918  0.000033  0.501014  0.106065
    C   C75   0.999996  0.885109  0.500911  0.104368
    C   C76   0.885133  0.999970  0.499038  0.105419
    C   C77   0.500020  0.614899  0.000809  0.103958
    C   C78   0.614871  0.499843  0.000799  0.105156
    C   C79   0.499942  0.385114  0.999008  0.104791
    C   C80   0.385085  0.500171  0.999011  0.108943
    C   C81   0.999964  0.192733  0.499390  0.294466
    C   C82   0.192757  0.999944  0.500828  0.293980
    C   C83   0.000087  0.807270  0.500664  0.296187
    C   C84   0.807294  0.000064  0.499225  0.296002
    C   C85   0.500111  0.692738  0.000583  0.295564
    C   C86   0.692709  0.499705  0.000558  0.295129
    C   C87   0.499874  0.307275  0.999264  0.297900
    C   C88   0.307247  0.500302  0.999256  0.295299
    C   C89   0.999867  0.233104  0.499514  -0.190022
    C   C90   0.233128  0.999854  0.500732  -0.191121
    C   C91   0.000173  0.766899  0.500538  -0.192426
    C   C92   0.766923  0.000159  0.499325  -0.191391
    C   C93   0.500199  0.733108  0.000472  -0.190808
    C   C94   0.733080  0.499619  0.000439  -0.189291
    C   C95   0.499808  0.266904  0.999400  -0.193147
    C   C96   0.266876  0.500376  0.999383  -0.189775
    C   C97   0.999768  0.267010  0.499598  -0.074515
    C   C98   0.267034  0.999764  0.500654  -0.070601
    C   C99   0.000259  0.732993  0.500442  -0.069607
    C   C100  0.733017  0.000254  0.499416  -0.072836
    C   C101  0.500288  0.767014  0.000398  -0.072023
    C   C102  0.766986  0.499540  0.000351  -0.073196
    C   C103  0.499739  0.232998  0.999518  -0.071120
    C   C104  0.232970  0.500441  0.999487  -0.075431
    C   C105  0.017189  0.326784  0.534607  -0.067909
    C   C106  0.326772  0.980490  0.534258  -0.059221
    C   C107  0.981351  0.673134  0.534038  -0.066821
    C   C108  0.673400  0.018077  0.534499  -0.067047
    C   C109  0.019519  0.673355  0.466557  -0.060410
    C   C110  0.326793  0.018664  0.466781  -0.060272
    C   C111  0.981932  0.326733  0.464802  -0.065488
    C   C112  0.673137  0.982826  0.464690  -0.070788
    C   C113  0.519568  0.826734  0.034038  -0.061034
    C   C114  0.826728  0.480312  0.033979  -0.060984
    C   C115  0.481966  0.173375  0.034631  -0.066871
    C   C116  0.173326  0.518208  0.034554  -0.069773
    C   C117  0.517212  0.173123  0.964819  -0.070480
    C   C118  0.826743  0.518457  0.966478  -0.064960
    C   C119  0.481390  0.826792  0.966565  -0.064900
    C   C120  0.173115  0.482925  0.964769  -0.072747
    H   H33   0.030808  0.311537  0.562149  0.104231
    H   H34   0.311499  0.965824  0.560963  0.102513
    H   H35   0.966591  0.688313  0.560746  0.104723
    H   H36   0.688768  0.031583  0.562023  0.103344
    H   H37   0.034185  0.688706  0.439920  0.101866
    H   H38   0.311535  0.033428  0.440144  0.103353
    H   H39   0.968425  0.311448  0.437209  0.103426
    H   H40   0.688300  0.969211  0.437076  0.104555
    H   H41   0.534234  0.811446  0.060731  0.102357
    H   H42   0.811458  0.465651  0.060690  0.102227
    H   H43   0.468449  0.188740  0.062151  0.103374
    H   H44   0.188675  0.531747  0.062071  0.103956
    H   H45   0.530812  0.188290  0.937197  0.104431
    H   H46   0.811482  0.533203  0.939828  0.104099
    H   H47   0.466620  0.811549  0.939920  0.104390
    H   H48   0.188299  0.469318  0.937166  0.105126
    C   C121  0.017183  0.365592  0.534751  -0.236354
    C   C122  0.365579  0.980221  0.534237  -0.245582
    C   C123  0.981342  0.634326  0.534029  -0.236996
    C   C124  0.634593  0.018350  0.534696  -0.239419
    C   C125  0.019785  0.634548  0.466404  -0.242977
    C   C126  0.365601  0.018670  0.466616  -0.243082
    C   C127  0.981655  0.365539  0.464782  -0.242487
    C   C128  0.634329  0.982828  0.464724  -0.231997
    C   C129  0.519840  0.865540  0.034049  -0.243041
    C   C130  0.865535  0.480069  0.033976  -0.244219
    C   C131  0.481715  0.134569  0.034836  -0.238858
    C   C132  0.134519  0.518435  0.034742  -0.236825
    C   C133  0.517231  0.134315  0.964860  -0.231511
    C   C134  0.865551  0.518490  0.966331  -0.239308
    C   C135  0.481385  0.865601  0.966432  -0.239100
    C   C136  0.134308  0.482882  0.964793  -0.230567
    C   C137  0.999346  0.385168  0.499800  0.469360
    C   C138  0.385190  0.999378  0.500380  0.472038
    C   C139  0.000631  0.614837  0.500177  0.468369
    C   C140  0.614859  0.000661  0.499766  0.463316
    C   C141  0.500683  0.885170  0.000208  0.469137
    C   C142  0.885143  0.499225  0.000115  0.470303
    C   C143  0.499411  0.114840  0.999907  0.463826
    C   C144  0.114812  0.500708  0.999819  0.461271
    C   C145  0.999630  0.307378  0.499672  0.146048
    C   C146  0.307402  0.999642  0.500566  0.136990
    C   C147  0.000372  0.692625  0.500340  0.140005
    C   C148  0.692649  0.000384  0.499537  0.147143
    C   C149  0.500414  0.807383  0.000332  0.140725
    C   C150  0.807355  0.499435  0.000266  0.141871
    C   C151  0.499643  0.192630  0.999661  0.145607
    C   C152  0.192602  0.500524  0.999607  0.150274
    O   O33   0.055951  0.000847  0.461495  -0.701762
    O   O34   0.999212  0.944099  0.461442  -0.701872
    O   O35   0.943968  0.000824  0.459264  -0.683792
    O   O36   0.999217  0.056083  0.459316  -0.683234
    O   O37   0.056084  0.999169  0.540787  -0.683709
    O   O38   0.000849  0.055904  0.538610  -0.701707
    O   O39   0.944101  0.999164  0.538557  -0.702011
    O   O40   0.000826  0.943920  0.540736  -0.684273
    O   O41   0.555881  0.499126  0.961326  -0.701585
    O   O42   0.499110  0.443928  0.959186  -0.683498
    O   O43   0.443897  0.499224  0.959190  -0.682643
    O   O44   0.499179  0.555913  0.961330  -0.701591
    O   O45   0.556059  0.500781  0.040619  -0.684638
    O   O46   0.500855  0.556085  0.040622  -0.684252
    O   O47   0.444075  0.500896  0.038482  -0.702228
    O   O48   0.500768  0.444101  0.038479  -0.702282
    C   C153  0.073647  0.000033  0.501111  0.656479
    C   C154  0.999995  0.926379  0.501043  0.658003
    C   C155  0.926404  0.999970  0.498941  0.657071
    C   C156  0.000058  0.073623  0.499009  0.655775
    C   C157  0.573600  0.499913  0.000928  0.657557
    C   C158  0.499951  0.426385  0.998877  0.657582
    C   C159  0.426356  0.500101  0.998881  0.654821
    C   C160  0.500005  0.573629  0.000933  0.658028
    Zn  Zn9   0.000117  0.999941  0.447956  1.322661
    Zn  Zn10  0.999934  0.000062  0.552096  1.322996
    Zn  Zn11  0.500040  0.500071  0.947834  1.321537
    Zn  Zn12  0.499915  0.499942  0.051974  1.324085
    Br  Br1   0.039933  0.391339  0.585269  0.015440
    Br  Br2   0.391298  0.955178  0.583127  0.017030
    Br  Br3   0.956485  0.608449  0.582937  0.014303
    Br  Br4   0.609064  0.041269  0.585263  0.018318
    Br  Br5   0.044820  0.608971  0.417397  0.017301
    Br  Br6   0.391335  0.043526  0.417594  0.014933
    Br  Br7   0.958729  0.391220  0.414335  0.018314
    Br  Br8   0.608430  0.960078  0.414323  0.015097
    Br  Br9   0.544877  0.891229  0.082966  0.017008
    Br  Br10  0.891252  0.455078  0.082907  0.017542
    Br  Br11  0.458804  0.109028  0.085400  0.017891
    Br  Br12  0.108950  0.541353  0.085279  0.017616
    Br  Br13  0.539983  0.108425  0.914453  0.015036
    Br  Br14  0.891283  0.543356  0.917315  0.014456
    Br  Br15  0.456517  0.891363  0.917442  0.014296
    Br  Br16  0.108445  0.460086  0.914396  0.014943
