data_DB0-m29_o96_o86_f0_pts.sym.125_repeat
_audit_creation_date              2024-02-23
_audit_creation_method            'Materials Studio'
_symmetry_space_group_name_H-M    'P1'
_symmetry_Int_Tables_number       1
_symmetry_cell_setting            triclinic
loop_
_symmetry_equiv_pos_as_xyz
  x,y,z
_cell_length_a                    17.2344
_cell_length_b                    14.4873
_cell_length_c                    17.1788
_cell_angle_alpha                 90.4511
_cell_angle_beta                  91.0359
_cell_angle_gamma                 109.1718
loop_
_atom_site_label
_atom_site_type_symbol
_atom_site_fract_x
_atom_site_fract_y
_atom_site_fract_z
_atom_site_U_iso_or_equiv
_atom_site_adp_type
_atom_site_occupancy
C1     C     0.21902   0.00190   0.12026   0.00000  Uiso   1.00
C2     C     0.16378   0.97187   0.17786   0.00000  Uiso   1.00
C3     C     0.08862   0.96966   0.14791   0.00000  Uiso   1.00
N1     N     0.09556   0.99427   0.07210   0.00000  Uiso   1.00
C4     C     0.17562   0.01335   0.05483   0.00000  Uiso   1.00
C5     C     0.02093   0.95329   0.18963   0.00000  Uiso   1.00
C6     C     0.94508   0.96792   0.16090   0.00000  Uiso   1.00
C7     C     0.89133   0.99419   0.20749   0.00000  Uiso   1.00
C8     C     0.82692   0.99675   0.16177   0.00000  Uiso   1.00
C9     C     0.84267   0.97147   0.08650   0.00000  Uiso   1.00
N2     N     0.91490   0.95328   0.08716   0.00000  Uiso   1.00
C10    C     0.78873   0.96191   0.01656   0.00000  Uiso   1.00
C11    C     0.82010   0.98900   0.94573   0.00000  Uiso   1.00
C12    C     0.77750   0.00090   0.87880   0.00000  Uiso   1.00
C13    C     0.83502   0.03702   0.82366   0.00000  Uiso   1.00
C14    C     0.90986   0.04069   0.85505   0.00000  Uiso   1.00
N3     N     0.90123   0.01297   0.93023   0.00000  Uiso   1.00
C15    C     0.97850   0.05993   0.81392   0.00000  Uiso   1.00
C16    C     0.05457   0.04468   0.84113   0.00000  Uiso   1.00
C17    C     0.10956   0.02234   0.79324   0.00000  Uiso   1.00
C18    C     0.17312   0.01686   0.83872   0.00000  Uiso   1.00
C19    C     0.15541   0.03525   0.91459   0.00000  Uiso   1.00
N4     N     0.08324   0.05354   0.91519   0.00000  Uiso   1.00
C20    C     0.20658   0.03437   0.98385   0.00000  Uiso   1.00
H1     H     0.02424   0.93880   0.25095   0.00000  Uiso   1.00
H2     H     0.97584   0.07657   0.75302   0.00000  Uiso   1.00
H3     H     0.27048   0.04244   0.97520   0.00000  Uiso   1.00
H4     H     0.93977   0.92582   0.04120   0.00000  Uiso   1.00
H5     H     0.05676   0.07671   0.96221   0.00000  Uiso   1.00
C21    C     0.10671   0.00578   0.71432   0.00000  Uiso   1.00
C22    C     0.17198   0.98556   0.68126   0.00000  Uiso   1.00
C23    C     0.23893   0.98211   0.72660   0.00000  Uiso   1.00
C24    C     0.23929   0.99675   0.80706   0.00000  Uiso   1.00
C25    C     0.30158   0.01807   0.13346   0.00000  Uiso   1.00
C26    C     0.32562   0.99855   0.20714   0.00000  Uiso   1.00
C27    C     0.26793   0.96319   0.26463   0.00000  Uiso   1.00
C28    C     0.18629   0.95119   0.25089   0.00000  Uiso   1.00
C29    C     0.89590   0.01540   0.28587   0.00000  Uiso   1.00
C30    C     0.83115   0.03672   0.31884   0.00000  Uiso   1.00
C31    C     0.76361   0.03783   0.27359   0.00000  Uiso   1.00
C32    C     0.76220   0.02019   0.19363   0.00000  Uiso   1.00
C33    C     0.69511   0.98359   0.86106   0.00000  Uiso   1.00
C34    C     0.67451   0.01001   0.78842   0.00000  Uiso   1.00
C35    C     0.73450   0.05103   0.73440   0.00000  Uiso   1.00
C36    C     0.81544   0.06277   0.75098   0.00000  Uiso   1.00
H6     H     0.05564   0.00881   0.67826   0.00000  Uiso   1.00
H7     H     0.29049   0.99465   0.84339   0.00000  Uiso   1.00
H8     H     0.34639   0.04522   0.08878   0.00000  Uiso   1.00
H9     H     0.28690   0.94873   0.32226   0.00000  Uiso   1.00
H10    H     0.14276   0.92627   0.29688   0.00000  Uiso   1.00
H11    H     0.94763   0.01417   0.32176   0.00000  Uiso   1.00
H12    H     0.71056   0.02261   0.15866   0.00000  Uiso   1.00
H13    H     0.64634   0.95113   0.90064   0.00000  Uiso   1.00
H14    H     0.71808   0.07063   0.67737   0.00000  Uiso   1.00
H15    H     0.86095   0.09300   0.70754   0.00000  Uiso   1.00
H16    H     0.17053   0.97425   0.61895   0.00000  Uiso   1.00
H17    H     0.83337   0.05062   0.38085   0.00000  Uiso   1.00
O1     O     0.62364   0.04090   0.27271   0.00000  Uiso   1.00
C37    C     0.69156   0.04892   0.31246   0.00000  Uiso   1.00
O2     O     0.56055   0.85117   0.33874   0.00000  Uiso   1.00
O3     O     0.69060   0.05185   0.38880   0.00000  Uiso   1.00
O4     O     0.51180   0.92703   0.43099   0.00000  Uiso   1.00
C38    C     0.52418   0.84741   0.40563   0.00000  Uiso   1.00
Fe1    Fe    0.53053   0.01988   0.34389   0.00000  Uiso   1.00
O5     O     0.42707   0.95985   0.28044   0.00000  Uiso   1.00
O6     O     0.46727   0.10061   0.21157   0.00000  Uiso   1.00
C39    C     0.41153   0.01713   0.22836   0.00000  Uiso   1.00
O7     O     0.55492   0.15389   0.39104   0.00000  Uiso   1.00
O8     O     0.41870   0.09075   0.41732   0.00000  Uiso   1.00
C40    C     0.48846   0.16335   0.42206   0.00000  Uiso   1.00
C41    C     0.49256   0.25406   0.46356   0.00000  Uiso   1.00
C42    C     0.49494   0.25865   0.54472   0.00000  Uiso   1.00
C43    C     0.50901   0.34905   0.58201   0.00000  Uiso   1.00
C44    C     0.52976   0.36256   0.66084   0.00000  Uiso   1.00
C45    C     0.53510   0.44850   0.69821   0.00000  Uiso   1.00
C46    C     0.48013   0.32917   0.34118   0.00000  Uiso   1.00
C47    C     0.49019   0.33487   0.42158   0.00000  Uiso   1.00
C48    C     0.49377   0.42074   0.46017   0.00000  Uiso   1.00
C49    C     0.47179   0.40684   0.30073   0.00000  Uiso   1.00
C50    C     0.47518   0.49155   0.33936   0.00000  Uiso   1.00
C51    C     0.50488   0.42847   0.53987   0.00000  Uiso   1.00
C52    C     0.51070   0.51550   0.57776   0.00000  Uiso   1.00
C53    C     0.52326   0.52381   0.65725   0.00000  Uiso   1.00
C54    C     0.52617   0.60827   0.69593   0.00000  Uiso   1.00
C55    C     0.48758   0.49979   0.41886   0.00000  Uiso   1.00
C56    C     0.49351   0.58688   0.45674   0.00000  Uiso   1.00
C57    C     0.50431   0.59444   0.53647   0.00000  Uiso   1.00
C58    C     0.50758   0.68013   0.57512   0.00000  Uiso   1.00
C59    C     0.51738   0.68571   0.65554   0.00000  Uiso   1.00
C60    C     0.46404   0.56722   0.29832   0.00000  Uiso   1.00
C61    C     0.46975   0.65334   0.33564   0.00000  Uiso   1.00
C62    C     0.48990   0.66657   0.41461   0.00000  Uiso   1.00
C63    C     0.50392   0.75691   0.45206   0.00000  Uiso   1.00
C64    C     0.50528   0.76097   0.53321   0.00000  Uiso   1.00
H18    H     0.54482   0.30840   0.69495   0.00000  Uiso   1.00
H19    H     0.54922   0.45657   0.75996   0.00000  Uiso   1.00
H20    H     0.47624   0.26427   0.30795   0.00000  Uiso   1.00
H21    H     0.46217   0.40062   0.23830   0.00000  Uiso   1.00
H22    H     0.53581   0.61450   0.75837   0.00000  Uiso   1.00
H23    H     0.52088   0.75039   0.68884   0.00000  Uiso   1.00
H24    H     0.45022   0.55933   0.23651   0.00000  Uiso   1.00
H25    H     0.45530   0.70783   0.30142   0.00000  Uiso   1.00
O9     O     0.57489   0.05366   0.71552   0.00000  Uiso   1.00
O10    O     0.53215   0.91052   0.78110   0.00000  Uiso   1.00
C65    C     0.58934   0.99334   0.76548   0.00000  Uiso   1.00
O11    O     0.44328   0.86199   0.60535   0.00000  Uiso   1.00
O12    O     0.57994   0.92330   0.58054   0.00000  Uiso   1.00
C66    C     0.50966   0.85161   0.57483   0.00000  Uiso   1.00
O13    O     0.43931   0.16485   0.65843   0.00000  Uiso   1.00
O14    O     0.37841   0.97642   0.72589   0.00000  Uiso   1.00
C67    C     0.31048   0.97050   0.68698   0.00000  Uiso   1.00
O15    O     0.48904   0.08950   0.56653   0.00000  Uiso   1.00
C68    C     0.47565   0.16863   0.59153   0.00000  Uiso   1.00
O16    O     0.31073   0.96799   0.61061   0.00000  Uiso   1.00
Fe2    Fe    0.47022   0.99604   0.65322   0.00000  Uiso   1.00
N5     N     0.70289   0.93312   0.02649   0.00000  Uiso   1.00
C69    C     0.66818   0.84638   0.06125   0.00000  Uiso   1.00
O17    O     0.70487   0.78745   0.06514   0.00000  Uiso   1.00
C70    C     0.58380   0.82058   0.09299   0.00000  Uiso   1.00
H26    H     0.67570   0.98625   0.03213   0.00000  Uiso   1.00
H27    H     0.55818   0.88057   0.08342   0.00000  Uiso   1.00
H28    H     0.58639   0.80739   0.15634   0.00000  Uiso   1.00
H29    H     0.54333   0.75321   0.06340   0.00000  Uiso   1.00
