data_DB0-m3_o11_o29_f0_pcu.sym.77_repeat
_audit_creation_date              2024-02-23
_audit_creation_method            'Materials Studio'
_symmetry_space_group_name_H-M    'P1'
_symmetry_Int_Tables_number       1
_symmetry_cell_setting            triclinic
loop_
_symmetry_equiv_pos_as_xyz
  x,y,z
_cell_length_a                    27.6370
_cell_length_b                    11.1292
_cell_length_c                    9.9085
_cell_angle_alpha                 89.9974
_cell_angle_beta                  89.9930
_cell_angle_gamma                 89.9936
loop_
_atom_site_label
_atom_site_type_symbol
_atom_site_fract_x
_atom_site_fract_y
_atom_site_fract_z
_atom_site_U_iso_or_equiv
_atom_site_adp_type
_atom_site_occupancy
O1     O     0.50033   0.33368   0.60561   0.00000  Uiso   1.00
O2     O     0.50208   0.33248   0.37329   0.00000  Uiso   1.00
C1     C     0.50060   0.27696   0.48978   0.00000  Uiso   1.00
O3     O     0.42988   0.51729   0.59600   0.00000  Uiso   1.00
O4     O     0.43134   0.51488   0.36376   0.00000  Uiso   1.00
C2     C     0.40790   0.51864   0.47885   0.00000  Uiso   1.00
Zn1    Zn    0.50145   0.51311   0.63969   0.00000  Uiso   1.00
Zn2    Zn    0.50381   0.51087   0.33274   0.00000  Uiso   1.00
O5     O     0.50403   0.69137   0.59976   0.00000  Uiso   1.00
O6     O     0.50511   0.69061   0.36628   0.00000  Uiso   1.00
O7     O     0.57393   0.50817   0.60915   0.00000  Uiso   1.00
O8     O     0.57542   0.50744   0.37595   0.00000  Uiso   1.00
C3     C     0.50492   0.74690   0.48315   0.00000  Uiso   1.00
C4     C     0.59731   0.50656   0.49357   0.00000  Uiso   1.00
C5     C     0.17924   0.41041   0.48275   0.00000  Uiso   1.00
O9     O     0.20465   0.30975   0.50702   0.00000  Uiso   1.00
N1     N     0.20283   0.51426   0.45952   0.00000  Uiso   1.00
C6     C     0.17800   0.61649   0.43730   0.00000  Uiso   1.00
C7     C     0.27756   0.58464   0.56093   0.00000  Uiso   1.00
C8     C     0.32747   0.58777   0.56811   0.00000  Uiso   1.00
C9     C     0.33118   0.45671   0.37650   0.00000  Uiso   1.00
C10    C     0.28135   0.45337   0.37128   0.00000  Uiso   1.00
C11    C     0.25440   0.51719   0.46380   0.00000  Uiso   1.00
C12    C     0.10309   0.51152   0.46432   0.00000  Uiso   1.00
C13    C     0.12917   0.40795   0.48612   0.00000  Uiso   1.00
C14    C     0.10510   0.30231   0.51139   0.00000  Uiso   1.00
C15    C     0.12794   0.61620   0.43869   0.00000  Uiso   1.00
C16    C     0.35473   0.52184   0.47560   0.00000  Uiso   1.00
H1     H     0.35172   0.40525   0.30385   0.00000  Uiso   1.00
H2     H     0.26353   0.40115   0.29387   0.00000  Uiso   1.00
H3     H     0.12448   0.21901   0.52598   0.00000  Uiso   1.00
C17    C     0.65040   0.50495   0.49492   0.00000  Uiso   1.00
C18    C     0.97804   0.40680   0.51550   0.00000  Uiso   1.00
C19    C     0.97650   0.61216   0.43825   0.00000  Uiso   1.00
C20    C     0.95234   0.50918   0.47976   0.00000  Uiso   1.00
C21    C     0.95244   0.30856   0.56571   0.00000  Uiso   1.00
C22    C     0.90285   0.31016   0.57369   0.00000  Uiso   1.00
C23    C     0.87736   0.40940   0.53192   0.00000  Uiso   1.00
C24    C     0.90202   0.50857   0.48542   0.00000  Uiso   1.00
C25    C     0.87576   0.60706   0.44436   0.00000  Uiso   1.00
C26    C     0.82574   0.60485   0.44895   0.00000  Uiso   1.00
N2     N     0.80231   0.50691   0.49478   0.00000  Uiso   1.00
C27    C     0.82728   0.40994   0.53678   0.00000  Uiso   1.00
C28    C     0.72552   0.49415   0.61505   0.00000  Uiso   1.00
C29    C     0.67556   0.49471   0.61509   0.00000  Uiso   1.00
C30    C     0.67578   0.51453   0.37506   0.00000  Uiso   1.00
C31    C     0.72561   0.51510   0.37548   0.00000  Uiso   1.00
C32    C     0.75069   0.50505   0.49528   0.00000  Uiso   1.00
O10    O     0.80326   0.31223   0.57986   0.00000  Uiso   1.00
C33    C     0.02849   0.40534   0.50176   0.00000  Uiso   1.00
C34    C     0.05276   0.51058   0.46883   0.00000  Uiso   1.00
C35    C     0.02715   0.61504   0.44093   0.00000  Uiso   1.00
C36    C     0.05550   0.30070   0.51915   0.00000  Uiso   1.00
H4     H     0.65663   0.48695   0.71012   0.00000  Uiso   1.00
H5     H     0.74485   0.48704   0.70957   0.00000  Uiso   1.00
H6     H     0.88461   0.23187   0.61330   0.00000  Uiso   1.00
H7     H     0.96947   0.22892   0.60450   0.00000  Uiso   1.00
H8     H     0.03963   0.21373   0.53522   0.00000  Uiso   1.00
O11    O     0.20218   0.71880   0.41195   0.00000  Uiso   1.00
C37    C     0.10271   0.72074   0.41683   0.00000  Uiso   1.00
H9     H     0.25620   0.63458   0.63311   0.00000  Uiso   1.00
H10    H     0.12119   0.80482   0.39915   0.00000  Uiso   1.00
C38    C     0.94917   0.70973   0.39394   0.00000  Uiso   1.00
C39    C     0.89955   0.70692   0.39712   0.00000  Uiso   1.00
O12    O     0.80022   0.70156   0.40980   0.00000  Uiso   1.00
C40    C     0.05306   0.72049   0.41783   0.00000  Uiso   1.00
H11    H     0.96466   0.78971   0.35128   0.00000  Uiso   1.00
H12    H     0.65717   0.52272   0.27961   0.00000  Uiso   1.00
H13    H     0.87993   0.78466   0.36143   0.00000  Uiso   1.00
H14    H     0.74499   0.52260   0.28107   0.00000  Uiso   1.00
H15    H     0.03640   0.80691   0.40456   0.00000  Uiso   1.00
C41    C     0.50296   0.94654   0.37700   0.00000  Uiso   1.00
C42    C     0.50601   0.87842   0.48788   0.00000  Uiso   1.00
H16    H     0.50069   0.90352   0.27911   0.00000  Uiso   1.00
H17    H     0.50930   0.91738   0.58715   0.00000  Uiso   1.00
C43    C     0.50316   0.07966   0.37971   0.00000  Uiso   1.00
C44    C     0.49982   0.14529   0.49287   0.00000  Uiso   1.00
H18    H     0.50558   0.12498   0.28318   0.00000  Uiso   1.00
H19    H     0.49622   0.10456   0.59119   0.00000  Uiso   1.00
C45    C     0.52847   0.58301   0.91066   0.00000  Uiso   1.00
N3     N     0.49947   0.51700   0.84143   0.00000  Uiso   1.00
H20    H     0.55538   0.63672   0.85878   0.00000  Uiso   1.00
H21    H     0.47052   0.48020   0.89152   0.00000  Uiso   1.00
C46    C     0.52446   0.59304   0.05924   0.00000  Uiso   1.00
N4     N     0.50646   0.50791   0.13103   0.00000  Uiso   1.00
H22    H     0.53893   0.67217   0.10852   0.00000  Uiso   1.00
H23    H     0.49904   0.42857   0.08237   0.00000  Uiso   1.00
C47    C     0.34980   0.66853   0.67149   0.00000  Uiso   1.00
C48    C     0.35943   0.59989   0.79787   0.00000  Uiso   1.00
C49    C     0.37832   0.65503   0.90457   0.00000  Uiso   1.00
H24    H     0.32429   0.74249   0.69518   0.00000  Uiso   1.00
H25    H     0.38344   0.71053   0.63298   0.00000  Uiso   1.00
H26    H     0.35085   0.50495   0.80302   0.00000  Uiso   1.00
H27    H     0.38688   0.75000   0.89997   0.00000  Uiso   1.00
H28    H     0.38517   0.60495   0.99644   0.00000  Uiso   1.00
