data_DB0-m3_o11_o29_f0_pcu.sym.89_repeat
_audit_creation_date              2024-02-23
_audit_creation_method            'Materials Studio'
_symmetry_space_group_name_H-M    'P1'
_symmetry_Int_Tables_number       1
_symmetry_cell_setting            triclinic
loop_
_symmetry_equiv_pos_as_xyz
  x,y,z
_cell_length_a                    27.6306
_cell_length_b                    11.1279
_cell_length_c                    9.9012
_cell_angle_alpha                 89.9974
_cell_angle_beta                  89.9930
_cell_angle_gamma                 89.9936
loop_
_atom_site_label
_atom_site_type_symbol
_atom_site_fract_x
_atom_site_fract_y
_atom_site_fract_z
_atom_site_U_iso_or_equiv
_atom_site_adp_type
_atom_site_occupancy
O1     O     0.50026   0.32750   0.61116   0.00000  Uiso   1.00
O2     O     0.49795   0.32815   0.37858   0.00000  Uiso   1.00
C1     C     0.49847   0.27175   0.49506   0.00000  Uiso   1.00
O3     O     0.43020   0.51065   0.62302   0.00000  Uiso   1.00
O4     O     0.42738   0.51125   0.39034   0.00000  Uiso   1.00
C2     C     0.40615   0.51392   0.50877   0.00000  Uiso   1.00
Zn1    Zn    0.50279   0.50567   0.65164   0.00000  Uiso   1.00
Zn2    Zn    0.49881   0.50782   0.34451   0.00000  Uiso   1.00
O5     O     0.50426   0.68519   0.61788   0.00000  Uiso   1.00
O6     O     0.50138   0.68632   0.38440   0.00000  Uiso   1.00
O7     O     0.57423   0.50086   0.60603   0.00000  Uiso   1.00
O8     O     0.57142   0.50281   0.37289   0.00000  Uiso   1.00
C3     C     0.50321   0.74171   0.50144   0.00000  Uiso   1.00
C4     C     0.59545   0.50044   0.48738   0.00000  Uiso   1.00
C5     C     0.17723   0.39919   0.52767   0.00000  Uiso   1.00
O9     O     0.20233   0.29839   0.55376   0.00000  Uiso   1.00
N1     N     0.20107   0.50336   0.50844   0.00000  Uiso   1.00
C6     C     0.17650   0.60559   0.48380   0.00000  Uiso   1.00
C7     C     0.27666   0.57442   0.60619   0.00000  Uiso   1.00
C8     C     0.32659   0.58222   0.60612   0.00000  Uiso   1.00
C9     C     0.32866   0.44762   0.41728   0.00000  Uiso   1.00
C10    C     0.27888   0.44194   0.41728   0.00000  Uiso   1.00
C11    C     0.25269   0.50531   0.51179   0.00000  Uiso   1.00
C12    C     0.10135   0.49956   0.49794   0.00000  Uiso   1.00
C13    C     0.12716   0.39620   0.52340   0.00000  Uiso   1.00
C14    C     0.10283   0.28999   0.54322   0.00000  Uiso   1.00
C15    C     0.12648   0.60481   0.47780   0.00000  Uiso   1.00
C16    C     0.35304   0.51615   0.51183   0.00000  Uiso   1.00
H1     H     0.34857   0.39594   0.34343   0.00000  Uiso   1.00
H2     H     0.26048   0.38867   0.34178   0.00000  Uiso   1.00
H3     H     0.12207   0.20688   0.56056   0.00000  Uiso   1.00
C17    C     0.64852   0.49699   0.48316   0.00000  Uiso   1.00
C18    C     0.97561   0.39201   0.52243   0.00000  Uiso   1.00
C19    C     0.97541   0.59812   0.44746   0.00000  Uiso   1.00
C20    C     0.95056   0.49434   0.48284   0.00000  Uiso   1.00
C21    C     0.94909   0.29273   0.56591   0.00000  Uiso   1.00
C22    C     0.89942   0.29365   0.56465   0.00000  Uiso   1.00
C23    C     0.87475   0.39321   0.52003   0.00000  Uiso   1.00
C24    C     0.90021   0.49304   0.47905   0.00000  Uiso   1.00
C25    C     0.87472   0.59177   0.43485   0.00000  Uiso   1.00
C26    C     0.82464   0.58970   0.43263   0.00000  Uiso   1.00
N2     N     0.80043   0.49157   0.47473   0.00000  Uiso   1.00
C27    C     0.82466   0.39386   0.51804   0.00000  Uiso   1.00
C28    C     0.72451   0.48109   0.59811   0.00000  Uiso   1.00
C29    C     0.67466   0.48391   0.60140   0.00000  Uiso   1.00
C30    C     0.67290   0.50735   0.36165   0.00000  Uiso   1.00
C31    C     0.72283   0.50563   0.35883   0.00000  Uiso   1.00
C32    C     0.74880   0.49233   0.47703   0.00000  Uiso   1.00
O10    O     0.79989   0.29600   0.55738   0.00000  Uiso   1.00
C33    C     0.02631   0.39167   0.51922   0.00000  Uiso   1.00
C34    C     0.05102   0.49770   0.49253   0.00000  Uiso   1.00
C35    C     0.02585   0.60191   0.46053   0.00000  Uiso   1.00
C36    C     0.05317   0.28743   0.54123   0.00000  Uiso   1.00
H4     H     0.65664   0.47552   0.69778   0.00000  Uiso   1.00
H5     H     0.74451   0.47184   0.69137   0.00000  Uiso   1.00
H6     H     0.88046   0.21475   0.59992   0.00000  Uiso   1.00
H7     H     0.96530   0.21279   0.60665   0.00000  Uiso   1.00
H8     H     0.03724   0.20001   0.55338   0.00000  Uiso   1.00
O11    O     0.20093   0.70811   0.46144   0.00000  Uiso   1.00
C37    C     0.10151   0.70917   0.45250   0.00000  Uiso   1.00
H9     H     0.25602   0.62576   0.67882   0.00000  Uiso   1.00
H10    H     0.12014   0.79369   0.43908   0.00000  Uiso   1.00
C38    C     0.94897   0.69561   0.39875   0.00000  Uiso   1.00
C39    C     0.89937   0.69221   0.39278   0.00000  Uiso   1.00
O12    O     0.79986   0.68721   0.39227   0.00000  Uiso   1.00
C40    C     0.05195   0.70808   0.44400   0.00000  Uiso   1.00
H11    H     0.96530   0.77614   0.35988   0.00000  Uiso   1.00
H12    H     0.65338   0.51780   0.26782   0.00000  Uiso   1.00
H13    H     0.88045   0.77011   0.35463   0.00000  Uiso   1.00
H14    H     0.74152   0.51378   0.26334   0.00000  Uiso   1.00
H15    H     0.03536   0.79432   0.42851   0.00000  Uiso   1.00
C41    C     0.50000   0.93905   0.39141   0.00000  Uiso   1.00
C42    C     0.50419   0.87340   0.50441   0.00000  Uiso   1.00
H16    H     0.49684   0.89377   0.29495   0.00000  Uiso   1.00
H17    H     0.50854   0.91416   0.60256   0.00000  Uiso   1.00
C43    C     0.50012   0.07217   0.38877   0.00000  Uiso   1.00
C44    C     0.49753   0.14022   0.49988   0.00000  Uiso   1.00
H18    H     0.50185   0.11527   0.29075   0.00000  Uiso   1.00
H19    H     0.49473   0.10117   0.59931   0.00000  Uiso   1.00
C45    C     0.51947   0.59275   0.92586   0.00000  Uiso   1.00
N3     N     0.50629   0.50278   0.85341   0.00000  Uiso   1.00
H20    H     0.53015   0.67586   0.87731   0.00000  Uiso   1.00
H21    H     0.50216   0.42211   0.90248   0.00000  Uiso   1.00
C46    C     0.52315   0.58342   0.07452   0.00000  Uiso   1.00
N4     N     0.49611   0.51159   0.14268   0.00000  Uiso   1.00
H22    H     0.54796   0.64238   0.12738   0.00000  Uiso   1.00
H23    H     0.46887   0.46859   0.09125   0.00000  Uiso   1.00
C47    C     0.34875   0.66756   0.70134   0.00000  Uiso   1.00
H24    H     0.32852   0.69531   0.78982   0.00000  Uiso   1.00
O13    O     0.38675   0.71817   0.67520   0.00000  Uiso   1.00
