data_DB0-m29_o96_o490_f0_pts.sym.98_repeat
_audit_creation_date              2024-02-23
_audit_creation_method            'Materials Studio'
_symmetry_space_group_name_H-M    'P1'
_symmetry_Int_Tables_number       1
_symmetry_cell_setting            triclinic
loop_
_symmetry_equiv_pos_as_xyz
  x,y,z
_cell_length_a                    17.3490
_cell_length_b                    11.9818
_cell_length_c                    19.1622
_cell_angle_alpha                 88.7773
_cell_angle_beta                  90.6137
_cell_angle_gamma                 108.7220
loop_
_atom_site_label
_atom_site_type_symbol
_atom_site_fract_x
_atom_site_fract_y
_atom_site_fract_z
_atom_site_U_iso_or_equiv
_atom_site_adp_type
_atom_site_occupancy
C1     C     0.22490   0.00370   0.09983   0.00000  Uiso   1.00
C2     C     0.16932   0.96844   0.15239   0.00000  Uiso   1.00
C3     C     0.09442   0.96329   0.12546   0.00000  Uiso   1.00
N1     N     0.10110   0.98971   0.05654   0.00000  Uiso   1.00
C4     C     0.18057   0.01317   0.04003   0.00000  Uiso   1.00
C5     C     0.02670   0.94274   0.16341   0.00000  Uiso   1.00
C6     C     0.94925   0.95337   0.13723   0.00000  Uiso   1.00
C7     C     0.89229   0.97897   0.17808   0.00000  Uiso   1.00
C8     C     0.82813   0.97835   0.13648   0.00000  Uiso   1.00
C9     C     0.84725   0.95112   0.06978   0.00000  Uiso   1.00
N2     N     0.92102   0.93505   0.07128   0.00000  Uiso   1.00
C10    C     0.79614   0.94014   0.00666   0.00000  Uiso   1.00
C11    C     0.82687   0.96888   0.94271   0.00000  Uiso   1.00
C12    C     0.78291   0.98161   0.88431   0.00000  Uiso   1.00
C13    C     0.83747   0.02313   0.83205   0.00000  Uiso   1.00
C14    C     0.91289   0.02927   0.85827   0.00000  Uiso   1.00
N3     N     0.90668   0.99756   0.92654   0.00000  Uiso   1.00
C15    C     0.98052   0.05343   0.82028   0.00000  Uiso   1.00
C16    C     0.05645   0.03736   0.84595   0.00000  Uiso   1.00
C17    C     0.11090   0.00721   0.80458   0.00000  Uiso   1.00
C18    C     0.17392   0.00285   0.84571   0.00000  Uiso   1.00
C19    C     0.15655   0.02930   0.91270   0.00000  Uiso   1.00
N4     N     0.08494   0.05195   0.91207   0.00000  Uiso   1.00
C20    C     0.20864   0.03304   0.97444   0.00000  Uiso   1.00
H1     H     0.03019   0.92772   0.21891   0.00000  Uiso   1.00
H2     H     0.73132   0.91898   0.01301   0.00000  Uiso   1.00
H3     H     0.97708   0.07198   0.76512   0.00000  Uiso   1.00
H4     H     0.27086   0.04081   0.96398   0.00000  Uiso   1.00
H5     H     0.94863   0.90572   0.03076   0.00000  Uiso   1.00
H6     H     0.05892   0.08251   0.95315   0.00000  Uiso   1.00
C21    C     0.10716   0.98082   0.73513   0.00000  Uiso   1.00
C22    C     0.17086   0.95168   0.70642   0.00000  Uiso   1.00
C23    C     0.23942   0.95458   0.74718   0.00000  Uiso   1.00
C24    C     0.23968   0.97739   0.81839   0.00000  Uiso   1.00
C25    C     0.30745   0.02539   0.11409   0.00000  Uiso   1.00
C26    C     0.32925   0.00153   0.18143   0.00000  Uiso   1.00
C27    C     0.27064   0.95858   0.23260   0.00000  Uiso   1.00
C28    C     0.19026   0.94438   0.21897   0.00000  Uiso   1.00
C29    C     0.89392   0.00259   0.24788   0.00000  Uiso   1.00
C30    C     0.82706   0.02311   0.27631   0.00000  Uiso   1.00
C31    C     0.75972   0.02203   0.23551   0.00000  Uiso   1.00
C32    C     0.76087   0.00202   0.16349   0.00000  Uiso   1.00
C33    C     0.70075   0.96079   0.87385   0.00000  Uiso   1.00
C34    C     0.67613   0.98844   0.80861   0.00000  Uiso   1.00
C35    C     0.73289   0.03546   0.75622   0.00000  Uiso   1.00
C36    C     0.81429   0.05109   0.76708   0.00000  Uiso   1.00
H7     H     0.05526   0.98045   0.70338   0.00000  Uiso   1.00
H8     H     0.29106   0.97871   0.85106   0.00000  Uiso   1.00
H9     H     0.28795   0.94097   0.28498   0.00000  Uiso   1.00
H10    H     0.14619   0.91411   0.26025   0.00000  Uiso   1.00
H11    H     0.94527   0.00414   0.28065   0.00000  Uiso   1.00
H12    H     0.65658   0.92511   0.91455   0.00000  Uiso   1.00
H13    H     0.71341   0.05607   0.70520   0.00000  Uiso   1.00
H14    H     0.85733   0.08552   0.72542   0.00000  Uiso   1.00
H15    H     0.82827   0.03968   0.33155   0.00000  Uiso   1.00
O1     O     0.62377   0.04252   0.23823   0.00000  Uiso   1.00
C37    C     0.68865   0.03645   0.27204   0.00000  Uiso   1.00
O2     O     0.55310   0.79818   0.31703   0.00000  Uiso   1.00
O3     O     0.68769   0.03416   0.34052   0.00000  Uiso   1.00
O4     O     0.51323   0.91997   0.38626   0.00000  Uiso   1.00
C38    C     0.52350   0.81759   0.37657   0.00000  Uiso   1.00
Fe1    Fe    0.53232   0.02548   0.30290   0.00000  Uiso   1.00
O5     O     0.42909   0.95259   0.24924   0.00000  Uiso   1.00
O6     O     0.46886   0.12616   0.18836   0.00000  Uiso   1.00
C39    C     0.41404   0.02376   0.20212   0.00000  Uiso   1.00
O7     O     0.55873   0.19025   0.33796   0.00000  Uiso   1.00
O8     O     0.42468   0.11042   0.36006   0.00000  Uiso   1.00
C40    C     0.49256   0.19805   0.36767   0.00000  Uiso   1.00
C41    C     0.49601   0.20413   0.49246   0.00000  Uiso   1.00
C42    C     0.49393   0.25341   0.55649   0.00000  Uiso   1.00
C43    C     0.50047   0.37295   0.55879   0.00000  Uiso   1.00
C44    C     0.50710   0.43161   0.62136   0.00000  Uiso   1.00
C45    C     0.50846   0.54674   0.62262   0.00000  Uiso   1.00
C46    C     0.50043   0.26655   0.43129   0.00000  Uiso   1.00
C47    C     0.50110   0.38221   0.43285   0.00000  Uiso   1.00
C48    C     0.50220   0.43623   0.49649   0.00000  Uiso   1.00
C49    C     0.50476   0.55370   0.49773   0.00000  Uiso   1.00
C50    C     0.50593   0.60782   0.56138   0.00000  Uiso   1.00
C51    C     0.50702   0.72378   0.56285   0.00000  Uiso   1.00
C52    C     0.49814   0.44300   0.37161   0.00000  Uiso   1.00
C53    C     0.49922   0.55791   0.37287   0.00000  Uiso   1.00
C54    C     0.50628   0.61678   0.43538   0.00000  Uiso   1.00
C55    C     0.51295   0.73632   0.43756   0.00000  Uiso   1.00
C56    C     0.51149   0.78600   0.50158   0.00000  Uiso   1.00
H16    H     0.51354   0.39167   0.67085   0.00000  Uiso   1.00
H17    H     0.51242   0.58776   0.67276   0.00000  Uiso   1.00
H18    H     0.49406   0.40201   0.32147   0.00000  Uiso   1.00
H19    H     0.49230   0.59742   0.32337   0.00000  Uiso   1.00
H20    H     0.49093   0.11235   0.48828   0.00000  Uiso   1.00
H21    H     0.51659   0.87781   0.50564   0.00000  Uiso   1.00
O9     O     0.57227   0.03756   0.74736   0.00000  Uiso   1.00
O10    O     0.53769   0.86067   0.80506   0.00000  Uiso   1.00
C57    C     0.59043   0.96492   0.79159   0.00000  Uiso   1.00
O11    O     0.44762   0.79876   0.65606   0.00000  Uiso   1.00
O12    O     0.58139   0.88153   0.63375   0.00000  Uiso   1.00
C58    C     0.51425   0.79252   0.62638   0.00000  Uiso   1.00
O13    O     0.45153   0.19039   0.67635   0.00000  Uiso   1.00
O14    O     0.37709   0.94424   0.75290   0.00000  Uiso   1.00
C59    C     0.31357   0.94335   0.71465   0.00000  Uiso   1.00
O15    O     0.49276   0.06913   0.60773   0.00000  Uiso   1.00
C60    C     0.48247   0.17160   0.61730   0.00000  Uiso   1.00
O16    O     0.32107   0.94768   0.64652   0.00000  Uiso   1.00
Fe2    Fe    0.47132   0.96328   0.69100   0.00000  Uiso   1.00
N5     N     0.69519   0.00235   0.11949   0.00000  Uiso   1.00
C61    C     0.69980   0.10898   0.09197   0.00000  Uiso   1.00
O17    O     0.76400   0.18972   0.09370   0.00000  Uiso   1.00
C62    C     0.62697   0.12877   0.05873   0.00000  Uiso   1.00
H22    H     0.63817   0.94455   0.13014   0.00000  Uiso   1.00
H23    H     0.57406   0.04676   0.06044   0.00000  Uiso   1.00
H24    H     0.64087   0.15706   0.00353   0.00000  Uiso   1.00
H25    H     0.61174   0.19887   0.08681   0.00000  Uiso   1.00
N6     N     0.16534   0.92203   0.63520   0.00000  Uiso   1.00
C63    C     0.14006   0.80478   0.62420   0.00000  Uiso   1.00
O18    O     0.14416   0.73645   0.67107   0.00000  Uiso   1.00
C64    C     0.10662   0.75767   0.55483   0.00000  Uiso   1.00
H26    H     0.13821   0.96830   0.60290   0.00000  Uiso   1.00
H27    H     0.10896   0.83052   0.51739   0.00000  Uiso   1.00
H28    H     0.04260   0.70023   0.56105   0.00000  Uiso   1.00
H29    H     0.14317   0.70514   0.53401   0.00000  Uiso   1.00
N7     N     0.36891   0.07025   0.06366   0.00000  Uiso   1.00
C65    C     0.38822   0.18674   0.04906   0.00000  Uiso   1.00
O19    O     0.36553   0.24964   0.08753   0.00000  Uiso   1.00
C66    C     0.43821   0.23971   0.98654   0.00000  Uiso   1.00
H30    H     0.37586   0.01576   0.02514   0.00000  Uiso   1.00
H31    H     0.45516   0.17159   0.95796   0.00000  Uiso   1.00
H32    H     0.49442   0.30894   0.00349   0.00000  Uiso   1.00
H33    H     0.40280   0.27986   0.95138   0.00000  Uiso   1.00
