# Generated by REPEAT Assigner based on pymatgen
data_DB0-m2_o22_o29_f0_nbo.sym.39
_audit_creation_date              2022-05-24
_audit_creation_method            REPEAT_Assigner
_cell_length_a                    21.237710
_cell_length_b                    21.237710
_cell_length_c                    55.073446
_cell_angle_alpha                 90.000000
_cell_angle_beta                  90.000000
_cell_angle_gamma                 90.000000
_cell_volume                      24840.344203
_symmetry_space_group_name_H-M    P1
_symmetry_Int_Tables_number       1
loop_
    _symmetry_equiv_pos_site_id
    _symmetry_equiv_pos_as_xyz
    1  x,y,z
loop_
    _atom_site_type_symbol
    _atom_site_label
    _atom_site_fract_x
    _atom_site_fract_y
    _atom_site_fract_z
    _atom_type_partial_charge
    O   O1    0.026614  0.087623  0.016537  -0.626692
    O   O2    0.912377  0.026614  0.016537  -0.626689
    O   O3    0.973386  0.912377  0.016537  -0.626688
    O   O4    0.087622  0.973386  0.016537  -0.626683
    O   O5    0.526614  0.587623  0.516537  -0.626639
    O   O6    0.412378  0.526614  0.516537  -0.626676
    O   O7    0.473386  0.412378  0.516537  -0.626629
    O   O8    0.587623  0.473386  0.516537  -0.626661
    O   O9    0.991278  0.091157  0.976603  -0.617775
    O   O10   0.908843  0.991278  0.976603  -0.617785
    O   O11   0.008722  0.908843  0.976603  -0.617764
    O   O12   0.091157  0.008722  0.976603  -0.617770
    O   O13   0.491278  0.591157  0.476603  -0.617676
    O   O14   0.408843  0.491278  0.476603  -0.617683
    O   O15   0.508722  0.408843  0.476603  -0.617684
    O   O16   0.591157  0.508722  0.476603  -0.617679
    C   C1    0.011957  0.118946  0.996560  0.678245
    C   C2    0.881054  0.011957  0.996560  0.678313
    C   C3    0.988043  0.881054  0.996560  0.678255
    C   C4    0.118946  0.988043  0.996560  0.678209
    C   C5    0.511957  0.618946  0.496560  0.678153
    C   C6    0.381054  0.511957  0.496560  0.678217
    C   C7    0.488043  0.381054  0.496560  0.678108
    C   C8    0.618946  0.488043  0.496560  0.678200
    H   H1    0.902497  0.475942  0.879585  0.137420
    H   H2    0.524058  0.902497  0.879585  0.137399
    H   H3    0.097503  0.524058  0.879585  0.137418
    H   H4    0.475942  0.097503  0.879585  0.137447
    H   H5    0.402497  0.975942  0.379585  0.137429
    H   H6    0.024058  0.402497  0.379585  0.137403
    H   H7    0.597503  0.024058  0.379585  0.137437
    H   H8    0.975942  0.597503  0.379585  0.137447
    C   C9    0.545781  0.969464  0.161910  0.457708
    C   C10   0.030536  0.545782  0.161910  0.457748
    C   C11   0.454219  0.030536  0.161910  0.457693
    C   C12   0.969464  0.454219  0.161910  0.457642
    C   C13   0.045782  0.469464  0.661910  0.457754
    C   C14   0.530536  0.045781  0.661910  0.457725
    C   C15   0.954219  0.530536  0.661910  0.457731
    C   C16   0.469464  0.954218  0.661910  0.457687
    N   N1    0.500000  0.000000  0.149731  -0.175830
    N   N2    0.000000  0.500000  0.149731  -0.175910
    N   N3    0.000000  0.500000  0.649731  -0.175901
    N   N4    0.500000  0.000000  0.649731  -0.175863
    Cu  Cu1   0.000000  0.000000  0.020235  0.966427
    Cu  Cu2   0.500000  0.500000  0.520235  0.966283
    Cu  Cu3   0.000000  0.000000  0.972886  0.942516
    Cu  Cu4   0.500000  0.500000  0.472886  0.942759
    H   H9    0.630098  0.913413  0.189906  0.133388
    H   H10   0.086587  0.630098  0.189906  0.133386
    H   H11   0.369902  0.086587  0.189906  0.133386
    H   H12   0.913413  0.369902  0.189906  0.133391
    H   H13   0.130098  0.413413  0.689906  0.133396
    H   H14   0.586587  0.130098  0.689906  0.133395
    H   H15   0.869902  0.586587  0.689906  0.133392
    H   H16   0.413413  0.869902  0.689906  0.133399
    O   O17   0.592231  0.940827  0.149555  -0.515222
    O   O18   0.059173  0.592231  0.149555  -0.515225
    O   O19   0.407769  0.059173  0.149555  -0.515214
    O   O20   0.940827  0.407769  0.149555  -0.515195
    O   O21   0.092231  0.440827  0.649555  -0.515234
    O   O22   0.559173  0.092231  0.649555  -0.515247
    O   O23   0.907769  0.559173  0.649555  -0.515227
    O   O24   0.440827  0.907769  0.649555  -0.515224
    C   C17   0.500000  0.000000  0.199790  0.117916
    C   C18   0.000000  0.500000  0.199790  0.117879
    C   C19   0.000000  0.500000  0.699790  0.117889
    C   C20   0.500000  0.000000  0.699790  0.117867
    C   C21   0.038606  0.460783  0.838539  0.458418
    C   C22   0.539217  0.038606  0.838539  0.458414
    C   C23   0.961394  0.539217  0.838539  0.458425
    C   C24   0.460784  0.961394  0.838539  0.458377
    C   C25   0.538606  0.960784  0.338539  0.458409
    C   C26   0.039216  0.538606  0.338539  0.458439
    C   C27   0.461394  0.039217  0.338539  0.458416
    C   C28   0.960783  0.461394  0.338539  0.458413
    C   C29   0.042301  0.462256  0.762899  0.061595
    C   C30   0.537744  0.042301  0.762899  0.061636
    C   C31   0.957699  0.537744  0.762899  0.061628
    C   C32   0.462256  0.957699  0.762899  0.061620
    C   C33   0.542301  0.962256  0.262899  0.061596
    C   C34   0.037744  0.542301  0.262899  0.061631
    C   C35   0.457699  0.037744  0.262899  0.061628
    C   C36   0.962256  0.457699  0.262899  0.061621
    C   C37   0.210332  0.027938  0.018690  0.189201
    C   C38   0.972062  0.210332  0.018690  0.189224
    C   C39   0.789668  0.972062  0.018690  0.189248
    C   C40   0.027938  0.789668  0.018690  0.189224
    C   C41   0.710332  0.527939  0.518690  0.189163
    C   C42   0.472062  0.710332  0.518690  0.189180
    C   C43   0.289668  0.472062  0.518690  0.189235
    C   C44   0.527939  0.289668  0.518690  0.189672
    H   H17   0.195784  0.005957  0.036065  -0.031869
    H   H18   0.994043  0.195784  0.036065  -0.031868
    H   H19   0.804216  0.994043  0.036065  -0.031870
    H   H20   0.005957  0.804216  0.036065  -0.031874
    H   H21   0.695784  0.505957  0.536065  -0.031854
    H   H22   0.494043  0.695784  0.536065  -0.031853
    H   H23   0.304216  0.494043  0.536065  -0.031861
    H   H24   0.505957  0.304216  0.536065  -0.032057
    H   H25   0.188393  0.075080  0.017537  -0.036443
    H   H26   0.924920  0.188393  0.017537  -0.036442
    H   H27   0.811607  0.924920  0.017537  -0.036466
    H   H28   0.075080  0.811607  0.017537  -0.036446
    H   H29   0.688393  0.575080  0.517537  -0.036461
    H   H30   0.424920  0.688393  0.517537  -0.036454
    H   H31   0.311607  0.424920  0.517537  -0.036475
    H   H32   0.575080  0.311607  0.517537  -0.036558
    C   C45   0.281351  0.034390  0.018491  -0.156556
    C   C46   0.965610  0.281351  0.018491  -0.156580
    C   C47   0.718649  0.965610  0.018491  -0.156587
    C   C48   0.034390  0.718649  0.018491  -0.156591
    C   C49   0.781351  0.534390  0.518491  -0.156461
    C   C50   0.465610  0.781351  0.518491  -0.156516
    C   C51   0.218649  0.465610  0.518491  -0.156539
    C   C52   0.534390  0.218649  0.518491  -0.156762
    H   H33   0.293606  0.084121  0.014578  0.047629
    H   H34   0.915879  0.293606  0.014578  0.047634
    H   H35   0.706394  0.915879  0.014578  0.047644
    H   H36   0.084121  0.706394  0.014578  0.047633
    H   H37   0.793606  0.584121  0.514578  0.047595
    H   H38   0.415879  0.793606  0.514578  0.047622
    H   H39   0.206394  0.415879  0.514578  0.047626
    H   H40   0.584121  0.206394  0.514578  0.047651
    H   H41   0.300308  0.021269  0.036558  0.016933
    H   H42   0.978731  0.300307  0.036558  0.016930
    H   H43   0.699692  0.978731  0.036558  0.016933
    H   H44   0.021269  0.699692  0.036558  0.016945
    H   H45   0.800308  0.521269  0.536558  0.016922
    H   H46   0.478731  0.800308  0.536558  0.016926
    H   H47   0.199693  0.478731  0.536558  0.016929
    H   H48   0.521269  0.199692  0.536558  0.016989
    H   H49   0.198130  0.904538  0.019679  0.087740
    H   H50   0.095462  0.198130  0.019679  0.087738
    H   H51   0.801870  0.095462  0.019679  0.087819
    H   H52   0.904538  0.801870  0.019679  0.087764
    H   H53   0.698130  0.404538  0.519679  0.087749
    H   H54   0.595462  0.698130  0.519679  0.087750
    H   H55   0.301870  0.595462  0.519679  0.087737
    H   H56   0.404538  0.301870  0.519679  0.087760
    H   H57   0.301910  0.908468  0.021636  0.035142
    H   H58   0.091532  0.301910  0.021636  0.035141
    H   H59   0.698090  0.091532  0.021636  0.035031
    H   H60   0.908467  0.698090  0.021636  0.035033
    H   H61   0.801910  0.408468  0.521636  0.035149
    H   H62   0.591533  0.801910  0.521636  0.035143
    H   H63   0.198090  0.591532  0.521636  0.035150
    H   H64   0.408468  0.198090  0.521636  0.035157
    C   C53   0.215711  0.921476  0.001886  -0.163828
    C   C54   0.078524  0.215711  0.001886  -0.163794
    C   C55   0.784289  0.078524  0.001886  -0.164203
    C   C56   0.921476  0.784289  0.001886  -0.163904
    C   C57   0.715711  0.421476  0.501886  -0.163852
    C   C58   0.578524  0.715711  0.501886  -0.163945
    C   C59   0.284289  0.578524  0.501886  -0.163814
    C   C60   0.421476  0.284289  0.501886  -0.163886
    C   C61   0.215910  0.016351  0.974205  0.019227
    C   C62   0.983649  0.215910  0.974205  0.019266
    C   C63   0.784090  0.983649  0.974205  0.019226
    C   C64   0.016351  0.784090  0.974205  0.019247
    C   C65   0.715910  0.516351  0.474205  0.019359
    C   C66   0.483649  0.715910  0.474205  0.019298
    C   C67   0.284090  0.483649  0.474205  0.019313
    C   C68   0.516351  0.284090  0.474205  0.019219
    C   C69   0.189446  0.987501  0.997428  -0.008824
    C   C70   0.012499  0.189446  0.997428  -0.008905
    C   C71   0.810554  0.012499  0.997428  -0.008849
    C   C72   0.987501  0.810554  0.997428  -0.008867
    C   C73   0.689446  0.487501  0.497428  -0.008881
    C   C74   0.512499  0.689446  0.497428  -0.008828
    C   C75   0.310554  0.512499  0.497428  -0.008937
    C   C76   0.487501  0.310554  0.497428  -0.008787
    H   H65   0.197864  0.992985  0.957659  -0.025451
    H   H66   0.007015  0.197864  0.957659  -0.025453
    H   H67   0.802136  0.007015  0.957659  -0.025439
    H   H68   0.992985  0.802137  0.957659  -0.025451
    H   H69   0.697864  0.492985  0.457659  -0.025483
    H   H70   0.507015  0.697864  0.457659  -0.025467
    H   H71   0.302136  0.507015  0.457659  -0.025470
    H   H72   0.492985  0.302136  0.457659  -0.025449
    H   H73   0.201908  0.066305  0.973194  0.065298
    H   H74   0.933695  0.201908  0.973194  0.065286
    H   H75   0.798092  0.933695  0.973194  0.065289
    H   H76   0.066305  0.798092  0.973194  0.065293
    H   H77   0.701908  0.566305  0.473194  0.065262
    H   H78   0.433695  0.701908  0.473194  0.065297
    H   H79   0.298092  0.433695  0.473194  0.065302
    H   H80   0.566305  0.298092  0.473194  0.065293
    C   C77   0.309084  0.991616  0.999169  0.316826
    C   C78   0.008384  0.309084  0.999169  0.316897
    C   C79   0.690916  0.008384  0.999169  0.316764
    C   C80   0.991616  0.690916  0.999169  0.316828
    C   C81   0.809085  0.491616  0.499169  0.316777
    C   C82   0.508384  0.809084  0.499169  0.316805
    C   C83   0.190916  0.508384  0.499169  0.316863
    C   C84   0.491616  0.190916  0.499169  0.316809
    C   C85   0.286931  0.924449  0.003352  -0.083419
    C   C86   0.075551  0.286931  0.003352  -0.083438
    C   C87   0.713069  0.075551  0.003352  -0.082949
    C   C88   0.924449  0.713069  0.003352  -0.083147
    C   C89   0.786931  0.424449  0.503352  -0.083403
    C   C90   0.575551  0.786931  0.503352  -0.083342
    C   C91   0.213069  0.575551  0.503352  -0.083419
    C   C92   0.424449  0.213069  0.503352  -0.083422
    C   C93   0.286982  0.013277  0.974431  -0.105940
    C   C94   0.986723  0.286982  0.974431  -0.105992
    C   C95   0.713018  0.986723  0.974431  -0.105946
    C   C96   0.013277  0.713018  0.974431  -0.105987
    C   C97   0.786982  0.513277  0.474431  -0.106005
    C   C98   0.486723  0.786982  0.474431  -0.106021
    C   C99   0.213018  0.486723  0.474431  -0.106030
    C   C100  0.513277  0.213018  0.474431  -0.106001
    H   H81   0.306205  0.060644  0.970347  0.017703
    H   H82   0.939356  0.306205  0.970347  0.017712
    H   H83   0.693795  0.939356  0.970347  0.017710
    H   H84   0.060644  0.693795  0.970347  0.017719
    H   H85   0.806205  0.560644  0.470347  0.017709
    H   H86   0.439356  0.806205  0.470347  0.017712
    H   H87   0.193795  0.439356  0.470347  0.017709
    H   H88   0.560644  0.193795  0.470347  0.017716
    H   H89   0.303458  0.979759  0.960365  -0.021142
    H   H90   0.020241  0.303458  0.960365  -0.021130
    H   H91   0.696542  0.020241  0.960365  -0.021143
    H   H92   0.979759  0.696542  0.960365  -0.021144
    H   H93   0.803458  0.479759  0.460365  -0.021134
    H   H94   0.520241  0.803458  0.460365  -0.021121
    H   H95   0.196542  0.520241  0.460365  -0.021120
    H   H96   0.479759  0.196542  0.460365  -0.021126
    H   H97   0.307305  0.892529  0.989494  0.014097
    H   H98   0.107471  0.307305  0.989494  0.014095
    H   H99   0.692695  0.107471  0.989494  0.013989
    H   H100  0.892529  0.692695  0.989494  0.014026
    H   H101  0.807305  0.392529  0.489494  0.014086
    H   H102  0.607471  0.807305  0.489494  0.014065
    H   H103  0.192695  0.607471  0.489494  0.014076
    H   H104  0.392529  0.192695  0.489494  0.014086
    C   C101  0.502063  0.056177  0.086154  0.001347
    C   C102  0.943823  0.502063  0.086154  0.001295
    C   C103  0.497937  0.943823  0.086154  0.001341
    C   C104  0.056177  0.497937  0.086154  0.001331
    C   C105  0.002063  0.556177  0.586154  0.001398
    C   C106  0.443823  0.002063  0.586154  0.001387
    C   C107  0.997937  0.443823  0.586154  0.001381
    C   C108  0.556177  0.997937  0.586154  0.001405
    H   H105  0.890517  0.611518  0.810543  0.128386
    H   H106  0.388482  0.890517  0.810543  0.128391
    H   H107  0.109483  0.388482  0.810543  0.128391
    H   H108  0.611518  0.109483  0.810543  0.128385
    H   H109  0.390517  0.111518  0.310543  0.128395
    H   H110  0.888482  0.390517  0.310543  0.128401
    H   H111  0.609483  0.888482  0.310543  0.128398
    H   H112  0.111518  0.609483  0.310543  0.128399
    C   C109  0.500000  0.000000  0.073495  -0.119690
    C   C110  0.000000  0.500000  0.073495  -0.119568
    C   C111  0.000000  0.500000  0.573495  -0.119771
    C   C112  0.500000  0.000000  0.573495  -0.119787
    C   C113  0.500000  0.000000  0.123809  0.238342
    C   C114  0.000000  0.500000  0.123809  0.238590
    C   C115  0.000000  0.500000  0.623809  0.238417
    C   C116  0.500000  0.000000  0.623809  0.238406
    C   C117  0.945386  0.486955  0.889264  -0.186323
    C   C118  0.513044  0.945386  0.889264  -0.186278
    C   C119  0.054614  0.513044  0.889264  -0.186319
    C   C120  0.486955  0.054614  0.889264  -0.186407
    C   C121  0.445386  0.986956  0.389264  -0.186390
    C   C122  0.013044  0.445386  0.389264  -0.186308
    C   C123  0.554614  0.013045  0.389264  -0.186426
    C   C124  0.986955  0.554614  0.389264  -0.186444
    H   H113  0.631450  0.911859  0.232502  0.128720
    H   H114  0.088141  0.631450  0.232502  0.128714
    H   H115  0.368550  0.088142  0.232502  0.128705
    H   H116  0.911858  0.368550  0.232502  0.128707
    H   H117  0.131450  0.411858  0.732502  0.128711
    H   H118  0.588142  0.131450  0.732502  0.128707
    H   H119  0.868550  0.588141  0.732502  0.128698
    H   H120  0.411859  0.868550  0.732502  0.128701
    C   C125  0.945257  0.487213  0.914289  -0.031072
    C   C126  0.512787  0.945257  0.914289  -0.031052
    C   C127  0.054743  0.512787  0.914289  -0.031070
    C   C128  0.487213  0.054743  0.914289  -0.030989
    C   C129  0.445257  0.987213  0.414289  -0.031004
    C   C130  0.012787  0.445258  0.414289  -0.031078
    C   C131  0.554743  0.012787  0.414289  -0.030973
    C   C132  0.987213  0.554743  0.414289  -0.030999
    H   H121  0.901936  0.476657  0.923732  0.111738
    H   H122  0.523343  0.901936  0.923732  0.111727
    H   H123  0.098064  0.523343  0.923732  0.111735
    H   H124  0.476657  0.098064  0.923732  0.111720
    H   H125  0.401936  0.976657  0.423732  0.111732
    H   H126  0.023343  0.401936  0.423732  0.111742
    H   H127  0.598064  0.023343  0.423732  0.111725
    H   H128  0.976657  0.598064  0.423732  0.111735
    C   C133  0.000000  0.500000  0.926945  -0.070296
    C   C134  0.500000  0.000000  0.926945  -0.070340
    C   C135  0.500000  0.000000  0.426945  -0.070293
    C   C136  0.000000  0.500000  0.426945  -0.070258
    C   C137  0.000000  0.500000  0.876635  0.235175
    C   C138  0.500000  0.000000  0.876635  0.235141
    C   C139  0.500000  0.000000  0.376635  0.235165
    C   C140  0.000000  0.500000  0.376635  0.235189
    O   O25   0.075485  0.420571  0.850897  -0.518194
    O   O26   0.579429  0.075484  0.850897  -0.518202
    O   O27   0.924516  0.579429  0.850897  -0.518191
    O   O28   0.420571  0.924516  0.850897  -0.518196
    O   O29   0.575484  0.920571  0.350897  -0.518210
    O   O30   0.079429  0.575484  0.350897  -0.518227
    O   O31   0.424516  0.079429  0.350897  -0.518210
    O   O32   0.920571  0.424516  0.350897  -0.518208
    C   C141  0.502358  0.056099  0.111179  -0.194457
    C   C142  0.943901  0.502358  0.111179  -0.194613
    C   C143  0.497642  0.943901  0.111179  -0.194447
    C   C144  0.056099  0.497642  0.111179  -0.194597
    C   C145  0.002358  0.556099  0.611179  -0.194517
    C   C146  0.443901  0.002358  0.611179  -0.194489
    C   C147  0.997642  0.443901  0.611179  -0.194499
    C   C148  0.556099  0.997642  0.611179  -0.194508
    H   H129  0.504973  0.100306  0.120856  0.139806
    H   H130  0.899694  0.504973  0.120856  0.139842
    H   H131  0.495027  0.899694  0.120856  0.139802
    H   H132  0.100306  0.495027  0.120856  0.139834
    H   H133  0.004973  0.600306  0.620856  0.139811
    H   H134  0.399694  0.004973  0.620856  0.139806
    H   H135  0.995027  0.399694  0.620856  0.139807
    H   H136  0.600306  0.995027  0.620856  0.139809
    H   H137  0.504115  0.100724  0.076715  0.100360
    H   H138  0.899276  0.504115  0.076715  0.100377
    H   H139  0.495885  0.899276  0.076715  0.100361
    H   H140  0.100724  0.495885  0.076715  0.100375
    H   H141  0.004115  0.600724  0.576715  0.100356
    H   H142  0.399276  0.004115  0.576715  0.100355
    H   H143  0.995885  0.399276  0.576715  0.100359
    H   H144  0.600724  0.995885  0.576715  0.100354
    C   C149  0.000000  0.500000  0.775414  0.009193
    C   C150  0.500000  0.000000  0.775414  0.009187
    C   C151  0.500000  0.000000  0.275414  0.009215
    C   C152  0.000000  0.500000  0.275414  0.009211
    N   N5    0.000000  0.500000  0.850716  -0.174871
    N   N6    0.500000  0.000000  0.850716  -0.174804
    N   N7    0.500000  0.000000  0.350716  -0.174796
    N   N8    0.000000  0.500000  0.350716  -0.174843
    O   O33   0.494611  0.054083  0.035518  -0.598428
    O   O34   0.945917  0.494611  0.035518  -0.598380
    O   O35   0.505389  0.945917  0.035518  -0.598407
    O   O36   0.054083  0.505389  0.035518  -0.598434
    O   O37   0.994611  0.554083  0.535518  -0.598442
    O   O38   0.445917  0.994611  0.535518  -0.598431
    O   O39   0.005389  0.445917  0.535518  -0.598433
    O   O40   0.554083  0.005389  0.535518  -0.598440
    C   C153  0.500000  0.000000  0.046886  0.698231
    C   C154  0.000000  0.500000  0.046886  0.698153
    C   C155  0.000000  0.500000  0.546886  0.698335
    C   C156  0.500000  0.000000  0.546886  0.698339
    O   O41   0.405927  0.050324  0.000996  -0.607336
    O   O42   0.949676  0.405927  0.000996  -0.607360
    O   O43   0.594073  0.949676  0.000996  -0.607327
    O   O44   0.050324  0.594073  0.000996  -0.607356
    O   O45   0.905927  0.550324  0.500996  -0.607381
    O   O46   0.449676  0.905927  0.500996  -0.607361
    O   O47   0.094073  0.449676  0.500996  -0.607361
    O   O48   0.550324  0.094073  0.500996  -0.607348
    O   O49   0.411147  0.942018  0.001257  -0.626028
    O   O50   0.057982  0.411147  0.001257  -0.626042
    O   O51   0.588853  0.057982  0.001257  -0.625996
    O   O52   0.942018  0.588853  0.001257  -0.626013
    O   O53   0.911147  0.442018  0.501257  -0.626046
    O   O54   0.557982  0.911147  0.501257  -0.626043
    O   O55   0.088853  0.557982  0.501257  -0.626029
    O   O56   0.442018  0.088853  0.501257  -0.626019
    C   C157  0.379202  0.994746  0.999993  0.590438
    C   C158  0.005254  0.379202  0.999993  0.590422
    C   C159  0.620798  0.005254  0.999993  0.590376
    C   C160  0.994746  0.620798  0.999993  0.590407
    C   C161  0.879202  0.494746  0.499993  0.590511
    C   C162  0.505254  0.879202  0.499993  0.590488
    C   C163  0.120798  0.505254  0.499993  0.590433
    C   C164  0.494746  0.120798  0.499993  0.590457
    Cu  Cu5   0.497011  0.062684  0.000225  1.009662
    Cu  Cu6   0.937316  0.497011  0.000225  1.009565
    Cu  Cu7   0.502989  0.937316  0.000225  1.009613
    Cu  Cu8   0.062684  0.502989  0.000225  1.009610
    Cu  Cu9   0.997011  0.562684  0.500225  1.009589
    Cu  Cu10  0.437316  0.997011  0.500225  1.009633
    Cu  Cu11  0.002989  0.437316  0.500225  1.009574
    Cu  Cu12  0.562684  0.002989  0.500225  1.009634
    O   O57   0.495044  0.054003  0.964932  -0.615720
    O   O58   0.945997  0.495044  0.964932  -0.615700
    O   O59   0.504956  0.945997  0.964932  -0.615691
    O   O60   0.054003  0.504956  0.964932  -0.615722
    O   O61   0.995044  0.554003  0.464932  -0.615699
    O   O62   0.445997  0.995044  0.464932  -0.615679
    O   O63   0.004956  0.445997  0.464932  -0.615682
    O   O64   0.554003  0.004956  0.464932  -0.615689
    C   C165  0.921038  0.579124  0.801053  -0.023607
    C   C166  0.420876  0.921038  0.801053  -0.023615
    C   C167  0.078962  0.420876  0.801053  -0.023616
    C   C168  0.579124  0.078962  0.801053  -0.023598
    C   C169  0.421038  0.079124  0.301053  -0.023597
    C   C170  0.920876  0.421038  0.301053  -0.023612
    C   C171  0.578962  0.920876  0.301053  -0.023610
    C   C172  0.079124  0.578962  0.301053  -0.023598
    C   C173  0.500000  0.000000  0.953551  0.671794
    C   C174  0.000000  0.500000  0.953551  0.671785
    C   C175  0.000000  0.500000  0.453551  0.671722
    C   C176  0.500000  0.000000  0.453551  0.671711
    C   C177  0.960523  0.539214  0.813428  -0.137364
    C   C178  0.460786  0.960523  0.813428  -0.137362
    C   C179  0.039477  0.460786  0.813428  -0.137357
    C   C180  0.539214  0.039477  0.813428  -0.137385
    C   C181  0.460523  0.039214  0.313428  -0.137395
    C   C182  0.960786  0.460523  0.313428  -0.137375
    C   C183  0.539477  0.960786  0.313428  -0.137388
    C   C184  0.039214  0.539477  0.313428  -0.137382
    H   H145  0.888749  0.612567  0.767946  0.131673
    H   H146  0.387433  0.888749  0.767946  0.131663
    H   H147  0.111251  0.387433  0.767946  0.131661
    H   H148  0.612567  0.111251  0.767946  0.131672
    H   H149  0.388749  0.112567  0.267946  0.131666
    H   H150  0.887433  0.388749  0.267946  0.131662
    H   H151  0.611251  0.887433  0.267946  0.131654
    H   H152  0.112567  0.611251  0.267946  0.131665
    C   C185  0.000000  0.500000  0.800659  0.123454
    C   C186  0.500000  0.000000  0.800659  0.123457
    C   C187  0.500000  0.000000  0.300659  0.123449
    C   C188  0.000000  0.500000  0.300659  0.123441
    C   C189  0.545014  0.965536  0.237549  0.046820
    C   C190  0.034464  0.545014  0.237549  0.046776
    C   C191  0.454986  0.034464  0.237549  0.046771
    C   C192  0.965536  0.454986  0.237549  0.046765
    C   C193  0.045014  0.465536  0.737549  0.046806
    C   C194  0.534464  0.045014  0.737549  0.046773
    C   C195  0.954986  0.534464  0.737549  0.046754
    C   C196  0.465536  0.954986  0.737549  0.046767
    C   C197  0.500000  0.000000  0.225035  0.017009
    C   C198  0.000000  0.500000  0.225035  0.017038
    C   C199  0.000000  0.500000  0.725035  0.017038
    C   C200  0.500000  0.000000  0.725035  0.017063
    C   C201  0.919470  0.578461  0.776152  -0.193261
    C   C202  0.421539  0.919470  0.776152  -0.193240
    C   C203  0.080530  0.421539  0.776152  -0.193235
    C   C204  0.578461  0.080530  0.776152  -0.193267
    C   C205  0.419470  0.078461  0.276152  -0.193262
    C   C206  0.921538  0.419470  0.276152  -0.193243
    C   C207  0.580530  0.921539  0.276152  -0.193230
    C   C208  0.078461  0.580530  0.276152  -0.193261
    C   C209  0.592185  0.935633  0.224297  -0.181670
    C   C210  0.064367  0.592185  0.224297  -0.181626
    C   C211  0.407815  0.064367  0.224297  -0.181615
    C   C212  0.935633  0.407815  0.224297  -0.181608
    C   C213  0.092185  0.435633  0.724297  -0.181660
    C   C214  0.564367  0.092185  0.724297  -0.181623
    C   C215  0.907815  0.564367  0.724297  -0.181601
    C   C216  0.435633  0.907815  0.724297  -0.181608
    C   C217  0.592546  0.937307  0.199396  -0.032299
    C   C218  0.062693  0.592546  0.199396  -0.032328
    C   C219  0.407454  0.062693  0.199396  -0.032326
    C   C220  0.937307  0.407454  0.199396  -0.032353
    C   C221  0.092546  0.437307  0.699396  -0.032305
    C   C222  0.562693  0.092546  0.699396  -0.032332
    C   C223  0.907454  0.562693  0.699396  -0.032336
    C   C224  0.437307  0.907454  0.699396  -0.032346
    C   C225  0.545933  0.968597  0.187021  -0.129131
    C   C226  0.031403  0.545933  0.187021  -0.129113
    C   C227  0.454067  0.031403  0.187021  -0.129113
    C   C228  0.968597  0.454067  0.187021  -0.129045
    C   C229  0.045933  0.468597  0.687021  -0.129134
    C   C230  0.531403  0.045933  0.687021  -0.129116
    C   C231  0.954067  0.531403  0.687021  -0.129107
    C   C232  0.468597  0.954067  0.687021  -0.129099
    C   C233  0.196548  0.873771  0.983349  0.653359
    O   O65   0.171230  0.825482  0.990153  -0.520637
    O   O66   0.212873  0.880175  0.959831  -0.178234
    C   C234  0.197267  0.835171  0.943038  -0.144951
    H   H153  0.215288  0.849606  0.924981  0.110819
    H   H154  0.145341  0.830348  0.942060  0.071986
    H   H155  0.218839  0.789473  0.948132  0.087750
    C   C235  0.126229  0.196548  0.983349  0.653386
    O   O67   0.174518  0.171230  0.990153  -0.520654
    O   O68   0.119825  0.212873  0.959831  -0.178255
    C   C236  0.164829  0.197267  0.943038  -0.144937
    H   H156  0.150394  0.215288  0.924981  0.110816
    H   H157  0.169652  0.145341  0.942060  0.071983
    H   H158  0.210527  0.218839  0.948132  0.087750
    C   C237  0.803452  0.126229  0.983349  0.653493
    O   O69   0.828770  0.174518  0.990153  -0.520667
    O   O70   0.787127  0.119825  0.959831  -0.178264
    C   C238  0.802733  0.164829  0.943038  -0.144947
    H   H159  0.784712  0.150394  0.924981  0.110818
    H   H160  0.854659  0.169652  0.942060  0.071989
    H   H161  0.781161  0.210527  0.948132  0.087749
    C   C239  0.873771  0.803452  0.983349  0.653376
    O   O71   0.825482  0.828770  0.990153  -0.520639
    O   O72   0.880175  0.787127  0.959831  -0.178241
    C   C240  0.835171  0.802733  0.943038  -0.144954
    H   H162  0.849606  0.784712  0.924981  0.110818
    H   H163  0.830348  0.854659  0.942060  0.071992
    H   H164  0.789473  0.781161  0.948132  0.087752
    C   C241  0.696548  0.373771  0.483349  0.653386
    O   O73   0.671230  0.325482  0.490153  -0.520652
    O   O74   0.712873  0.380175  0.459831  -0.178238
    C   C242  0.697267  0.335171  0.443038  -0.144923
    H   H165  0.715288  0.349606  0.424981  0.110805
    H   H166  0.645341  0.330348  0.442060  0.071975
    H   H167  0.718839  0.289473  0.448132  0.087749
    C   C243  0.626229  0.696548  0.483349  0.653437
    O   O75   0.674518  0.671230  0.490153  -0.520615
    O   O76   0.619825  0.712873  0.459831  -0.178264
    C   C244  0.664829  0.697267  0.443038  -0.144903
    H   H168  0.650394  0.715288  0.424981  0.110804
    H   H169  0.669652  0.645341  0.442060  0.071963
    H   H170  0.710527  0.718839  0.448132  0.087738
    C   C245  0.303452  0.626229  0.483349  0.653437
    O   O77   0.328770  0.674518  0.490153  -0.520671
    O   O78   0.287127  0.619825  0.459831  -0.178263
    C   C246  0.302733  0.664829  0.443038  -0.144908
    H   H171  0.284712  0.650394  0.424981  0.110802
    H   H172  0.354659  0.669652  0.442060  0.071966
    H   H173  0.281161  0.710527  0.448132  0.087748
    C   C247  0.373771  0.303452  0.483349  0.653415
    O   O79   0.325482  0.328770  0.490153  -0.520655
    O   O80   0.380175  0.287127  0.459831  -0.178251
    C   C248  0.335171  0.302733  0.443038  -0.144919
    H   H174  0.349606  0.284712  0.424981  0.110805
    H   H175  0.330348  0.354659  0.442060  0.071970
    H   H176  0.289473  0.281161  0.448132  0.087748
