# Generated by REPEAT Assigner based on pymatgen
data_DB0-m3_o146_o13_f0_fsc.sym.81
_audit_creation_date              2022-05-24
_audit_creation_method            REPEAT_Assigner
_cell_length_a                    11.850579
_cell_length_b                    15.278232
_cell_length_c                    11.349339
_cell_angle_alpha                 90.000000
_cell_angle_beta                  96.027810
_cell_angle_gamma                 90.000000
_cell_volume                      2043.503513
_symmetry_space_group_name_H-M    P1
_symmetry_Int_Tables_number       1
loop_
    _symmetry_equiv_pos_site_id
    _symmetry_equiv_pos_as_xyz
    1  x,y,z
loop_
    _atom_site_type_symbol
    _atom_site_label
    _atom_site_fract_x
    _atom_site_fract_y
    _atom_site_fract_z
    _atom_type_partial_charge
    C   C1   0.278958  0.290292  0.015065  -0.115483
    C   C2   0.738364  0.687781  0.011221  -0.117877
    C   C3   0.745322  0.294090  0.016259  -0.099368
    C   C4   0.272001  0.683982  0.010027  -0.101362
    C   C5   0.067505  0.067074  0.007522  -0.001893
    C   C6   0.949818  0.910998  0.018766  -0.007436
    C   C7   0.952982  0.068309  0.022289  -0.021558
    C   C8   0.064341  0.909763  0.003997  -0.015730
    C   C9   0.144611  0.202536  0.105148  -0.198731
    C   C10  0.872714  0.775535  0.921140  -0.194915
    C   C11  0.869400  0.199890  0.920800  -0.228047
    C   C12  0.147912  0.778176  0.105480  -0.226401
    H   H1   0.098340  0.188781  0.180186  0.091341
    H   H2   0.918987  0.789290  0.846103  0.089973
    H   H3   0.907660  0.181249  0.842141  0.113697
    H   H4   0.109643  0.796811  0.184137  0.112856
    C   C13  0.269259  0.234878  0.918459  -0.016492
    C   C14  0.748059  0.743197  0.107825  -0.016755
    C   C15  0.766873  0.245360  0.118914  -0.076806
    C   C16  0.250461  0.732719  0.907376  -0.073490
    H   H5   0.320404  0.244803  0.846343  0.085639
    H   H6   0.696911  0.733274  0.179939  0.084999
    H   H7   0.726165  0.261095  0.197087  0.097111
    H   H8   0.291179  0.716989  0.829207  0.095388
    C   C17  0.217083  0.273537  0.109119  -0.072116
    C   C18  0.800241  0.704535  0.917169  -0.074387
    C   C19  0.797194  0.271099  0.917135  -0.066566
    C   C20  0.220117  0.706966  0.109146  -0.065705
    H   H9   0.224619  0.315721  0.186001  0.093520
    H   H10  0.792707  0.662349  0.840287  0.094586
    H   H11  0.781382  0.308106  0.835916  0.098700
    H   H12  0.235920  0.669953  0.190360  0.098646
    C   C21  0.134858  0.147402  0.007926  0.207486
    C   C22  0.882464  0.830671  0.018361  0.206352
    C   C23  0.888272  0.150043  0.022554  0.278218
    C   C24  0.129051  0.828030  0.003732  0.275106
    C   C25  0.198397  0.163462  0.915355  -0.188239
    C   C26  0.818923  0.814612  0.110929  -0.185711
    C   C27  0.836247  0.172829  0.121198  -0.200766
    C   C28  0.181088  0.805250  0.905092  -0.201509
    H   H13  0.193432  0.119730  0.840099  0.101892
    H   H14  0.823885  0.858346  0.186184  0.101412
    H   H15  0.849129  0.133386  0.200556  0.105388
    H   H16  0.168215  0.844698  0.825738  0.105822
    C   C29  0.121846  0.987828  0.997396  -0.188983
    C   C30  0.895478  0.990244  0.028891  -0.182985
    H   H17  0.211963  0.986627  0.989564  0.088343
    H   H18  0.805360  0.991446  0.036722  0.086598
    O   O1   0.401168  0.583983  0.117200  -0.675905
    O   O2   0.616155  0.394089  0.909086  -0.674800
    O   O3   0.613323  0.584196  0.906537  -0.676975
    O   O4   0.403999  0.393876  0.119749  -0.676725
    O   O5   0.379777  0.579806  0.912872  -0.610477
    O   O6   0.637546  0.398267  0.113414  -0.616059
    O   O7   0.634672  0.583344  0.111048  -0.588774
    O   O8   0.382650  0.394729  0.915238  -0.587409
    C   C31  0.353547  0.611431  0.013948  0.697540
    C   C32  0.663775  0.366641  0.012338  0.699727
    C   C33  0.659677  0.613885  0.009009  0.699437
    C   C34  0.357646  0.364188  0.017277  0.695248
    Zn  Zn1  0.495765  0.488012  0.880606  1.006423
    Zn  Zn2  0.521557  0.490060  0.145680  1.021008
    N   N1   0.541594  0.491196  0.301179  -0.100784
    N   N2   0.475728  0.486877  0.725107  -0.091688
    C   C35  0.361197  0.490145  0.540132  -0.383483
    C   C36  0.656125  0.487927  0.486154  -0.381032
    C   C37  0.371537  0.486394  0.662647  0.389725
    C   C38  0.645785  0.491678  0.363639  0.388336
    C   C39  0.569585  0.487061  0.667411  -0.159437
    C   C40  0.447737  0.491010  0.358875  -0.151224
    C   C41  0.560824  0.488026  0.545157  0.199236
    C   C42  0.456498  0.490046  0.481129  0.191101
    H   H19  0.364808  0.491261  0.309223  0.213862
    H   H20  0.652514  0.486810  0.717063  0.215877
    H   H21  0.278460  0.492663  0.490190  0.139435
    H   H22  0.738861  0.485409  0.536096  0.137032
    N   N3   0.744907  0.492634  0.304482  -0.478385
    C   C43  0.827062  0.555470  0.347637  0.371989
    C   C44  0.941108  0.535226  0.351239  -0.281816
    C   C45  0.022250  0.596181  0.390582  -0.080107
    C   C46  0.990197  0.677818  0.426273  -0.150317
    C   C47  0.876816  0.698829  0.421704  -0.113776
    C   C48  0.795320  0.638224  0.381979  -0.147714
    H   H23  0.779787  0.431209  0.300157  0.278083
    H   H24  0.967874  0.471633  0.322973  0.120569
    H   H25  0.111209  0.580002  0.392999  0.125060
    H   H26  0.053935  0.725555  0.456966  0.099048
    H   H27  0.851636  0.763222  0.448512  0.109868
    H   H28  0.707084  0.657168  0.377144  0.101359
    N   N4   0.272416  0.485441  0.721805  -0.473737
    C   C49  0.190256  0.422607  0.678655  0.364187
    C   C50  0.076211  0.442853  0.675066  -0.277837
    C   C51  0.995065  0.381902  0.635729  -0.079848
    C   C52  0.027111  0.300265  0.600032  -0.152303
    C   C53  0.140490  0.279251  0.604589  -0.112993
    C   C54  0.221991  0.339854  0.644307  -0.144616
    H   H29  0.237539  0.546868  0.726131  0.275427
    H   H30  0.049451  0.506447  0.703338  0.120023
    H   H31  0.906107  0.398082  0.633324  0.125328
    H   H32  0.963369  0.252529  0.569345  0.099480
    H   H33  0.165665  0.214857  0.577776  0.109292
    H   H34  0.310226  0.320908  0.649132  0.100765
