# Generated by REPEAT Assigner based on pymatgen
data_DB0-m3_o18_o1470_f0_fsc.sym.12
_audit_creation_date              2022-05-24
_audit_creation_method            REPEAT_Assigner
_cell_length_a                    14.031605
_cell_length_b                    8.648115
_cell_length_c                    10.650190
_cell_angle_alpha                 90.000000
_cell_angle_beta                  102.158980
_cell_angle_gamma                 90.000000
_cell_volume                      1263.376112
_symmetry_space_group_name_H-M    P1
_symmetry_Int_Tables_number       1
loop_
    _symmetry_equiv_pos_site_id
    _symmetry_equiv_pos_as_xyz
    1  x,y,z
loop_
    _atom_site_type_symbol
    _atom_site_label
    _atom_site_fract_x
    _atom_site_fract_y
    _atom_site_fract_z
    _atom_type_partial_charge
    C   C1   0.942611  0.000000  0.664679  -0.013992
    C   C2   0.057389  0.000000  0.335321  -0.014000
    C   C3   0.959135  0.860792  0.730180  -0.310145
    C   C4   0.040865  0.139208  0.269820  -0.310142
    C   C5   0.040865  0.860792  0.269820  -0.310132
    C   C6   0.959135  0.139208  0.730180  -0.310147
    C   C7   0.982940  0.862705  0.863425  0.114194
    C   C8   0.017060  0.137295  0.136574  0.114178
    C   C9   0.017061  0.862705  0.136574  0.114160
    C   C10  0.982939  0.137295  0.863425  0.114178
    C   C11  0.016399  0.721385  0.937187  -0.136667
    C   C12  0.983601  0.278615  0.062812  -0.136657
    C   C13  0.983602  0.721385  0.062812  -0.136632
    C   C14  0.016398  0.278615  0.937187  -0.136632
    C   C15  0.988303  0.000000  0.929492  -0.033420
    C   C16  0.011696  0.000000  0.070508  -0.033391
    H   H1   0.984120  0.620823  0.881705  0.058785
    H   H2   0.015880  0.379176  0.118295  0.058783
    H   H3   0.015882  0.620823  0.118295  0.058780
    H   H4   0.984118  0.379177  0.881705  0.058778
    H   H5   0.903076  0.718724  0.041980  0.094189
    H   H6   0.096923  0.281276  0.958020  0.094188
    H   H7   0.096925  0.718725  0.958019  0.094197
    H   H8   0.903075  0.281274  0.041980  0.094192
    H   H9   0.930158  0.000000  0.561020  0.100716
    H   H10  0.069842  0.000000  0.438980  0.100715
    O   O1   0.059899  0.667767  0.663931  -0.709363
    O   O2   0.940101  0.332233  0.336069  -0.709375
    O   O3   0.940102  0.667767  0.336069  -0.709377
    O   O4   0.059898  0.332233  0.663931  -0.709373
    O   O5   0.894562  0.662402  0.576452  -0.783322
    O   O6   0.105438  0.337598  0.423548  -0.783329
    O   O7   0.105438  0.662402  0.423548  -0.783336
    O   O8   0.894562  0.337598  0.576452  -0.783327
    C   C17  0.970798  0.719527  0.656881  0.979594
    C   C18  0.029202  0.280472  0.343119  0.979607
    C   C19  0.029202  0.719527  0.343119  0.979611
    C   C20  0.970797  0.280473  0.656881  0.979605
    Zn  Zn1  0.893310  0.500000  0.440007  1.019868
    Zn  Zn2  0.106689  0.500000  0.559993  1.019878
    N   N1   0.767924  0.500000  0.368848  0.074860
    N   N2   0.232075  0.499999  0.631151  0.074847
    C   C21  0.621367  0.500001  0.209656  -0.242728
    C   C22  0.378633  0.499998  0.790344  -0.242728
    C   C23  0.721217  0.500001  0.242602  -0.066711
    C   C24  0.278783  0.499999  0.757398  -0.066713
    C   C25  0.712743  0.500000  0.459501  -0.100951
    C   C26  0.287257  0.500000  0.540498  -0.100952
    C   C27  0.610404  0.500000  0.428268  -0.019353
    C   C28  0.389596  0.500000  0.571731  -0.019350
    C   C29  0.566147  0.500001  0.300649  0.300590
    C   C30  0.433853  0.499999  0.699351  0.300589
    C   C31  0.551095  0.500000  0.519944  0.067767
    C   C32  0.448905  0.500000  0.480056  0.067762
    C   C33  0.408462  0.500001  0.349264  -0.102403
    C   C34  0.591538  0.499998  0.650735  -0.102402
    C   C35  0.466768  0.500002  0.261492  -0.288522
    C   C36  0.533232  0.499998  0.738507  -0.288524
    H   H11  0.433347  0.500002  0.160300  0.179416
    H   H12  0.566653  0.499997  0.839700  0.179413
    H   H13  0.248893  0.500000  0.442745  0.192103
    H   H14  0.751107  0.500000  0.557255  0.192090
    H   H15  0.585827  0.500002  0.109205  0.131873
    H   H16  0.414173  0.499998  0.890795  0.131873
    H   H17  0.331714  0.500002  0.309195  0.134467
    H   H18  0.668286  0.499998  0.690805  0.134472
    C   C37  0.231798  0.499998  0.870499  0.709557
    F   F1   0.132636  0.500000  0.837641  -0.164639
    F   F2   0.262390  0.629806  0.943624  -0.246518
    F   F3   0.262389  0.370188  0.943622  -0.246511
    C   C38  0.768202  0.500001  0.129501  0.709535
    F   F4   0.867364  0.500000  0.162359  -0.164626
    F   F5   0.737611  0.629811  0.056378  -0.246509
    F   F6   0.737610  0.370193  0.056376  -0.246512
