# Generated by REPEAT Assigner based on pymatgen
data_DB0-m23_o17_o19_f0_pcu
_audit_creation_date              2022-05-24
_audit_creation_method            REPEAT_Assigner
_cell_length_a                    7.575317
_cell_length_b                    14.246615
_cell_length_c                    16.427010
_cell_angle_alpha                 75.334093
_cell_angle_beta                  91.170709
_cell_angle_gamma                 90.848542
_cell_volume                      1714.640982
_symmetry_space_group_name_H-M    P1
_symmetry_Int_Tables_number       1
loop_
    _symmetry_equiv_pos_site_id
    _symmetry_equiv_pos_as_xyz
    1  x,y,z
loop_
    _atom_site_type_symbol
    _atom_site_label
    _atom_site_fract_x
    _atom_site_fract_y
    _atom_site_fract_z
    _atom_type_partial_charge
    C   C1   0.001243  0.787740  0.260790  0.581795
    C   C2   0.998756  0.212260  0.739210  0.581656
    O   O1   0.004474  0.777299  0.184100  -0.603330
    O   O2   0.995526  0.222701  0.815899  -0.603289
    O   O3   0.995529  0.875099  0.272449  -0.614527
    O   O4   0.004470  0.124901  0.727551  -0.614511
    C   C3   0.999726  0.143871  0.073387  0.670948
    C   C4   0.000273  0.856129  0.926613  0.670952
    O   O5   0.991981  0.094566  0.152119  -0.622771
    O   O6   0.008018  0.905434  0.847881  -0.622781
    O   O7   0.000528  0.097514  0.013915  -0.778374
    O   O8   0.999471  0.902487  0.986084  -0.778362
    Cd  Cd1  0.997577  0.941414  0.119761  1.406854
    Cd  Cd2  0.002422  0.058587  0.880239  1.406844
    N   N1   0.748040  0.058454  0.880400  -0.355300
    N   N2   0.251959  0.941546  0.119600  -0.355324
    C   C5   0.595119  0.059426  0.881093  0.308214
    C   C6   0.404881  0.940574  0.118907  0.308228
    C   C7   0.408180  0.060731  0.881992  0.291098
    C   C8   0.591819  0.939269  0.118008  0.291094
    N   N3   0.255257  0.061709  0.882649  -0.339279
    N   N4   0.744743  0.938291  0.117351  -0.339307
    C   C9   0.061336  0.701796  0.891879  -0.275395
    C   C10  0.938663  0.298204  0.108121  -0.275405
    C   C11  0.997940  0.750247  0.947867  0.009794
    C   C12  0.002059  0.249754  0.052133  0.009812
    C   C13  0.932058  0.698508  0.023857  -0.223910
    C   C14  0.067941  0.301492  0.976143  -0.223935
    C   C15  0.931907  0.598455  0.044549  0.183739
    C   C16  0.068092  0.401546  0.955451  0.183733
    C   C17  0.999110  0.550033  0.989444  -0.022884
    C   C18  0.000889  0.449968  0.010556  -0.022884
    C   C19  0.063821  0.601697  0.913081  0.197208
    C   C20  0.936178  0.398303  0.086918  0.197222
    C   C21  0.864774  0.546809  0.120375  -0.207381
    C   C22  0.135225  0.453191  0.879624  -0.207380
    C   C23  0.867694  0.446781  0.141746  -0.211828
    C   C24  0.132305  0.553219  0.858254  -0.211812
    H   H1   0.112582  0.742338  0.832164  0.157610
    H   H2   0.887417  0.257663  0.167836  0.157615
    H   H3   0.877212  0.736509  0.066369  0.122612
    H   H4   0.122787  0.263491  0.933630  0.122617
    H   H5   0.809807  0.584682  0.163113  0.137639
    H   H6   0.190192  0.415318  0.836887  0.137645
    H   H7   0.815712  0.406449  0.201368  0.131870
    H   H8   0.184287  0.593552  0.798631  0.131863
    C   C25  0.980115  0.388504  0.681248  -0.302731
    C   C26  0.019885  0.611497  0.318751  -0.302637
    C   C27  0.997260  0.297423  0.667750  0.054613
    C   C28  0.002740  0.702577  0.332249  0.054476
    C   C29  0.014138  0.287275  0.586991  -0.258467
    C   C30  0.985862  0.712726  0.413009  -0.258476
    C   C31  0.015409  0.368344  0.519876  0.212307
    C   C32  0.984590  0.631656  0.480123  0.212278
    C   C33  0.999187  0.459464  0.533519  -0.039629
    C   C34  0.000813  0.540536  0.466481  -0.039559
    C   C35  0.981250  0.469514  0.614215  0.229515
    C   C36  0.018749  0.530486  0.385785  0.229446
    C   C37  0.033456  0.358376  0.439121  -0.221897
    C   C38  0.966543  0.641625  0.560879  -0.221823
    C   C39  0.035195  0.439422  0.372108  -0.225226
    C   C40  0.964805  0.560579  0.627892  -0.225307
    H   H9   0.965271  0.396312  0.744461  0.160841
    H   H10  0.034728  0.603688  0.255539  0.160819
    H   H11  0.027520  0.215880  0.576394  0.151466
    H   H12  0.972480  0.784121  0.423606  0.151462
    H   H13  0.046329  0.287069  0.428273  0.145225
    H   H14  0.953671  0.712931  0.571726  0.145221
    H   H15  0.049266  0.431472  0.308848  0.149687
    H   H16  0.950733  0.568528  0.691152  0.149704
