# Generated by REPEAT Assigner based on pymatgen
data_DB0-m2_o1_o14_f0_nbo.sym.147
_audit_creation_date              2022-05-24
_audit_creation_method            REPEAT_Assigner
_cell_length_a                    18.792287
_cell_length_b                    18.672513
_cell_length_c                    18.742723
_cell_angle_alpha                 109.259974
_cell_angle_beta                  109.526726
_cell_angle_gamma                 109.601769
_cell_volume                      5064.364552
_symmetry_space_group_name_H-M    P1
_symmetry_Int_Tables_number       1
loop_
    _symmetry_equiv_pos_site_id
    _symmetry_equiv_pos_as_xyz
    1  x,y,z
loop_
    _atom_site_type_symbol
    _atom_site_label
    _atom_site_fract_x
    _atom_site_fract_y
    _atom_site_fract_z
    _atom_type_partial_charge
    O   O1   0.097505  0.156996  0.569866  -0.605793
    O   O2   0.086659  0.048600  0.455127  -0.580287
    C   C1   0.120972  0.131323  0.512012  0.658880
    O   O3   0.090367  0.066770  0.659503  -0.608982
    O   O4   0.097877  0.967535  0.553768  -0.610736
    C   C2   0.124688  0.019160  0.635647  0.820390
    Cu  Cu1  0.004319  0.077759  0.576797  0.963453
    Cu  Cu2  0.002611  0.952124  0.454808  0.947961
    O   O5   0.915701  0.981419  0.572310  -0.539328
    O   O6   0.913706  0.872682  0.466097  -0.562768
    O   O7   0.913290  0.066814  0.477534  -0.566334
    O   O8   0.912330  0.958613  0.371807  -0.531514
    C   C3   0.884805  0.898600  0.518821  0.540971
    C   C4   0.882278  0.010754  0.395592  0.571016
    H   H1   0.123028  0.996966  0.767106  0.117011
    C   C5   0.290423  0.059639  0.644667  -0.276211
    H   H2   0.248703  0.073769  0.602859  0.154982
    C   C6   0.365339  0.070454  0.642069  -0.054228
    H   H3   0.378211  0.090404  0.597693  0.083467
    C   C7   0.421699  0.053594  0.693429  0.020934
    C   C8   0.404466  0.030161  0.750954  -0.297620
    H   H4   0.447602  0.014453  0.788387  0.139680
    C   C9   0.333101  0.027006  0.760120  0.169894
    C   C10  0.272290  0.035504  0.701863  0.221296
    C   C11  0.195454  0.022471  0.703138  -0.254017
    C   C12  0.182673  0.007132  0.765991  -0.095478
    H   H5   0.234278  0.992932  0.876642  0.095605
    C   C13  0.244802  0.003159  0.826704  -0.055589
    C   C14  0.320432  0.013696  0.825128  -0.128743
    C   C15  0.188777  0.187828  0.435570  -0.135750
    H   H6   0.137206  0.129576  0.374160  0.116748
    C   C16  0.252122  0.253184  0.436428  -0.065926
    H   H7   0.250073  0.244708  0.375740  0.111801
    C   C17  0.318973  0.327576  0.514537  -0.087931
    C   C18  0.321121  0.336953  0.591522  -0.067223
    H   H8   0.372693  0.395062  0.653043  0.112727
    C   C19  0.255576  0.273595  0.590202  -0.135161
    H   H9   0.257455  0.282424  0.650900  0.117524
    C   C20  0.189641  0.198464  0.512378  0.047521
    C   C21  0.739095  0.929593  0.256728  -0.017542
    C   C22  0.675561  0.932476  0.195513  -0.099670
    H   H10  0.617329  0.872614  0.141318  0.101980
    C   C23  0.685625  0.011373  0.202279  -0.061722
    C   C24  0.758869  0.088553  0.271375  -0.113445
    H   H11  0.767155  0.150782  0.277332  0.119478
    C   C25  0.820655  0.086811  0.334904  -0.121564
    H   H12  0.877506  0.147829  0.389342  0.113862
    C   C26  0.812177  0.008043  0.327834  0.058565
    C   C27  0.825238  0.762238  0.522099  -0.061428
    H   H13  0.881655  0.757988  0.523686  0.098278
    C   C28  0.764230  0.699141  0.525528  -0.180387
    H   H14  0.772808  0.645401  0.527870  0.107901
    C   C29  0.691562  0.703323  0.522803  0.157083
    C   C30  0.681540  0.771995  0.518762  -0.104398
    H   H15  0.623598  0.773824  0.514705  0.075252
    C   C31  0.743417  0.836904  0.517529  -0.094439
    C   C32  0.816054  0.831659  0.518904  0.056719
    O   O9   0.450280  0.871580  0.927321  -0.521704
    O   O10  0.556347  0.979611  0.927827  -0.552898
    C   C33  0.502225  0.896748  0.897346  0.572412
    O   O11  0.361137  0.961875  0.924694  -0.556827
    O   O12  0.469162  0.071920  0.929552  -0.540536
    C   C34  0.386892  0.015182  0.895788  0.645002
    Cu  Cu3  0.440576  0.952961  0.015709  0.943990
    Cu  Cu4  0.565440  0.077620  0.018683  0.925090
    O   O13  0.452663  0.051035  0.109318  -0.598666
    O   O14  0.552545  0.158788  0.103823  -0.560272
    O   O15  0.536840  0.955548  0.101726  -0.594238
    O   O16  0.644553  0.071265  0.112252  -0.605058
    C   C35  0.502187  0.133666  0.135204  0.665178
    C   C36  0.619037  0.012886  0.135668  0.733031
    O   O17  0.438881  0.586522  0.558460  -0.575225
    O   O18  0.574576  0.618764  0.658224  -0.541097
    C   C37  0.508512  0.633750  0.637473  0.641503
    O   O19  0.365942  0.410010  0.448941  -0.619885
    O   O20  0.466716  0.441675  0.584294  -0.624053
    C   C38  0.387147  0.396275  0.515921  0.782550
    Cu  Cu5  0.445801  0.517190  0.459622  0.935522
    Cu  Cu6  0.564710  0.513124  0.577281  0.944990
    O   O21  0.471834  0.447727  0.379348  -0.537278
    O   O22  0.536560  0.408501  0.477750  -0.585462
    O   O23  0.544309  0.623638  0.488772  -0.589696
    O   O24  0.644094  0.585257  0.551844  -0.593271
    C   C39  0.506038  0.400931  0.399347  0.638045
    C   C40  0.623557  0.634153  0.521220  0.625128
    C   C41  0.581181  0.841679  0.835457  -0.041287
    H   H16  0.640107  0.901430  0.888892  0.083196
    C   C42  0.586115  0.779996  0.774501  -0.103988
    C   C43  0.509707  0.703397  0.705252  -0.041213
    C   C44  0.430599  0.691858  0.698427  -0.054763
    H   H17  0.371116  0.633728  0.643674  0.099932
    C   C45  0.425800  0.754090  0.758885  -0.105042
    C   C46  0.502180  0.829511  0.828808  0.014442
    C   C47  0.516807  0.278920  0.201593  -0.094584
    H   H18  0.528548  0.288073  0.151805  0.098496
    C   C48  0.518252  0.345098  0.264439  -0.023879
    C   C49  0.506367  0.334154  0.330548  -0.017389
    C   C50  0.491576  0.256336  0.330489  -0.104579
    H   H19  0.480913  0.246082  0.380358  0.122971
    C   C51  0.487375  0.189718  0.265655  -0.122154
    H   H20  0.475572  0.129478  0.266889  0.120679
    C   C52  0.501346  0.201452  0.201735  -0.016848
    C   C53  0.724872  0.843314  0.245822  0.050102
    C   C54  0.681897  0.768389  0.166251  -0.107297
    C   C55  0.682273  0.704162  0.184859  -0.261443
    C   C56  0.724904  0.743938  0.274241  0.008721
    O   O25  0.750673  0.828583  0.311812  -0.001752
    H   H21  0.654766  0.761399  0.102000  0.128739
    H   H22  0.655174  0.636034  0.138930  0.163006
    H   H23  0.737027  0.710807  0.310574  0.086123
    C   C57  0.726156  0.905302  0.507616  0.123265
    C   C58  0.680130  0.936471  0.539385  -0.146401
    C   C59  0.674130  0.993591  0.511293  -0.237850
    C   C60  0.716567  0.993434  0.464337  -0.097234
    O   O26  0.748078  0.939506  0.461426  0.037110
    H   H24  0.653908  0.919818  0.578564  0.145708
    H   H25  0.641883  0.030778  0.522553  0.164376
    H   H26  0.723151  0.032097  0.432458  0.133801
    C   C61  0.672237  0.801425  0.782989  0.228699
    C   C62  0.747929  0.843155  0.861283  -0.203883
    C   C63  0.812429  0.854797  0.841236  -0.191155
    C   C64  0.771936  0.820183  0.752350  -0.081369
    O   O27  0.686488  0.787954  0.716380  -0.055273
    H   H27  0.755168  0.862527  0.925510  0.139914
    H   H28  0.881352  0.885362  0.885946  0.153520
    H   H29  0.805543  0.819644  0.715491  0.105249
    C   C65  0.339279  0.741353  0.743052  0.169885
    C   C66  0.266761  0.661353  0.706374  -0.159859
    C   C67  0.200755  0.678251  0.699990  -0.220641
    C   C68  0.237196  0.767109  0.732500  -0.077788
    O   O28  0.321512  0.805974  0.758497  -0.035118
    H   H30  0.262525  0.598088  0.687133  0.137962
    H   H31  0.133494  0.631496  0.674457  0.157649
    H   H32  0.201688  0.802015  0.736414  0.128755
    C   C69  0.536089  0.425911  0.260015  0.154411
    C   C70  0.504046  0.427496  0.183307  -0.166152
    C   C71  0.536793  0.513491  0.207055  -0.203682
    C   C72  0.586992  0.558499  0.296370  -0.029639
    O   O29  0.587365  0.505623  0.329182  -0.065316
    H   H33  0.460844  0.372303  0.117691  0.137164
    H   H34  0.525525  0.540864  0.164575  0.147274
    H   H35  0.622249  0.629038  0.335883  0.096399
    C   C73  0.501265  0.065618  0.689149  0.251565
    C   C74  0.555987  0.037562  0.724144  -0.270967
    C   C75  0.621602  0.065258  0.706903  -0.127388
    C   C76  0.602760  0.108263  0.662897  -0.044890
    O   O30  0.529478  0.108519  0.651587  -0.123788
    H   H36  0.549656  0.000769  0.757856  0.168295
    H   H37  0.677235  0.055634  0.724354  0.120648
    H   H38  0.642976  0.139245  0.640304  0.113507
