data_DB0-m3_o25_o115_f0_fsc.sym.42_repeat
_audit_creation_date              2024-02-23
_audit_creation_method            'Materials Studio'
_symmetry_space_group_name_H-M    'P1'
_symmetry_Int_Tables_number       1
_symmetry_cell_setting            triclinic
loop_
_symmetry_equiv_pos_as_xyz
  x,y,z
_cell_length_a                    14.2168
_cell_length_b                    16.5372
_cell_length_c                    16.6972
_cell_angle_alpha                 90.0682
_cell_angle_beta                  98.7877
_cell_angle_gamma                 90.6950
loop_
_atom_site_label
_atom_site_type_symbol
_atom_site_fract_x
_atom_site_fract_y
_atom_site_fract_z
_atom_site_U_iso_or_equiv
_atom_site_adp_type
_atom_site_occupancy
H1     H     0.06688   0.92924   0.72403   0.00000  Uiso   1.00
H2     H     0.92009   0.07040   0.28231   0.00000  Uiso   1.00
C1     C     0.96957   0.25620   0.96152   0.00000  Uiso   1.00
C2     C     0.97171   0.74102   0.02868   0.00000  Uiso   1.00
C3     C     0.97118   0.25381   0.04391   0.00000  Uiso   1.00
C4     C     0.97502   0.74342   0.94691   0.00000  Uiso   1.00
C5     C     0.97484   0.17313   0.06537   0.00000  Uiso   1.00
C6     C     0.97827   0.82420   0.92638   0.00000  Uiso   1.00
N1     N     0.97675   0.12628   0.99954   0.00000  Uiso   1.00
N2     N     0.97608   0.87111   0.99206   0.00000  Uiso   1.00
C7     C     0.97448   0.17694   0.93616   0.00000  Uiso   1.00
C8     C     0.97230   0.82048   0.05467   0.00000  Uiso   1.00
C9     C     0.97442   0.14602   0.14088   0.00000  Uiso   1.00
C10    C     0.98637   0.85162   0.85233   0.00000  Uiso   1.00
C11    C     0.96641   0.05969   0.16210   0.00000  Uiso   1.00
C12    C     0.99690   0.93820   0.83324   0.00000  Uiso   1.00
C13    C     0.93834   0.03377   0.23343   0.00000  Uiso   1.00
C14    C     0.03751   0.96524   0.76805   0.00000  Uiso   1.00
C15    C     0.93603   0.95069   0.23069   0.00000  Uiso   1.00
C16    C     0.03551   0.04833   0.77009   0.00000  Uiso   1.00
C17    C     0.96250   0.92846   0.15758   0.00000  Uiso   1.00
C18    C     0.99342   0.06925   0.83629   0.00000  Uiso   1.00
N3     N     0.98287   0.99526   0.11672   0.00000  Uiso   1.00
N4     N     0.96864   0.00186   0.87404   0.00000  Uiso   1.00
C19    C     0.96827   0.84330   0.13117   0.00000  Uiso   1.00
C20    C     0.97997   0.15396   0.86000   0.00000  Uiso   1.00
H3     H     0.96574   0.31076   0.92567   0.00000  Uiso   1.00
H4     H     0.96818   0.68642   0.06370   0.00000  Uiso   1.00
H5     H     0.96823   0.30612   0.08230   0.00000  Uiso   1.00
H6     H     0.97596   0.69109   0.90818   0.00000  Uiso   1.00
H7     H     0.91620   0.91193   0.27753   0.00000  Uiso   1.00
H8     H     0.06338   0.08849   0.72813   0.00000  Uiso   1.00
H9     H     0.01210   0.99688   0.06349   0.00000  Uiso   1.00
H10    H     0.92971   0.99956   0.92192   0.00000  Uiso   1.00
C21    C     0.07666   0.76028   0.77505   0.00000  Uiso   1.00
C22    C     0.89132   0.23531   0.22522   0.00000  Uiso   1.00
H11    H     0.14181   0.77947   0.81270   0.00000  Uiso   1.00
H12    H     0.82403   0.21406   0.19256   0.00000  Uiso   1.00
C23    C     0.07933   0.70293   0.71517   0.00000  Uiso   1.00
C24    C     0.89303   0.29258   0.28558   0.00000  Uiso   1.00
C25    C     0.99587   0.67705   0.66796   0.00000  Uiso   1.00
C26    C     0.97902   0.32080   0.32690   0.00000  Uiso   1.00
C27    C     0.91030   0.71021   0.68041   0.00000  Uiso   1.00
C28    C     0.06306   0.29040   0.30770   0.00000  Uiso   1.00
H13    H     0.84392   0.69153   0.64437   0.00000  Uiso   1.00
H14    H     0.13121   0.31129   0.33897   0.00000  Uiso   1.00
C29    C     0.90805   0.76790   0.73958   0.00000  Uiso   1.00
C30    C     0.06102   0.23287   0.24766   0.00000  Uiso   1.00
H15    H     0.84083   0.79300   0.74925   0.00000  Uiso   1.00
H16    H     0.12691   0.20967   0.23260   0.00000  Uiso   1.00
C31    C     0.99088   0.79264   0.78743   0.00000  Uiso   1.00
C32    C     0.97534   0.20553   0.20607   0.00000  Uiso   1.00
C33    C     0.91210   0.22287   0.73433   0.00000  Uiso   1.00
C34    C     0.89072   0.75577   0.22283   0.00000  Uiso   1.00
H17    H     0.85083   0.18289   0.73014   0.00000  Uiso   1.00
H18    H     0.82297   0.78257   0.19995   0.00000  Uiso   1.00
C35    C     0.91684   0.28074   0.67592   0.00000  Uiso   1.00
C36    C     0.89653   0.69853   0.28319   0.00000  Uiso   1.00
H19    H     0.85882   0.28436   0.62611   0.00000  Uiso   1.00
H20    H     0.83220   0.68217   0.30665   0.00000  Uiso   1.00
C37    C     0.99489   0.33231   0.67989   0.00000  Uiso   1.00
C38    C     0.98278   0.66369   0.31393   0.00000  Uiso   1.00
C39    C     0.06922   0.32571   0.74483   0.00000  Uiso   1.00
C40    C     0.06445   0.68613   0.28080   0.00000  Uiso   1.00
C41    C     0.06374   0.26635   0.80270   0.00000  Uiso   1.00
C42    C     0.05729   0.74553   0.22170   0.00000  Uiso   1.00
H21    H     0.12036   0.25772   0.85280   0.00000  Uiso   1.00
H22    H     0.11830   0.76688   0.19617   0.00000  Uiso   1.00
C43    C     0.98496   0.21614   0.79818   0.00000  Uiso   1.00
C44    C     0.97149   0.78035   0.19323   0.00000  Uiso   1.00
H23    H     0.14694   0.67766   0.70688   0.00000  Uiso   1.00
H24    H     0.82635   0.31547   0.29916   0.00000  Uiso   1.00
O1     O     0.91356   0.58404   0.57287   0.00000  Uiso   1.00
O2     O     0.06416   0.41319   0.42261   0.00000  Uiso   1.00
O3     O     0.07708   0.58777   0.58788   0.00000  Uiso   1.00
O4     O     0.90060   0.40915   0.40825   0.00000  Uiso   1.00
C45    C     0.99603   0.61348   0.60650   0.00000  Uiso   1.00
C46    C     0.98133   0.38368   0.38926   0.00000  Uiso   1.00
O5     O     0.07555   0.41976   0.59646   0.00000  Uiso   1.00
O6     O     0.90246   0.57709   0.39891   0.00000  Uiso   1.00
O7     O     0.91177   0.41618   0.57651   0.00000  Uiso   1.00
O8     O     0.06573   0.58096   0.41960   0.00000  Uiso   1.00
C47    C     0.99450   0.39283   0.61506   0.00000  Uiso   1.00
C48    C     0.98387   0.60430   0.38045   0.00000  Uiso   1.00
Zn1    Zn    0.09467   0.49904   0.50873   0.00000  Uiso   1.00
Zn2    Zn    0.88307   0.49806   0.48705   0.00000  Uiso   1.00
C49    C     0.49859   0.53261   0.42760   0.00000  Uiso   1.00
C50    C     0.47905   0.46490   0.56770   0.00000  Uiso   1.00
C51    C     0.43855   0.45764   0.43782   0.00000  Uiso   1.00
C52    C     0.53908   0.53987   0.55748   0.00000  Uiso   1.00
H25    H     0.39413   0.42341   0.38846   0.00000  Uiso   1.00
H26    H     0.58348   0.57412   0.60684   0.00000  Uiso   1.00
H27    H     0.50908   0.56054   0.36922   0.00000  Uiso   1.00
H28    H     0.46852   0.43698   0.62607   0.00000  Uiso   1.00
H29    H     0.54550   0.36068   0.49923   0.00000  Uiso   1.00
H30    H     0.43208   0.63682   0.49604   0.00000  Uiso   1.00
N5     N     0.21950   0.49971   0.51878   0.00000  Uiso   1.00
N6     N     0.75824   0.49757   0.47685   0.00000  Uiso   1.00
C53    C     0.45917   0.57420   0.49650   0.00000  Uiso   1.00
C54    C     0.51845   0.42331   0.49880   0.00000  Uiso   1.00
C55    C     0.40095   0.49923   0.50659   0.00000  Uiso   1.00
C56    C     0.57668   0.49828   0.48872   0.00000  Uiso   1.00
C57    C     0.30001   0.49958   0.51480   0.00000  Uiso   1.00
C58    C     0.67768   0.49781   0.48066   0.00000  Uiso   1.00
C59    C     0.15272   0.38336   0.75518   0.00000  Uiso   1.00
O9     O     0.20740   0.37537   0.83144   0.00000  Uiso   1.00
H31    H     0.12682   0.44640   0.74941   0.00000  Uiso   1.00
H32    H     0.19854   0.37127   0.70850   0.00000  Uiso   1.00
H33    H     0.19415   0.42478   0.86113   0.00000  Uiso   1.00
C60    C     0.15948   0.64706   0.30581   0.00000  Uiso   1.00
O10    O     0.22500   0.67117   0.25611   0.00000  Uiso   1.00
H34    H     0.15095   0.58042   0.30037   0.00000  Uiso   1.00
H35    H     0.18852   0.66413   0.36910   0.00000  Uiso   1.00
H36    H     0.24000   0.62083   0.22876   0.00000  Uiso   1.00
