# Generated by REPEAT Assigner based on pymatgen
data_DB0-m15_o22_o89_f0_fsc
_audit_creation_date              2022-05-24
_audit_creation_method            REPEAT_Assigner
_cell_length_a                    6.617862
_cell_length_b                    9.009565
_cell_length_c                    13.323812
_cell_angle_alpha                 79.438179
_cell_angle_beta                  100.624216
_cell_angle_gamma                 90.072244
_cell_volume                      767.137571
_symmetry_space_group_name_H-M    P1
_symmetry_Int_Tables_number       1
loop_
    _symmetry_equiv_pos_site_id
    _symmetry_equiv_pos_as_xyz
    1  x,y,z
loop_
    _atom_site_type_symbol
    _atom_site_label
    _atom_site_fract_x
    _atom_site_fract_y
    _atom_site_fract_z
    _atom_type_partial_charge
    Co  Co1  0.994331  0.851676  0.002416  0.715514
    Co  Co2  0.005050  0.148400  0.998103  0.711390
    O   O1   0.816381  0.850900  0.110390  -0.606374
    O   O2   0.170695  0.895666  0.894126  -0.580592
    O   O3   0.744574  0.905763  0.888237  -0.681153
    O   O4   0.243963  0.840461  0.117079  -0.652259
    O   O5   0.182678  0.149129  0.890019  -0.592611
    O   O6   0.829000  0.104468  0.106543  -0.584706
    O   O7   0.755204  0.159617  0.883545  -0.652897
    O   O8   0.255011  0.094299  0.112164  -0.669492
    C   C1   0.765756  0.971843  0.143633  0.698308
    C   C2   0.233677  0.028246  0.856911  0.686000
    C   C3   0.670082  0.043357  0.848062  0.885476
    C   C4   0.329314  0.956705  0.152447  0.873054
    C   C5   0.801541  0.412684  0.004283  0.056084
    H   H1   0.775801  0.379184  0.085170  0.004695
    H   H2   0.683465  0.362323  0.951186  0.017785
    C   C6   0.786341  0.583158  0.973329  -0.047680
    H   H3   0.733497  0.615624  0.888081  0.015626
    H   H4   0.676678  0.629597  0.014278  0.034585
    H   H5   0.138842  0.313351  0.157661  0.037303
    H   H6   0.965426  0.540027  0.153728  0.008216
    C   C7   0.144846  0.398311  0.086698  -0.029069
    C   C8   0.060063  0.448869  0.906272  -0.092712
    N   N1   0.005557  0.359093  0.998551  0.327536
    H   H7   0.196268  0.396716  0.886997  0.060482
    H   H8   0.928058  0.456127  0.840626  0.021299
    N   N2   0.988680  0.641208  0.001755  0.437745
    C   C9   0.080452  0.552636  0.102093  -0.100473
    C   C10  0.109096  0.605640  0.927760  -0.148613
    H   H9   0.071983  0.689380  0.854240  0.070361
    H   H10  0.275010  0.609013  0.961259  0.049694
    H   H11  0.303580  0.401570  0.070714  0.016638
    H   H12  0.216815  0.609649  0.137349  0.048743
    C   C11  0.567529  0.092183  0.657513  -0.019938
    H   H13  0.726691  0.111138  0.651839  0.115973
    C   C12  0.423502  0.086960  0.568700  -0.330746
    H   H14  0.468967  0.107598  0.493617  0.160683
    C   C13  0.224336  0.048228  0.576519  0.377702
    C   C14  0.165912  0.030789  0.671683  -0.101094
    H   H15  0.008615  0.005060  0.677928  0.064611
    C   C15  0.306737  0.045076  0.759433  -0.051276
    C   C16  0.510705  0.066935  0.753853  -0.180831
    N   N3   0.082314  0.023674  0.488430  -0.208067
    N   N4   0.917006  0.976359  0.512113  -0.205965
    C   C17  0.575830  0.913060  0.431823  -0.342131
    H   H16  0.530343  0.892402  0.506902  0.163808
    C   C18  0.431825  0.907847  0.342999  -0.015964
    H   H17  0.272659  0.888881  0.348662  0.113425
    C   C19  0.488672  0.933131  0.246664  -0.147836
    C   C20  0.692650  0.954971  0.241102  -0.086136
    C   C21  0.833445  0.969265  0.328861  -0.096179
    H   H18  0.990744  0.995006  0.322629  0.068875
    C   C22  0.774997  0.951808  0.424019  0.383184
