# Generated by REPEAT Assigner based on pymatgen
data_DB0-m3_o23_o23_f0_pcu.sym.45
_audit_creation_date              2022-05-24
_audit_creation_method            REPEAT_Assigner
_cell_length_a                    22.648245
_cell_length_b                    22.614110
_cell_length_c                    14.784519
_cell_angle_alpha                 90.000000
_cell_angle_beta                  90.000000
_cell_angle_gamma                 90.000000
_cell_volume                      7572.185775
_symmetry_space_group_name_H-M    P1
_symmetry_Int_Tables_number       1
loop_
    _symmetry_equiv_pos_site_id
    _symmetry_equiv_pos_as_xyz
    1  x,y,z
loop_
    _atom_site_type_symbol
    _atom_site_label
    _atom_site_fract_x
    _atom_site_fract_y
    _atom_site_fract_z
    _atom_type_partial_charge
    O   O1    0.039632  0.438139  0.578985  -0.663805
    O   O2    0.039630  0.437352  0.422739  -0.666599
    O   O3    0.039630  0.562648  0.577261  -0.666593
    O   O4    0.039632  0.561861  0.421015  -0.663808
    O   O5    0.539632  0.938139  0.578985  -0.663811
    O   O6    0.539630  0.937352  0.422739  -0.666599
    O   O7    0.539630  0.062648  0.577261  -0.666592
    O   O8    0.539632  0.061861  0.421015  -0.663811
    C   C1    0.059049  0.418334  0.501064  0.849839
    C   C2    0.059049  0.581666  0.498936  0.849815
    C   C3    0.559049  0.918334  0.501064  0.849842
    C   C4    0.559049  0.081666  0.498936  0.849809
    O   O9    0.915202  0.438199  0.579016  -0.659917
    O   O10   0.915187  0.437393  0.422734  -0.652862
    O   O11   0.915187  0.562607  0.577266  -0.652862
    O   O12   0.915202  0.561801  0.420984  -0.659920
    O   O13   0.415202  0.938199  0.579016  -0.659924
    O   O14   0.415187  0.937393  0.422734  -0.652864
    O   O15   0.415187  0.062607  0.577266  -0.652862
    O   O16   0.415202  0.061801  0.420984  -0.659925
    C   C5    0.895783  0.418414  0.501132  0.813409
    C   C6    0.895783  0.581586  0.498868  0.813425
    C   C7    0.395783  0.918414  0.501132  0.813415
    C   C8    0.395783  0.081586  0.498868  0.813427
    Zn  Zn1   0.977437  0.500553  0.602939  1.071978
    Zn  Zn2   0.977437  0.499447  0.397061  1.071983
    Zn  Zn3   0.477437  0.000553  0.602939  1.071986
    Zn  Zn4   0.477437  0.999447  0.397061  1.071991
    C   C9    0.783287  0.241692  0.568033  0.020036
    C   C10   0.761989  0.264363  0.406350  0.063915
    C   C11   0.761989  0.735637  0.593650  0.063854
    C   C12   0.783287  0.758308  0.431967  0.019961
    C   C13   0.283287  0.741692  0.568033  0.019834
    C   C14   0.261989  0.764363  0.406350  0.063867
    C   C15   0.261989  0.235638  0.593650  0.063854
    C   C16   0.283287  0.258308  0.431967  0.019942
    C   C17   0.214958  0.715441  0.405307  -0.094379
    C   C18   0.236146  0.692904  0.565947  -0.046218
    C   C19   0.236146  0.307096  0.434053  -0.046244
    C   C20   0.214958  0.284559  0.594693  -0.094284
    C   C21   0.714958  0.215441  0.405307  -0.094437
    C   C22   0.736146  0.192904  0.565947  -0.046391
    C   C23   0.736146  0.807096  0.434053  -0.046253
    C   C24   0.714958  0.784559  0.594693  -0.094276
    H   H1    0.258373  0.655089  0.532924  0.037175
    H   H2    0.240429  0.674038  0.397358  0.040077
    H   H3    0.240429  0.325962  0.602642  0.040092
    H   H4    0.258373  0.344911  0.467076  0.037190
    H   H5    0.758373  0.155089  0.532924  0.037192
    H   H6    0.740429  0.174038  0.397358  0.040087
    H   H7    0.740429  0.825962  0.602642  0.040088
    H   H8    0.758373  0.844911  0.467076  0.037189
    H   H9    0.823123  0.220482  0.539327  0.004437
    H   H10   0.804097  0.240692  0.394981  -0.000410
    H   H11   0.804097  0.759308  0.605019  -0.000392
    H   H12   0.823123  0.779518  0.460673  0.004451
    H   H13   0.323123  0.720482  0.539327  0.004466
    H   H14   0.304097  0.740692  0.394981  -0.000403
    H   H15   0.304097  0.259308  0.605019  -0.000390
    H   H16   0.323123  0.279518  0.460673  0.004454
    C   C25   0.103492  0.626909  0.498679  -0.249147
    C   C26   0.103492  0.373091  0.501322  -0.249218
    C   C27   0.603492  0.126909  0.498679  -0.249135
    C   C28   0.603492  0.873091  0.501322  -0.249218
    C   C29   0.766638  0.291201  0.501573  0.286895
    C   C30   0.766638  0.708799  0.498427  0.286878
    C   C31   0.266638  0.791201  0.501573  0.287043
    C   C32   0.266638  0.208799  0.498427  0.286883
    C   C33   0.186141  0.711337  0.500179  0.294828
    C   C34   0.186141  0.288663  0.499821  0.294449
    C   C35   0.686141  0.211337  0.500179  0.294969
    C   C36   0.686141  0.788663  0.499821  0.294448
    C   C37   0.160712  0.771889  0.527978  -0.129233
    C   C38   0.160712  0.228111  0.472022  -0.129001
    C   C39   0.660712  0.271889  0.527978  -0.129335
    C   C40   0.660712  0.728111  0.472022  -0.128996
    C   C41   0.708376  0.318768  0.528630  0.140475
    C   C42   0.708376  0.681232  0.471370  0.140747
    C   C43   0.208376  0.818768  0.528630  0.140379
    C   C44   0.208376  0.181232  0.471370  0.140764
    C   C45   0.140707  0.665049  0.499164  -0.170658
    C   C46   0.140707  0.334951  0.500836  -0.170486
    C   C47   0.640707  0.165049  0.499164  -0.170686
    C   C48   0.640707  0.834951  0.500836  -0.170486
    C   C49   0.812679  0.336594  0.501959  -0.278433
    C   C50   0.812679  0.663406  0.498041  -0.278420
    C   C51   0.312679  0.836594  0.501959  -0.278450
    C   C52   0.312679  0.163406  0.498041  -0.278420
    C   C53   0.850636  0.373931  0.501730  -0.173910
    C   C54   0.850636  0.626069  0.498270  -0.173928
    C   C55   0.350636  0.873931  0.501730  -0.173910
    C   C56   0.350636  0.126069  0.498270  -0.173927
    H   H17   0.711299  0.339945  0.595519  -0.034407
    H   H18   0.696524  0.355640  0.483542  -0.036477
    H   H19   0.696523  0.644360  0.516458  -0.036562
    H   H20   0.711298  0.660055  0.404481  -0.034515
    H   H21   0.211298  0.839945  0.595519  -0.034380
    H   H22   0.196524  0.855640  0.483542  -0.036468
    H   H23   0.196524  0.144360  0.516458  -0.036567
    H   H24   0.211298  0.160055  0.404481  -0.034519
    H   H25   0.140788  0.770681  0.595853  0.016535
    H   H26   0.125702  0.786771  0.481637  0.014330
    H   H27   0.125702  0.213229  0.518363  0.014315
    H   H28   0.140788  0.229319  0.404147  0.016418
    H   H29   0.640788  0.270681  0.595853  0.016555
    H   H30   0.625702  0.286771  0.481637  0.014346
    H   H31   0.625702  0.713229  0.518363  0.014316
    H   H32   0.640788  0.729319  0.404147  0.016417
    C   C57   0.011812  0.446737  0.049959  -0.124802
    C   C58   0.005573  0.444146  0.948145  -0.163348
    C   C59   0.005573  0.555854  0.051855  -0.163357
    C   C60   0.011813  0.553263  0.950041  -0.124784
    C   C61   0.511812  0.946737  0.049959  -0.124795
    C   C62   0.505573  0.944146  0.948145  -0.163354
    C   C63   0.505573  0.055854  0.051855  -0.163358
    C   C64   0.511813  0.053263  0.950041  -0.124796
    H   H33   0.049779  0.438714  0.916964  0.055838
    H   H34   0.058963  0.451953  0.068280  0.054727
    H   H35   0.058963  0.548047  0.931720  0.054724
    H   H36   0.049779  0.561286  0.083036  0.055837
    H   H37   0.549779  0.938714  0.916964  0.055838
    H   H38   0.558963  0.951953  0.068280  0.054724
    H   H39   0.558963  0.048047  0.931720  0.054730
    H   H40   0.549779  0.061286  0.083036  0.055837
    H   H41   0.977359  0.593918  0.070845  0.061251
    H   H42   0.994654  0.594743  0.919874  0.049548
    H   H43   0.994654  0.405257  0.080126  0.049555
    H   H44   0.977359  0.406082  0.929155  0.061248
    H   H45   0.477359  0.093918  0.070845  0.061251
    H   H46   0.494654  0.094743  0.919874  0.049550
    H   H47   0.494654  0.905257  0.080126  0.049553
    H   H48   0.477359  0.906082  0.929155  0.061248
    N   N1    0.977281  0.501359  0.738089  -0.083049
    N   N2    0.977281  0.498641  0.261911  -0.083044
    N   N3    0.477281  0.001359  0.738089  -0.083045
    N   N4    0.477281  0.998641  0.261911  -0.083042
    C   C65   0.977219  0.499193  0.085074  0.524029
    C   C66   0.977219  0.500807  0.914926  0.524020
    C   C67   0.477219  0.999193  0.085074  0.524036
    C   C68   0.477219  0.000807  0.914926  0.524033
    C   C69   0.914331  0.504414  0.949300  -0.200658
    C   C70   0.914331  0.495586  0.050700  -0.200661
    C   C71   0.414331  0.004414  0.949300  -0.200660
    C   C72   0.414331  0.995586  0.050700  -0.200668
    C   C73   0.977224  0.501282  0.816248  -0.131225
    C   C74   0.977224  0.498718  0.183752  -0.131228
    C   C75   0.477224  0.001282  0.816248  -0.131233
    C   C76   0.477224  0.998718  0.183752  -0.131233
    H   H49   0.895715  0.451511  0.066989  0.075494
    H   H50   0.887002  0.469739  0.916852  0.085454
    H   H51   0.887002  0.530261  0.083148  0.085451
    H   H52   0.895715  0.548489  0.933011  0.075494
    H   H53   0.395715  0.951511  0.066989  0.075496
    H   H54   0.387002  0.969739  0.916852  0.085456
    H   H55   0.387002  0.030261  0.083148  0.085452
    H   H56   0.395715  0.048489  0.933011  0.075495
    C   C77   0.758747  0.310098  0.331298  0.031108
    C   C78   0.809061  0.320032  0.280003  -0.043713
    C   C79   0.808876  0.360676  0.210482  -0.351534
    C   C80   0.758346  0.391767  0.190264  0.389956
    C   C81   0.758626  0.435317  0.114756  -0.358686
    C   C82   0.707884  0.382127  0.240104  -0.410757
    C   C83   0.708030  0.341852  0.310064  0.039806
    H   H57   0.849561  0.296494  0.294067  0.078747
    H   H58   0.848610  0.367982  0.171546  0.145519
    H   H59   0.771710  0.412811  0.051194  0.078551
    H   H60   0.790650  0.470987  0.130119  0.084767
    H   H61   0.714165  0.454999  0.106040  0.094389
    H   H62   0.667711  0.405867  0.224675  0.155564
    H   H63   0.667222  0.334763  0.345853  0.067891
    C   C84   0.802012  0.263677  0.660755  0.024228
    C   C85   0.861701  0.262844  0.681731  0.015021
    C   C86   0.881524  0.280953  0.765462  -0.437205
    C   C87   0.842022  0.299971  0.830062  0.432259
    C   C88   0.862766  0.318728  0.921215  -0.402596
    C   C89   0.782691  0.301076  0.810292  -0.405660
    C   C90   0.762724  0.283182  0.726594  0.008629
    H   H64   0.893914  0.248157  0.632705  0.072640
    H   H65   0.928267  0.279824  0.779954  0.177457
    H   H66   0.911420  0.314536  0.926134  0.082856
    H   H67   0.841941  0.290390  0.973466  0.097533
    H   H68   0.849992  0.365400  0.933103  0.113279
    H   H69   0.751434  0.315484  0.860960  0.154607
    H   H70   0.715759  0.283078  0.715182  0.077439
    C   C91   0.802012  0.736323  0.339245  0.024229
    C   C92   0.861701  0.737156  0.318269  0.015042
    C   C93   0.881524  0.719047  0.234538  -0.437233
    C   C94   0.842022  0.700029  0.169938  0.432276
    C   C95   0.862766  0.681272  0.078785  -0.402598
    C   C96   0.782691  0.698924  0.189708  -0.405672
    C   C97   0.762724  0.716818  0.273406  0.008624
    H   H71   0.893914  0.751843  0.367295  0.072638
    H   H72   0.928267  0.720176  0.220046  0.177466
    H   H73   0.911420  0.685464  0.073866  0.082855
    H   H74   0.841941  0.709610  0.026534  0.097531
    H   H75   0.849992  0.634601  0.066897  0.113283
    H   H76   0.751434  0.684516  0.139040  0.154605
    H   H77   0.715759  0.716922  0.284818  0.077468
    C   C98   0.758747  0.689902  0.668702  0.031025
    C   C99   0.809061  0.679968  0.719997  -0.043651
    C   C100  0.808876  0.639324  0.789518  -0.351567
    C   C101  0.758346  0.608233  0.809736  0.389974
    C   C102  0.758626  0.564683  0.885244  -0.358692
    C   C103  0.707884  0.617873  0.759896  -0.410784
    C   C104  0.708030  0.658148  0.689936  0.039880
    H   H78   0.849561  0.703506  0.705933  0.078740
    H   H79   0.848610  0.632018  0.828454  0.145523
    H   H80   0.771710  0.587189  0.948806  0.078556
    H   H81   0.790650  0.529013  0.869881  0.084767
    H   H82   0.714165  0.545001  0.893960  0.094389
    H   H83   0.667711  0.594133  0.775325  0.155571
    H   H84   0.667222  0.665237  0.654147  0.067849
    C   C105  0.258747  0.810098  0.331298  0.031096
    C   C106  0.309061  0.820032  0.280003  -0.043705
    C   C107  0.308876  0.860676  0.210482  -0.351539
    C   C108  0.258346  0.891767  0.190264  0.389965
    C   C109  0.258626  0.935317  0.114756  -0.358696
    C   C110  0.207884  0.882127  0.240104  -0.410755
    C   C111  0.208030  0.841852  0.310064  0.039804
    H   H85   0.349561  0.796494  0.294067  0.078745
    H   H86   0.348610  0.867982  0.171546  0.145520
    H   H87   0.271710  0.912811  0.051194  0.078555
    H   H88   0.290650  0.970987  0.130120  0.084769
    H   H89   0.214165  0.954999  0.106040  0.094391
    H   H90   0.167711  0.905867  0.224675  0.155563
    H   H91   0.167222  0.834763  0.345853  0.067893
    C   C112  0.302011  0.763677  0.660755  0.024283
    C   C113  0.361701  0.762844  0.681731  0.015025
    C   C114  0.381524  0.780953  0.765462  -0.437191
    C   C115  0.342022  0.799971  0.830062  0.432248
    C   C116  0.362766  0.818728  0.921215  -0.402598
    C   C117  0.282691  0.801076  0.810292  -0.405601
    C   C118  0.262724  0.783182  0.726594  0.008538
    H   H92   0.393914  0.748157  0.632705  0.072639
    H   H93   0.428267  0.779824  0.779954  0.177448
    H   H94   0.411420  0.814536  0.926134  0.082860
    H   H95   0.341941  0.790390  0.973466  0.097533
    H   H96   0.349992  0.865400  0.933103  0.113274
    H   H97   0.251434  0.815484  0.860960  0.154597
    H   H98   0.215759  0.783078  0.715182  0.077462
    C   C119  0.302012  0.236323  0.339245  0.024234
    C   C120  0.361701  0.237156  0.318269  0.015038
    C   C121  0.381524  0.219047  0.234538  -0.437230
    C   C122  0.342022  0.200029  0.169938  0.432275
    C   C123  0.362766  0.181272  0.078785  -0.402597
    C   C124  0.282691  0.198924  0.189708  -0.405672
    C   C125  0.262724  0.216818  0.273406  0.008626
    H   H99   0.393914  0.251843  0.367295  0.072639
    H   H100  0.428267  0.220176  0.220046  0.177464
    H   H101  0.411420  0.185464  0.073866  0.082855
    H   H102  0.341941  0.209610  0.026534  0.097531
    H   H103  0.349992  0.134601  0.066897  0.113283
    H   H104  0.251434  0.184516  0.139040  0.154605
    H   H105  0.215759  0.216922  0.284818  0.077468
    C   C126  0.258747  0.189902  0.668702  0.031027
    C   C127  0.309061  0.179968  0.719997  -0.043658
    C   C128  0.308876  0.139324  0.789518  -0.351563
    C   C129  0.258346  0.108233  0.809736  0.389974
    C   C130  0.258626  0.064683  0.885244  -0.358685
    C   C131  0.207884  0.117873  0.759896  -0.410786
    C   C132  0.208030  0.158148  0.689936  0.039886
    H   H106  0.349561  0.203506  0.705933  0.078741
    H   H107  0.348610  0.132018  0.828454  0.145522
    H   H108  0.271710  0.087189  0.948806  0.078553
    H   H109  0.290650  0.029013  0.869881  0.084764
    H   H110  0.214165  0.045001  0.893960  0.094387
    H   H111  0.167711  0.094133  0.775325  0.155572
    H   H112  0.167222  0.165237  0.654147  0.067846
    C   C133  0.177205  0.713888  0.320402  0.006789
    C   C134  0.205876  0.699484  0.240487  -0.061380
    C   C135  0.176250  0.698611  0.159103  -0.396184
    C   C136  0.116859  0.711319  0.156161  0.450029
    C   C137  0.084544  0.712294  0.068511  -0.454934
    C   C138  0.087162  0.723326  0.235213  -0.432180
    C   C139  0.116631  0.724116  0.316833  0.029918
    H   H113  0.252670  0.690043  0.240915  0.084783
    H   H114  0.200197  0.688484  0.097795  0.171782
    H   H115  0.114615  0.700723  0.012067  0.102289
    H   H116  0.066335  0.757184  0.056972  0.106629
    H   H117  0.047765  0.680067  0.070879  0.123524
    H   H118  0.040363  0.732527  0.233397  0.161414
    H   H119  0.090685  0.733340  0.375900  0.102958
    C   C140  0.221746  0.666274  0.657704  0.018009
    C   C141  0.167469  0.669814  0.701674  0.018322
    C   C142  0.159822  0.644928  0.786104  -0.381492
    C   C143  0.205532  0.615253  0.827561  0.370211
    C   C144  0.198082  0.589279  0.919383  -0.381398
    C   C145  0.258616  0.609485  0.783390  -0.301495
    C   C146  0.266452  0.634359  0.699208  -0.101237
    H   H120  0.129959  0.691819  0.672805  0.095303
    H   H121  0.117532  0.649024  0.819422  0.134631
    H   H122  0.203812  0.540634  0.915687  0.088384
    H   H123  0.153626  0.599518  0.946394  0.110344
    H   H124  0.231810  0.608134  0.965475  0.095206
    H   H125  0.294526  0.585771  0.815064  0.140270
    H   H126  0.308844  0.629651  0.666370  0.086806
    C   C147  0.221746  0.333726  0.342296  0.018058
    C   C148  0.167469  0.330186  0.298326  0.018231
    C   C149  0.159822  0.355072  0.213896  -0.381462
    C   C150  0.205532  0.384747  0.172439  0.370149
    C   C151  0.198082  0.410721  0.080617  -0.381397
    C   C152  0.258616  0.390515  0.216610  -0.301389
    C   C153  0.266453  0.365641  0.300792  -0.101230
    H   H127  0.129959  0.308181  0.327195  0.095350
    H   H128  0.117532  0.350976  0.180578  0.134631
    H   H129  0.203812  0.459366  0.084313  0.088382
    H   H130  0.153626  0.400482  0.053606  0.110347
    H   H131  0.231811  0.391866  0.034525  0.095206
    H   H132  0.294526  0.414229  0.184936  0.140228
    H   H133  0.308844  0.370349  0.333630  0.086783
    C   C154  0.177205  0.286112  0.679598  0.006711
    C   C155  0.205876  0.300516  0.759513  -0.061341
    C   C156  0.176250  0.301389  0.840897  -0.396193
    C   C157  0.116859  0.288681  0.843839  0.450038
    C   C158  0.084544  0.287706  0.931489  -0.454942
    C   C159  0.087162  0.276674  0.764787  -0.432211
    C   C160  0.116631  0.275884  0.683167  0.030000
    H   H134  0.252670  0.309957  0.759085  0.084770
    H   H135  0.200197  0.311516  0.902205  0.171781
    H   H136  0.114615  0.299277  0.987933  0.102292
    H   H137  0.066335  0.242816  0.943028  0.106633
    H   H138  0.047765  0.319934  0.929121  0.123523
    H   H139  0.040363  0.267473  0.766603  0.161426
    H   H140  0.090685  0.266660  0.624100  0.102915
    C   C161  0.677205  0.213888  0.320402  0.006796
    C   C162  0.705876  0.199484  0.240487  -0.061383
    C   C163  0.676250  0.198611  0.159103  -0.396179
    C   C164  0.616859  0.211319  0.156161  0.450031
    C   C165  0.584544  0.212294  0.068511  -0.454942
    C   C166  0.587162  0.223326  0.235213  -0.432185
    C   C167  0.616631  0.224116  0.316833  0.029919
    H   H141  0.752670  0.190043  0.240915  0.084783
    H   H142  0.700197  0.188484  0.097795  0.171778
    H   H143  0.614615  0.200723  0.012067  0.102291
    H   H144  0.566335  0.257184  0.056972  0.106632
    H   H145  0.547765  0.180067  0.070879  0.123526
    H   H146  0.540363  0.232527  0.233397  0.161417
    H   H147  0.590685  0.233340  0.375900  0.102956
    C   C168  0.721746  0.166274  0.657704  0.018063
    C   C169  0.667469  0.169814  0.701674  0.018263
    C   C170  0.659822  0.144928  0.786104  -0.381462
    C   C171  0.705532  0.115253  0.827561  0.370145
    C   C172  0.698082  0.089279  0.919383  -0.381396
    C   C173  0.758616  0.109485  0.783390  -0.301396
    C   C174  0.766453  0.134359  0.699208  -0.101227
    H   H148  0.629959  0.191819  0.672805  0.095316
    H   H149  0.617532  0.149024  0.819422  0.134632
    H   H150  0.703812  0.040634  0.915687  0.088383
    H   H151  0.653626  0.099518  0.946394  0.110347
    H   H152  0.731811  0.108134  0.965475  0.095209
    H   H153  0.794526  0.085771  0.815064  0.140230
    H   H154  0.808844  0.129651  0.666370  0.086787
    C   C175  0.721746  0.833726  0.342296  0.018069
    C   C176  0.667469  0.830186  0.298326  0.018231
    C   C177  0.659822  0.855072  0.213896  -0.381462
    C   C178  0.705532  0.884747  0.172439  0.370142
    C   C179  0.698082  0.910721  0.080617  -0.381382
    C   C180  0.758616  0.890515  0.216610  -0.301387
    C   C181  0.766452  0.865641  0.300792  -0.101227
    H   H155  0.629959  0.808181  0.327195  0.095346
    H   H156  0.617532  0.850976  0.180578  0.134631
    H   H157  0.703812  0.959366  0.084313  0.088380
    H   H158  0.653626  0.900482  0.053606  0.110342
    H   H159  0.731810  0.891866  0.034525  0.095203
    H   H160  0.794526  0.914229  0.184936  0.140230
    H   H161  0.808844  0.870349  0.333630  0.086774
    C   C182  0.677205  0.786112  0.679598  0.006712
    C   C183  0.705876  0.800516  0.759513  -0.061344
    C   C184  0.676250  0.801389  0.840897  -0.396191
    C   C185  0.616859  0.788681  0.843839  0.450039
    C   C186  0.584544  0.787706  0.931489  -0.454945
    C   C187  0.587162  0.776674  0.764787  -0.432217
    C   C188  0.616631  0.775884  0.683167  0.030005
    H   H162  0.752670  0.809957  0.759086  0.084770
    H   H163  0.700197  0.811516  0.902205  0.171783
    H   H164  0.614615  0.799277  0.987933  0.102293
    H   H165  0.566335  0.742816  0.943028  0.106633
    H   H166  0.547765  0.819934  0.929121  0.123524
    H   H167  0.540363  0.767473  0.766603  0.161430
    H   H168  0.590685  0.766660  0.624100  0.102912
