# Generated by REPEAT Assigner based on pymatgen
data_DB0-m2_o21_o25_f0_pcu.sym.21
_audit_creation_date              2022-05-24
_audit_creation_method            REPEAT_Assigner
_cell_length_a                    12.583197
_cell_length_b                    14.000025
_cell_length_c                    15.927514
_cell_angle_alpha                 90.022887
_cell_angle_beta                  93.597965
_cell_angle_gamma                 98.215894
_cell_volume                      2771.475608
_symmetry_space_group_name_H-M    P1
_symmetry_Int_Tables_number       1
loop_
    _symmetry_equiv_pos_site_id
    _symmetry_equiv_pos_as_xyz
    1  x,y,z
loop_
    _atom_site_type_symbol
    _atom_site_label
    _atom_site_fract_x
    _atom_site_fract_y
    _atom_site_fract_z
    _atom_type_partial_charge
    O   O1   0.394589  0.354819  0.497997  -0.600914
    O   O2   0.605408  0.645179  0.502003  -0.600828
    O   O3   0.579118  0.365167  0.501834  -0.625151
    O   O4   0.420879  0.634830  0.498167  -0.625228
    C   C1   0.482778  0.315110  0.499866  0.860413
    C   C2   0.517219  0.684888  0.500135  0.860386
    O   O5   0.408439  0.490796  0.373190  -0.610492
    O   O6   0.591558  0.509202  0.626810  -0.610414
    O   O7   0.593553  0.507909  0.382893  -0.602567
    O   O8   0.406444  0.492089  0.617107  -0.602663
    C   C3   0.501171  0.499103  0.338931  0.774767
    C   C4   0.498826  0.500895  0.661070  0.774777
    Cu  Cu1  0.392690  0.493997  0.494326  0.968074
    Cu  Cu2  0.607307  0.506001  0.505674  0.968375
    C   C5   0.457208  0.415906  0.970325  0.363773
    C   C6   0.542789  0.584092  0.029675  0.363813
    C   C7   0.558802  0.431080  0.028654  -0.490894
    C   C8   0.441195  0.568918  0.971346  -0.490939
    H   H1   0.606154  0.375612  0.054588  0.124413
    H   H2   0.393843  0.624386  0.945412  0.124427
    C   C9   0.501551  0.498592  0.248856  -0.134388
    C   C10  0.498446  0.501406  0.751144  -0.134396
    C   C11  0.402012  0.480749  0.022785  0.381520
    C   C12  0.597985  0.519249  0.977216  0.381466
    C   C13  0.502153  0.497628  0.081385  0.385844
    C   C14  0.497843  0.502370  0.918616  0.385862
    C   C15  0.501833  0.498163  0.173217  -0.301080
    C   C16  0.498164  0.501835  0.826783  -0.301073
    C   C17  0.526592  0.788252  0.500199  -0.296741
    C   C18  0.473405  0.211746  0.499801  -0.296767
    C   C19  0.543901  0.978632  0.500321  -0.062307
    C   C20  0.456096  0.021366  0.499679  -0.062053
    C   C21  0.465519  0.124948  0.499746  0.038378
    C   C22  0.534478  0.875050  0.500255  0.038428
    H   H3   0.377376  0.978138  0.499104  0.145925
    H   H4   0.622621  0.021860  0.500896  0.146002
    N   N1   0.232331  0.485208  0.485682  -0.185311
    N   N2   0.767666  0.514790  0.514318  -0.185275
    C   C23  0.024272  0.473783  0.474422  -0.077743
    C   C24  0.975725  0.526215  0.525578  -0.077734
    C   C25  0.860433  0.519887  0.519340  0.195448
    C   C26  0.139564  0.480111  0.480660  0.195464
    H   H5   0.023039  0.573746  0.571999  0.180723
    H   H6   0.976958  0.426252  0.428001  0.180725
    O   O9   0.407941  0.329479  0.931815  -0.470432
    C   C27  0.407572  0.257616  0.992789  0.448261
    H   H7   0.388244  0.285036  0.054467  -0.063722
    H   H8   0.486996  0.231762  0.998167  -0.042420
    C   C28  0.322457  0.173571  0.966347  -0.336811
    H   H9   0.340709  0.144629  0.904881  0.092824
    H   H10  0.321804  0.116147  0.014331  0.068670
    H   H11  0.242516  0.198406  0.960440  0.094204
    O   O10  0.592056  0.670519  0.068185  -0.470459
    C   C29  0.592425  0.742382  0.007211  0.448320
    H   H12  0.513001  0.768236  0.001833  -0.042446
    H   H13  0.611753  0.714962  0.945533  -0.063730
    C   C30  0.677540  0.826427  0.033654  -0.336847
    H   H14  0.757481  0.801592  0.039560  0.094211
    H   H15  0.678193  0.883850  0.985669  0.068670
    H   H16  0.659287  0.855369  0.095119  0.092847
    O   O11  0.699891  0.543793  0.946097  -0.481754
    C   C31  0.775488  0.527727  0.010790  0.460576
    H   H17  0.784458  0.450084  0.012674  -0.050517
    H   H18  0.751242  0.551493  0.072240  -0.070936
    C   C32  0.883114  0.585364  0.993834  -0.346344
    H   H19  0.875308  0.663232  0.991428  0.093365
    H   H20  0.943580  0.572923  0.044847  0.075520
    H   H21  0.909267  0.562157  0.932785  0.097508
    O   O12  0.300106  0.456205  0.053903  -0.481776
    C   C33  0.224509  0.472271  0.989210  0.460589
    H   H22  0.248755  0.448505  0.927761  -0.070945
    H   H23  0.215539  0.549914  0.987326  -0.050519
    C   C34  0.116883  0.414634  0.006166  -0.346334
    H   H24  0.090729  0.437841  0.067216  0.097500
    H   H25  0.056417  0.427075  0.955153  0.075519
    H   H26  0.124689  0.336766  0.008573  0.093365
