# Generated by REPEAT Assigner based on pymatgen
data_DB0-m29_o80_o1500_f0_pts.sym.61
_audit_creation_date              2022-05-24
_audit_creation_method            REPEAT_Assigner
_cell_length_a                    13.849735
_cell_length_b                    15.256871
_cell_length_c                    16.193099
_cell_angle_alpha                 92.324291
_cell_angle_beta                  91.427972
_cell_angle_gamma                 65.230568
_cell_volume                      3104.196867
_symmetry_space_group_name_H-M    P1
_symmetry_Int_Tables_number       1
loop_
    _symmetry_equiv_pos_site_id
    _symmetry_equiv_pos_as_xyz
    1  x,y,z
loop_
    _atom_site_type_symbol
    _atom_site_label
    _atom_site_fract_x
    _atom_site_fract_y
    _atom_site_fract_z
    _atom_type_partial_charge
    H   H1   0.823634  0.098482  0.281656  0.187883
    C   C1   0.799510  0.881651  0.895413  -0.349351
    C   C2   0.888262  0.838784  0.846653  -0.035579
    C   C3   0.968739  0.854391  0.887189  0.499469
    N   N1   0.933280  0.905486  0.958508  -0.601202
    C   C4   0.829740  0.921913  0.964081  0.483680
    C   C5   0.064680  0.829499  0.854778  -0.390448
    C   C6   0.137289  0.873974  0.876610  0.420330
    C   C7   0.199948  0.885627  0.818122  -0.296496
    C   C8   0.257836  0.930285  0.856030  -0.173438
    C   C9   0.226015  0.945245  0.940351  0.277742
    N   N2   0.152824  0.909282  0.950562  -0.360651
    C   C10  0.261833  0.990962  0.011308  -0.171325
    C   C11  0.196460  0.039699  0.075068  0.481527
    C   C12  0.220788  0.088310  0.141567  -0.218943
    C   C13  0.128256  0.140897  0.182402  -0.255153
    C   C14  0.050805  0.119084  0.144108  0.444909
    N   N3   0.092125  0.057163  0.078716  -0.611466
    C   C15  0.951636  0.148555  0.173451  -0.066115
    C   C16  0.888616  0.092022  0.157658  0.242525
    C   C17  0.829339  0.075556  0.217265  -0.214040
    C   C18  0.773910  0.028623  0.178718  -0.250275
    C   C19  0.804776  0.015068  0.095899  0.344842
    N   N4   0.873934  0.055046  0.084178  -0.339569
    C   C20  0.767694  0.968496  0.028328  -0.273381
    H   H2   0.083376  0.787889  0.797159  0.178233
    H   H3   0.202738  0.863056  0.753740  0.188234
    H   H4   0.124584  0.178765  0.240876  0.151576
    H   H5   0.689449  0.969565  0.032234  0.152594
    H   H6   0.118701  0.903941  0.005636  0.317051
    H   H7   0.904113  0.063330  0.028168  0.312873
    O   O1   0.614640  0.998325  0.188364  -0.675891
    C   C21  0.696168  0.007002  0.224892  0.842115
    O   O2   0.708124  0.808743  0.283963  -0.535957
    O   O3   0.701235  0.009411  0.305904  -0.552285
    O   O4   0.544266  0.884542  0.342252  -0.572017
    C   C22  0.640653  0.814875  0.341730  0.553562
    Fe  Fe1  0.510864  0.993898  0.268282  1.441885
    O   O5   0.389162  0.987854  0.202335  -0.643178
    O   O6   0.339698  0.150274  0.202677  -0.600002
    C   C23  0.322384  0.074561  0.180056  0.846603
    O   O7   0.486739  0.110382  0.341512  -0.604478
    O   O8   0.352471  0.068422  0.368382  -0.542575
    C   C24  0.400117  0.125863  0.382973  0.747298
    H   H8   0.475585  0.082787  0.530473  0.120594
    C   C25  0.366716  0.190351  0.455716  0.006696
    C   C26  0.273071  0.272576  0.452801  -0.239424
    H   H9   0.237902  0.298445  0.393284  0.143679
    C   C27  0.219081  0.315747  0.524675  0.140142
    C   C28  0.257725  0.273440  0.599872  -0.185331
    H   H10  0.214376  0.304354  0.656121  0.117390
    C   C29  0.352093  0.191076  0.602848  0.045667
    C   C30  0.407110  0.151598  0.530699  -0.119676
    C   C31  0.109176  0.475286  0.468352  -0.434897
    H   H11  0.177961  0.468546  0.434139  0.186852
    C   C32  0.015936  0.558634  0.463029  0.420295
    C   C33  0.925402  0.564081  0.503795  -0.240538
    C   C34  0.934875  0.489676  0.554256  -0.055714
    H   H12  0.866201  0.492452  0.586500  0.100394
    C   C35  0.030356  0.410251  0.563236  -0.214649
    H   H13  0.034393  0.352903  0.602157  0.135793
    C   C36  0.117804  0.401958  0.519247  0.165116
    C   C37  0.773605  0.679940  0.421305  -0.320402
    H   H14  0.815227  0.646608  0.364888  0.149975
    C   C38  0.678159  0.761020  0.417800  0.190435
    C   C39  0.624883  0.802672  0.490093  -0.256802
    H   H15  0.554568  0.870062  0.489535  0.157698
    C   C40  0.668364  0.768448  0.565645  0.067387
    C   C41  0.765894  0.690166  0.569249  -0.236895
    H   H16  0.804170  0.668905  0.628681  0.121326
    C   C42  0.819542  0.645681  0.497415  0.300735
    O   O9   0.638134  0.977420  0.824144  -0.590419
    O   O10  0.665318  0.826572  0.859476  -0.573186
    C   C43  0.692252  0.899413  0.866113  0.772941
    O   O11  0.557656  0.839846  0.686757  -0.584963
    O   O12  0.660846  0.907924  0.639343  -0.438897
    C   C44  0.632009  0.836445  0.636140  0.634069
    O   O13  0.322230  0.143134  0.736872  -0.510935
    O   O14  0.419355  0.954138  0.834408  -0.590051
    C   C45  0.333222  0.949636  0.803592  0.764511
    O   O15  0.486267  0.067738  0.678482  -0.572061
    C   C46  0.389096  0.136063  0.678326  0.588318
    O   O16  0.321415  0.947435  0.722990  -0.532712
    Fe  Fe2  0.523175  0.961178  0.756080  1.382733
    C   C47  0.019460  0.639788  0.415096  -0.432300
    C   C48  0.103121  0.671244  0.450867  0.207363
    C   C49  0.099636  0.757394  0.405087  0.170916
    C   C50  0.175692  0.794620  0.445470  -0.265051
    H   H17  0.943453  0.704559  0.416891  0.144609
    H   H18  0.038776  0.615074  0.349779  0.093227
    H   H19  0.184093  0.612722  0.444418  -0.023284
    H   H20  0.086657  0.691090  0.517208  -0.084183
    H   H21  0.018210  0.815959  0.406256  -0.054667
    H   H22  0.123308  0.735140  0.339965  -0.025703
    H   H23  0.151333  0.818944  0.510158  0.056807
    H   H24  0.173890  0.856453  0.410728  0.063434
    H   H25  0.257583  0.736502  0.444853  0.050722
    C   C51  0.887237  0.812627  0.756636  -0.085571
    C   C52  0.879595  0.897693  0.706292  -0.115701
    C   C53  0.907140  0.866590  0.616701  0.214584
    C   C54  0.877495  0.955130  0.565207  -0.366656
    H   H26  0.818559  0.795516  0.741732  0.089292
    H   H27  0.959752  0.747226  0.740173  0.011254
    H   H28  0.935145  0.927817  0.730552  0.028343
    H   H29  0.798110  0.955727  0.710990  0.077923
    H   H30  0.863713  0.824021  0.593166  -0.044268
    H   H31  0.993820  0.821741  0.612112  0.021546
    H   H32  0.790812  0.000682  0.569348  0.093349
    H   H33  0.897977  0.932460  0.499780  0.114262
    H   H34  0.921823  0.997383  0.588007  0.059934
    C   C55  0.369924  0.990187  0.006728  0.017809
    C   C56  0.360814  0.088948  0.981156  -0.177018
    C   C57  0.467832  0.092912  0.989014  0.328995
    C   C58  0.464051  0.182560  0.949355  -0.302169
    H   H35  0.420270  0.929271  0.967058  0.073748
    H   H36  0.417011  0.967585  0.063085  0.011829
    H   H37  0.304190  0.147788  0.020837  0.026973
    H   H38  0.330238  0.103391  0.917098  0.074729
    H   H39  0.527715  0.028151  0.957820  -0.069311
    H   H40  0.489397  0.094401  0.055253  -0.041884
    H   H41  0.446497  0.179903  0.882340  0.057678
    H   H42  0.542277  0.185701  0.957706  0.036207
    H   H43  0.401569  0.247786  0.978991  0.070453
    C   C59  0.908254  0.231971  0.235660  -0.180590
    C   C60  0.797343  0.302775  0.209890  0.091825
    C   C61  0.763908  0.395311  0.262364  0.189743
    C   C62  0.650809  0.463566  0.240689  -0.248746
    H   H44  0.956565  0.274068  0.239218  0.058227
    H   H45  0.905992  0.205448  0.297975  0.081018
    H   H46  0.739040  0.271728  0.218236  -0.003871
    H   H47  0.798245  0.319471  0.143970  -0.000252
    H   H48  0.817292  0.430975  0.250777  -0.020215
    H   H49  0.768325  0.378329  0.328674  -0.036855
    H   H50  0.645318  0.479992  0.174196  0.048177
    H   H51  0.627887  0.531580  0.278254  0.056529
    H   H52  0.595981  0.429959  0.254067  0.060479
