# Generated by REPEAT Assigner based on pymatgen
data_DB0-m29_o83_o1470_f0_pts.sym.21
_audit_creation_date              2022-05-24
_audit_creation_method            REPEAT_Assigner
_cell_length_a                    15.840026
_cell_length_b                    11.836921
_cell_length_c                    13.564380
_cell_angle_alpha                 91.438665
_cell_angle_beta                  88.242998
_cell_angle_gamma                 103.888535
_cell_volume                      2467.354649
_symmetry_space_group_name_H-M    P1
_symmetry_Int_Tables_number       1
loop_
    _symmetry_equiv_pos_site_id
    _symmetry_equiv_pos_as_xyz
    1  x,y,z
loop_
    _atom_site_type_symbol
    _atom_site_label
    _atom_site_fract_x
    _atom_site_fract_y
    _atom_site_fract_z
    _atom_type_partial_charge
    C   C1   0.280778  0.996854  0.063689  -0.178489
    C   C2   0.267570  0.004294  0.963600  0.026917
    C   C3   0.185678  0.005841  0.931681  -0.190196
    C   C4   0.210735  0.985528  0.129261  0.277831
    C   C5   0.127839  0.979256  0.095297  0.027840
    C   C6   0.115083  0.997558  0.997270  0.026465
    C   C7   0.032213  0.005504  0.967328  0.109767
    C   C8   0.018526  0.036599  0.872044  -0.232724
    C   C9   0.937025  0.038045  0.842156  -0.082512
    C   C10  0.057805  0.956280  0.160399  -0.073573
    C   C11  0.976058  0.956343  0.130442  -0.248994
    C   C12  0.961923  0.985683  0.034723  0.149672
    C   C13  0.878863  0.992630  0.004466  -0.010454
    C   C14  0.866560  0.013017  0.906648  0.054630
    C   C15  0.783782  0.007289  0.872354  0.232312
    C   C16  0.807695  0.981846  0.069590  -0.176309
    C   C17  0.725827  0.982665  0.037324  0.009882
    C   C18  0.713072  0.991662  0.937411  -0.123780
    H   H1   0.178368  0.007507  0.853443  0.154305
    H   H2   0.069636  0.062259  0.817379  0.157110
    H   H3   0.930048  0.060767  0.766762  0.120245
    H   H4   0.065261  0.935405  0.236172  0.119834
    H   H5   0.925399  0.932016  0.185760  0.160176
    H   H6   0.814216  0.978327  0.147789  0.154186
    O   O1   0.587614  0.019004  0.094562  -0.481977
    C   C19  0.655210  0.976862  0.111887  0.558781
    O   O2   0.447016  0.738987  0.229350  -0.475281
    O   O3   0.663022  0.937376  0.199783  -0.544899
    O   O4   0.513444  0.898314  0.320498  -0.535361
    C   C20  0.484337  0.784914  0.310806  0.667155
    Fe  Fe1  0.508116  0.004274  0.211420  1.381049
    O   O5   0.387145  0.938766  0.163843  -0.522123
    O   O6   0.427788  0.108084  0.080890  -0.538626
    C   C21  0.368590  0.012983  0.102241  0.718502
    O   O7   0.540261  0.166541  0.268369  -0.614373
    O   O8   0.421926  0.073775  0.355857  -0.505588
    C   C22  0.483155  0.168493  0.340315  0.718763
    O   O9   0.451184  0.820902  0.732363  -0.603969
    O   O10  0.566661  0.915372  0.641420  -0.507300
    C   C23  0.506005  0.820361  0.657933  0.700857
    O   O11  0.606803  0.046914  0.835740  -0.499430
    O   O12  0.565920  0.879769  0.921561  -0.533957
    C   C24  0.625222  0.974198  0.898686  0.635298
    O   O13  0.328925  0.045737  0.799922  -0.540680
    O   O14  0.480459  0.089603  0.680129  -0.525655
    C   C25  0.518414  0.201099  0.687446  0.544381
    O   O15  0.406549  0.969916  0.906692  -0.488990
    C   C26  0.337775  0.009080  0.888600  0.549483
    O   O16  0.556602  0.244846  0.769015  -0.409255
    Fe  Fe2  0.485226  0.983259  0.789101  1.389317
    C   C27  0.514646  0.206075  0.510598  -0.206583
    C   C28  0.520868  0.269841  0.597313  0.156052
    C   C29  0.520812  0.388008  0.594128  -0.204936
    C   C30  0.530679  0.460058  0.687506  0.347811
    C   C31  0.507327  0.577397  0.684423  -0.182795
    C   C32  0.503418  0.252275  0.422129  -0.126800
    C   C33  0.498001  0.366902  0.418397  0.128924
    C   C34  0.507963  0.435493  0.504120  -0.033063
    C   C35  0.499500  0.556060  0.498895  -0.054208
    C   C36  0.497245  0.621866  0.584557  0.146325
    C   C37  0.487601  0.734359  0.577561  -0.154927
    C   C38  0.472494  0.414055  0.325959  -0.103898
    C   C39  0.519268  0.540205  0.318262  -0.062807
    C   C40  0.496173  0.605033  0.406757  0.102802
    C   C41  0.482377  0.717045  0.401206  -0.124959
    C   C42  0.477126  0.778143  0.487751  -0.110257
    H   H7   0.482443  0.410646  0.741152  0.040801
    H   H8   0.445225  0.570383  0.726580  0.100075
    H   H9   0.401300  0.406538  0.328231  0.062464
    H   H10  0.502305  0.572714  0.248009  0.074791
    H   H11  0.516622  0.115516  0.510699  0.167004
    H   H12  0.468890  0.866060  0.486700  0.158772
    H   H13  0.558587  0.641041  0.724123  0.091139
    H   H14  0.490120  0.367525  0.259598  0.099462
    H   H15  0.590338  0.546766  0.316942  0.043828
    O   O17  0.613458  0.473443  0.727999  -0.394135
    C   C43  0.678465  0.508251  0.654698  0.494945
    H   H16  0.663332  0.573489  0.605413  -0.070434
    H   H17  0.689212  0.431831  0.611545  -0.053933
    C   C44  0.762957  0.564006  0.704399  -0.272712
    H   H18  0.782728  0.498638  0.749900  0.086123
    H   H19  0.814281  0.596595  0.647572  0.049217
    H   H20  0.753573  0.637331  0.752417  0.050387
    O   O18  0.224055  0.984089  0.228621  -0.366404
    C   C45  0.237221  0.099908  0.262284  0.527311
    H   H21  0.198373  0.147627  0.220255  -0.084167
    H   H22  0.306751  0.145026  0.253646  -0.132514
    C   C46  0.210107  0.102080  0.370272  -0.319797
    H   H23  0.246840  0.052266  0.413259  0.095836
    H   H24  0.224017  0.193460  0.397973  0.072096
    H   H25  0.139475  0.062290  0.378928  0.061728
    O   O19  0.771500  0.015382  0.773324  -0.330880
    C   C47  0.759142  0.902141  0.733880  0.435786
    H   H26  0.690029  0.855098  0.742612  -0.063500
    H   H27  0.799781  0.853120  0.771522  -0.058268
    C   C48  0.784397  0.907917  0.625163  -0.365159
    H   H28  0.854554  0.950290  0.615946  0.078456
    H   H29  0.771538  0.818517  0.593046  0.095549
    H   H30  0.745698  0.959067  0.586638  0.109188
