# Generated by REPEAT Assigner based on pymatgen
data_DB0-m29_o81_o90_f0_pts.sym.105
_audit_creation_date              2022-05-24
_audit_creation_method            REPEAT_Assigner
_cell_length_a                    15.933182
_cell_length_b                    16.862276
_cell_length_c                    11.296340
_cell_angle_alpha                 108.067998
_cell_angle_beta                  87.969420
_cell_angle_gamma                 108.861514
_cell_volume                      2723.293488
_symmetry_space_group_name_H-M    P1
_symmetry_Int_Tables_number       1
loop_
    _symmetry_equiv_pos_site_id
    _symmetry_equiv_pos_as_xyz
    1  x,y,z
loop_
    _atom_site_type_symbol
    _atom_site_label
    _atom_site_fract_x
    _atom_site_fract_y
    _atom_site_fract_z
    _atom_type_partial_charge
    C   C1   0.883932  0.991451  0.837044  -0.242110
    C   C2   0.283219  0.983091  0.908013  0.013631
    C   C3   0.198394  0.974317  0.867646  -0.191585
    C   C4   0.135171  0.987245  0.952160  0.108429
    C   C5   0.051990  0.981525  0.911659  -0.169809
    C   C6   0.988548  0.997802  0.996233  -0.055380
    C   C7   0.801678  0.990234  0.802487  -0.152144
    C   C8   0.735650  0.987388  0.883828  0.094436
    C   C9   0.904500  0.995914  0.958089  0.186119
    C   C10  0.840294  0.002256  0.044166  0.046160
    C   C11  0.753711  0.991867  0.005364  -0.064710
    C   C12  0.302410  0.001809  0.034935  0.023824
    C   C13  0.238850  0.014188  0.117859  -0.255518
    C   C14  0.155953  0.007915  0.076895  0.256461
    C   C15  0.094386  0.023016  0.161575  -0.276979
    C   C16  0.010064  0.016345  0.122325  0.159628
    C   C17  0.948283  0.031344  0.208661  -0.054329
    C   C18  0.864662  0.023576  0.169429  -0.138546
    H   H1   0.930978  0.992456  0.766730  0.167666
    H   H2   0.181630  0.959599  0.769625  0.144849
    H   H3   0.038822  0.962099  0.812370  0.136293
    H   H4   0.787639  0.987032  0.707886  0.159881
    H   H5   0.255595  0.030897  0.216431  0.156123
    H   H6   0.114940  0.041145  0.258803  0.138935
    H   H7   0.820577  0.038321  0.241215  0.141732
    O   O1   0.620476  0.021732  0.086150  -0.523208
    C   C19  0.681235  0.985205  0.090685  0.533791
    O   O2   0.491029  0.816727  0.101745  -0.420808
    O   O3   0.674294  0.938520  0.166473  -0.490900
    O   O4   0.515944  0.915722  0.296179  -0.433175
    C   C20  0.499157  0.833972  0.223132  0.456686
    Fe  Fe1  0.528192  0.001852  0.205567  1.426122
    O   O5   0.409918  0.951916  0.107845  -0.571393
    O   O6   0.446394  0.097651  0.128930  -0.506475
    C   C21  0.390413  0.016806  0.087779  0.691912
    O   O7   0.562227  0.121883  0.334148  -0.589789
    O   O8   0.431460  0.052756  0.401799  -0.529413
    C   C22  0.501112  0.123524  0.414918  0.607232
    O   O9   0.458688  0.870272  0.588069  -0.565468
    O   O10  0.589273  0.922951  0.506768  -0.513821
    C   C23  0.512962  0.860150  0.498679  0.645901
    O   O11  0.636340  0.032029  0.783760  -0.572318
    O   O12  0.579211  0.906880  0.837635  -0.475326
    C   C24  0.646936  0.976083  0.836112  0.563127
    O   O13  0.332786  0.972513  0.701157  -0.504756
    O   O14  0.520222  0.076651  0.618894  -0.476324
    C   C25  0.500687  0.146258  0.687066  0.524212
    O   O15  0.432140  0.984154  0.849098  -0.497810
    C   C26  0.351258  0.977692  0.816164  0.564876
    O   O16  0.484273  0.154573  0.804123  -0.516829
    Fe  Fe2  0.510910  0.991768  0.710661  1.425522
    C   C27  0.504422  0.206768  0.508688  0.015864
    C   C28  0.505556  0.275385  0.466023  0.021301
    H   H8   0.507545  0.265337  0.366916  0.097688
    C   C29  0.499450  0.353346  0.546997  -0.399004
    C   C30  0.495292  0.363280  0.672879  0.060573
    H   H9   0.490791  0.423541  0.738895  0.064011
    C   C31  0.495865  0.295595  0.716545  -0.137469
    H   H10  0.492859  0.305703  0.815610  0.139238
    C   C32  0.499889  0.216455  0.635465  0.032976
    N   N1   0.491226  0.500432  0.578004  -0.276787
    N   N2   0.486436  0.563265  0.534521  -0.215705
    C   C33  0.484465  0.550632  0.410880  0.762530
    N   N3   0.487615  0.473553  0.331722  -0.247489
    N   N4   0.492568  0.410761  0.375232  -0.259626
    C   C34  0.494707  0.423488  0.498919  0.792327
    C   C35  0.478103  0.609316  0.236732  0.110403
    H   H11  0.472108  0.545714  0.169762  0.050579
    C   C36  0.482219  0.678427  0.193421  -0.194005
    H   H12  0.478854  0.666140  0.093720  0.145164
    C   C37  0.492905  0.762033  0.275415  0.125405
    C   C38  0.496331  0.774169  0.403445  -0.073837
    C   C39  0.489326  0.703965  0.445636  0.089479
    H   H13  0.494242  0.716003  0.545186  0.045618
    C   C40  0.482531  0.621908  0.363367  -0.425282
    C   C41  0.968769  0.056668  0.343310  0.154003
    C   C42  0.971365  0.139420  0.419092  -0.116849
    C   C43  0.990319  0.163930  0.546010  0.020435
    Cl  Cl1  0.994765  0.269408  0.641559  -0.073670
    C   C44  0.006109  0.105534  0.597599  -0.013774
    C   C45  0.001699  0.022162  0.522496  -0.179111
    C   C46  0.982268  0.997426  0.395641  -0.110673
    H   H14  0.959605  0.185626  0.378865  0.099660
    H   H15  0.021567  0.125047  0.697001  0.072945
    H   H16  0.013544  0.976130  0.562966  0.125981
    H   H17  0.978481  0.931885  0.337117  0.112477
