# Generated by REPEAT Assigner based on pymatgen
data_DB0-m3_o21_o23_f0_pcu.sym.94
_audit_creation_date              2022-05-24
_audit_creation_method            REPEAT_Assigner
_cell_length_a                    12.952550
_cell_length_b                    14.095034
_cell_length_c                    15.956638
_cell_angle_alpha                 90.004251
_cell_angle_beta                  93.532891
_cell_angle_gamma                 88.910315
_cell_volume                      2907.085749
_symmetry_space_group_name_H-M    P1
_symmetry_Int_Tables_number       1
loop_
    _symmetry_equiv_pos_site_id
    _symmetry_equiv_pos_as_xyz
    1  x,y,z
loop_
    _atom_site_type_symbol
    _atom_site_label
    _atom_site_fract_x
    _atom_site_fract_y
    _atom_site_fract_z
    _atom_type_partial_charge
    O   O1   0.402055  0.637689  0.491597  -0.688995
    O   O2   0.580318  0.647881  0.500794  -0.681313
    C   C1   0.487287  0.686748  0.496016  0.920482
    O   O3   0.414114  0.496501  0.617012  -0.653354
    O   O4   0.592373  0.506717  0.626212  -0.675727
    C   C2   0.503152  0.501587  0.660510  0.812759
    Zn  Zn1  0.386139  0.494970  0.490692  1.069619
    Zn  Zn2  0.621105  0.508377  0.502844  1.103202
    O   O5   0.426926  0.355467  0.492742  -0.676526
    O   O6   0.605191  0.365658  0.501938  -0.685590
    O   O7   0.414874  0.496631  0.367327  -0.661463
    O   O8   0.593129  0.506848  0.376522  -0.689077
    C   C3   0.519957  0.316599  0.497520  0.917523
    C   C4   0.504087  0.501759  0.333026  0.847318
    C   C5   0.399258  0.539303  0.944723  0.560280
    C   C6   0.587858  0.565152  0.953283  -0.121420
    C   C7   0.583274  0.570466  0.047788  -0.120477
    H   H1   0.374829  0.601489  0.065355  0.038629
    H   H2   0.389215  0.614848  0.926004  -0.091568
    H   H3   0.664200  0.535610  0.937474  0.050751
    H   H4   0.577666  0.637396  0.926142  0.027234
    H   H5   0.561278  0.643652  0.066123  0.018017
    H   H6   0.660397  0.551896  0.078020  0.030940
    C   C8   0.504226  0.501781  0.243103  -0.198531
    C   C9   0.502750  0.501730  0.917635  0.258699
    C   C10  0.397313  0.531706  0.039253  -0.262989
    C   C11  0.503672  0.501702  0.075886  0.617570
    C   C12  0.529792  0.402769  0.045478  -0.171644
    C   C13  0.522579  0.401533  0.950414  -0.066691
    C   C14  0.504104  0.501768  0.167584  -0.316173
    C   C15  0.502775  0.501629  0.825939  -0.240216
    C   C16  0.502944  0.501587  0.750429  -0.182383
    H   H7   0.459143  0.354612  0.927558  0.023457
    H   H8   0.596357  0.373336  0.927773  0.045433
    H   H9   0.474783  0.351357  0.069260  0.046288
    H   H10  0.339914  0.478359  0.055451  0.039242
    H   H11  0.609469  0.382281  0.068958  0.034554
    C   C17  0.528997  0.214971  0.497938  -0.312388
    C   C18  0.545865  0.027803  0.498719  -0.064860
    C   C19  0.461382  0.975544  0.494820  -0.061462
    C   C20  0.470581  0.873711  0.495245  0.030115
    C   C21  0.536664  0.129636  0.498293  0.030967
    C   C22  0.478248  0.788376  0.495599  -0.313882
    H   H12  0.385535  0.009684  0.491318  0.143075
    H   H13  0.621711  0.993663  0.502221  0.144178
    N   N1   0.231913  0.486216  0.482658  -0.117204
    C   C23  0.031768  0.475347  0.471838  -0.041815
    C   C24  0.975471  0.528091  0.521620  -0.077621
    C   C25  0.864564  0.522044  0.515645  0.200410
    C   C26  0.142678  0.481344  0.477851  0.173569
    N   N2   0.775332  0.517135  0.510874  -0.135864
    H   H14  0.013167  0.575511  0.566862  0.202535
    H   H15  0.994070  0.427849  0.426670  0.193457
    O   O9   0.320211  0.487499  0.907826  -0.436971
    C   C27  0.241294  0.531010  0.860117  0.153526
    C   C28  0.164047  0.460259  0.828029  0.211215
    C   C29  0.175631  0.364312  0.846054  -0.238462
    C   C30  0.102168  0.301610  0.815217  -0.028464
    C   C31  0.017182  0.333974  0.766554  -0.179605
    C   C32  0.005490  0.429278  0.748548  -0.037523
    C   C33  0.078762  0.492164  0.779168  -0.252243
    H   H16  0.273214  0.567294  0.805999  0.010564
    H   H17  0.201940  0.584162  0.899002  0.002162
    H   H18  0.241224  0.336463  0.884019  0.131992
    H   H19  0.111285  0.226800  0.829320  0.094897
    H   H20  0.959748  0.284629  0.742544  0.107579
    H   H21  0.938821  0.454763  0.710422  0.090863
    H   H22  0.069208  0.566892  0.764841  0.099402
