# Generated by REPEAT Assigner based on pymatgen
data_DB0-m29_o96_o150_f0_pts.sym.124
_audit_creation_date              2022-05-24
_audit_creation_method            REPEAT_Assigner
_cell_length_a                    16.956450
_cell_length_b                    9.323514
_cell_length_c                    26.514828
_cell_angle_alpha                 94.418305
_cell_angle_beta                  89.714303
_cell_angle_gamma                 69.883159
_cell_volume                      3922.180282
_symmetry_space_group_name_H-M    P1
_symmetry_Int_Tables_number       1
loop_
    _symmetry_equiv_pos_site_id
    _symmetry_equiv_pos_as_xyz
    1  x,y,z
loop_
    _atom_site_type_symbol
    _atom_site_label
    _atom_site_fract_x
    _atom_site_fract_y
    _atom_site_fract_z
    _atom_type_partial_charge
    C   C1   0.792941  0.962850  0.919186  0.012107
    C   C2   0.855040  0.897776  0.883419  -0.021290
    C   C3   0.928943  0.899437  0.904267  0.417964
    N   N1   0.914679  0.959089  0.952805  -0.555398
    C   C4   0.831161  0.996848  0.962121  0.409631
    C   C5   0.001959  0.861044  0.878752  -0.478596
    C   C6   0.075358  0.893175  0.898458  0.315262
    C   C7   0.131091  0.928577  0.868513  0.029174
    C   C8   0.193152  0.943479  0.898037  -0.110011
    C   C9   0.173300  0.919685  0.946705  0.326949
    N   N2   0.100908  0.888118  0.946627  -0.299189
    C   C10  0.220831  0.935439  0.991787  -0.448241
    C   C11  0.182840  0.988353  0.037004  0.405846
    C   C12  0.220633  0.024621  0.079906  0.010113
    C   C13  0.158294  0.089081  0.115608  -0.018041
    C   C14  0.084750  0.085047  0.094896  0.417932
    N   N3   0.099397  0.024374  0.046420  -0.556015
    C   C15  0.011764  0.122944  0.120582  -0.434273
    C   C16  0.938149  0.091278  0.101030  0.236531
    C   C17  0.880826  0.059736  0.130993  0.030530
    C   C18  0.819822  0.042512  0.100834  0.005702
    C   C19  0.841322  0.062741  0.052242  0.255217
    N   N4   0.914011  0.093144  0.052591  -0.239653
    C   C20  0.793396  0.049298  0.007278  -0.442786
    H   H1   0.004777  0.822379  0.839092  0.206356
    H   H2   0.286626  0.920782  0.986758  0.195355
    H   H3   0.008924  0.162324  0.160163  0.176351
    H   H4   0.727363  0.065849  0.012276  0.207673
    H   H5   0.072359  0.857431  0.976850  0.310342
    H   H6   0.943321  0.122353  0.022401  0.295306
    C   C21  0.880808  0.041305  0.181677  -0.147596
    C   C22  0.815156  0.006468  0.201850  -0.102829
    C   C23  0.750741  0.991712  0.171640  0.100963
    C   C24  0.752969  0.008831  0.120024  -0.157999
    C   C25  0.709687  0.988935  0.908743  -0.215259
    C   C26  0.691850  0.941599  0.860483  0.053573
    C   C27  0.756762  0.868017  0.824930  -0.076434
    C   C28  0.839114  0.847695  0.835875  -0.183006
    C   C29  0.126328  0.958867  0.818832  -0.251400
    C   C30  0.189019  0.000998  0.798033  0.465402
    C   C31  0.258247  0.003019  0.826711  -0.143015
    C   C32  0.259150  0.978086  0.878000  -0.078731
    C   C33  0.303653  0.001087  0.090522  -0.215513
    C   C34  0.320891  0.050014  0.138806  0.069334
    C   C35  0.255566  0.123211  0.174117  -0.081773
    C   C36  0.173571  0.141240  0.163026  -0.187983
    H   H7   0.930325  0.052454  0.205394  0.133709
    H   H8   0.703856  0.997470  0.095963  0.141047
    H   H9   0.659831  0.046528  0.936545  0.136796
    H   H10  0.743309  0.832187  0.787207  0.121131
    H   H11  0.888361  0.794759  0.807359  0.129398
    H   H12  0.072740  0.958666  0.797005  0.155418
    H   H13  0.310669  0.982387  0.901155  0.141578
    H   H14  0.353794  0.943656  0.062875  0.147538
    H   H15  0.268367  0.160430  0.211814  0.127505
    H   H16  0.124092  0.193919  0.191417  0.135693
    H   H17  0.814367  0.993384  0.241952  0.132494
    O   O1   0.490668  0.843347  0.708065  -0.476453
    O   O2   0.471653  0.723534  0.774845  -0.477214
    C   C37  0.482583  0.721741  0.725811  0.545410
    O   O3   0.400991  0.010263  0.825647  -0.513323
    O   O4   0.338142  0.004992  0.751727  -0.467645
    C   C38  0.332982  0.015106  0.801291  0.533660
    O   O5   0.549417  0.050205  0.675859  -0.558344
    O   O6   0.592868  0.892308  0.804979  -0.657415
    C   C39  0.605447  0.975541  0.844186  0.619074
    O   O7   0.458166  0.183844  0.740563  -0.600548
    C   C40  0.499374  0.180603  0.698059  0.656363
    O   O8   0.545415  0.100843  0.862265  -0.554088
    Fe  Fe1  0.486675  0.984103  0.769950  1.409087
    O   O9   0.554815  0.800228  0.258386  -0.572801
    C   C41  0.515898  0.803316  0.301858  0.563966
    O   O10  0.468006  0.894679  0.136101  -0.557184
    O   O11  0.467323  0.934047  0.324622  -0.523667
    O   O12  0.419000  0.095733  0.196116  -0.658290
    C   C42  0.407117  0.016659  0.155534  0.629552
    Fe  Fe2  0.526283  0.001261  0.229786  1.432914
    O   O13  0.610086  0.976110  0.173151  -0.479023
    O   O14  0.679395  0.961566  0.245859  -0.508052
    C   C43  0.679281  0.968389  0.196622  0.455126
    O   O15  0.525014  0.139821  0.291733  -0.445513
    O   O16  0.541074  0.271133  0.226403  -0.468602
    C   C44  0.533496  0.263657  0.275313  0.495604
    H   H18  0.537112  0.535171  0.250610  0.135630
    C   C45  0.529528  0.396448  0.309990  0.051701
    C   C46  0.521363  0.391092  0.361472  -0.182910
    H   H19  0.523316  0.285205  0.376207  0.153558
    C   C47  0.513173  0.518852  0.394060  0.086883
    C   C48  0.511664  0.653632  0.374594  -0.208603
    H   H20  0.502467  0.755565  0.399605  0.146801
    C   C49  0.521421  0.658964  0.323012  0.101565
    C   C50  0.531525  0.529453  0.290945  -0.176104
    C   C51  0.464040  0.423215  0.468370  -0.171390
    H   H21  0.430309  0.368286  0.443817  0.131181
    C   C52  0.461435  0.409206  0.519701  -0.152160
    H   H22  0.425573  0.344265  0.534037  0.120744
    C   C53  0.501743  0.481692  0.552365  0.150662
    C   C54  0.544570  0.568577  0.532937  -0.214266
    H   H23  0.578632  0.622969  0.557431  0.136661
    C   C55  0.547122  0.582664  0.481620  -0.114690
    H   H24  0.583228  0.647153  0.467266  0.112298
    C   C56  0.507116  0.509675  0.448940  0.090924
    C   C57  0.499959  0.333848  0.626071  -0.165866
    H   H25  0.507140  0.233445  0.600709  0.149043
    C   C58  0.494051  0.325251  0.677665  -0.044064
    C   C59  0.487936  0.451006  0.710727  0.276372
    C   C60  0.487054  0.586657  0.691989  -0.094891
    C   C61  0.491040  0.595133  0.640342  -0.136201
    H   H26  0.487180  0.702225  0.625781  0.163497
    C   C62  0.497643  0.469512  0.607179  0.017764
    N   N5   0.178214  0.051339  0.748801  -0.731689
    C   C63  0.181344  0.943517  0.711092  0.862747
    O   O17  0.181815  0.817633  0.720923  -0.550648
    C   C64  0.185401  0.976463  0.657148  -0.564476
    H   H27  0.192447  0.145822  0.740461  0.361039
    H   H28  0.183651  0.095650  0.654608  0.140331
    H   H29  0.131023  0.961164  0.637346  0.140734
    H   H30  0.244454  0.895639  0.638662  0.175637
    N   N6   0.490081  0.434475  0.763221  -0.589441
    C   C65  0.413701  0.483430  0.786886  0.924350
    O   O18  0.350917  0.503971  0.762157  -0.538744
    C   C66  0.405359  0.512299  0.843130  -0.621697
    H   H31  0.538854  0.450242  0.783088  0.309615
    H   H32  0.468043  0.485518  0.859909  0.154208
    H   H33  0.373084  0.438905  0.858407  0.149548
    H   H34  0.367576  0.634416  0.853421  0.180864
