# Generated by REPEAT Assigner based on pymatgen
data_DB0-m2_o3_o22_f0_nbo.sym.11
_audit_creation_date              2022-05-24
_audit_creation_method            REPEAT_Assigner
_cell_length_a                    43.893343
_cell_length_b                    38.654457
_cell_length_c                    21.302300
_cell_angle_alpha                 90.000000
_cell_angle_beta                  118.360882
_cell_angle_gamma                 90.000000
_cell_volume                      31804.906378
_symmetry_space_group_name_H-M    P1
_symmetry_Int_Tables_number       1
loop_
    _symmetry_equiv_pos_site_id
    _symmetry_equiv_pos_as_xyz
    1  x,y,z
loop_
    _atom_site_type_symbol
    _atom_site_label
    _atom_site_fract_x
    _atom_site_fract_y
    _atom_site_fract_z
    _atom_type_partial_charge
    C   C1    0.065688  0.000345  0.566255  0.761082
    C   C2    0.973276  0.027292  0.688184  0.239923
    C   C3    0.396358  0.500555  0.395296  -0.068872
    C   C4    0.121540  0.031055  0.612699  -0.213069
    C   C5    0.878460  0.031055  0.387301  -0.213332
    C   C6    0.621540  0.531055  0.612699  -0.213031
    C   C7    0.378460  0.531055  0.387301  -0.213198
    C   C8    0.157219  0.031485  0.648859  0.406926
    C   C9    0.842781  0.031485  0.351141  0.406849
    C   C10   0.657219  0.531485  0.648859  0.406895
    C   C11   0.342781  0.531485  0.351141  0.406855
    C   C12   0.175527  0.001171  0.676779  -0.055766
    C   C13   0.526724  0.527292  0.311816  0.240090
    C   C14   0.824473  0.001171  0.323221  -0.055718
    C   C15   0.675527  0.501171  0.676779  -0.055744
    C   C16   0.324473  0.501171  0.323221  -0.055717
    C   C17   0.000000  0.066384  0.000000  0.701723
    C   C18   0.500000  0.566384  0.000000  0.701793
    C   C19   0.000161  0.000056  0.120802  0.551310
    C   C20   0.999839  0.000056  0.879198  0.551194
    C   C21   0.500161  0.500056  0.120802  0.550997
    C   C22   0.499839  0.500056  0.879198  0.550900
    C   C23   0.000000  0.933397  0.000000  0.793914
    C   C24   0.473276  0.527292  0.688184  0.239729
    C   C25   0.500000  0.433397  0.000000  0.794113
    C   C26   0.500000  0.933361  0.000000  0.940034
    C   C27   0.000000  0.433361  0.000000  0.940065
    C   C28   0.433437  0.999417  0.932251  0.796045
    C   C29   0.566563  0.999417  0.067749  0.796134
    C   C30   0.933437  0.499417  0.932251  0.796032
    C   C31   0.066563  0.499417  0.067749  0.796127
    C   C32   0.500000  0.066292  0.000000  0.654029
    C   C33   0.000000  0.566292  0.000000  0.653886
    C   C34   0.478760  0.877556  0.938594  0.580411
    C   C35   0.026061  0.027312  0.239991  -0.042029
    C   C36   0.521240  0.877556  0.061406  0.580403
    C   C37   0.978760  0.377556  0.938594  0.580429
    C   C38   0.021240  0.377556  0.061406  0.580420
    C   C39   0.478358  0.841904  0.938915  -0.485895
    C   C40   0.521642  0.841904  0.061085  -0.485906
    C   C41   0.978358  0.341904  0.938915  -0.485907
    C   C42   0.021642  0.341904  0.061085  -0.485917
    C   C43   0.500000  0.823668  0.000000  0.185822
    C   C44   0.000000  0.323668  0.000000  0.185835
    C   C45   0.500000  0.895531  0.000000  -0.535210
    C   C46   0.973939  0.027312  0.760010  -0.041765
    C   C47   0.000000  0.395531  0.000000  -0.535248
    C   C48   0.506605  0.767247  0.061155  -0.216172
    C   C49   0.493395  0.767247  0.938845  -0.216088
    C   C50   0.006605  0.267247  0.061155  -0.216142
    C   C51   0.993395  0.267247  0.938845  -0.216059
    C   C52   0.007082  0.231597  0.061336  -0.108500
    C   C53   0.992918  0.231597  0.938664  -0.108554
    C   C54   0.507082  0.731597  0.061336  -0.108480
    C   C55   0.492918  0.731597  0.938664  -0.108532
    C   C56   0.000000  0.213635  0.000000  0.041528
    C   C57   0.526061  0.527312  0.239991  -0.041928
    C   C58   0.500000  0.713635  0.000000  0.041508
    C   C59   0.500000  0.785491  0.000000  0.205449
    C   C60   0.000000  0.285491  0.000000  0.205423
    C   C61   0.972580  0.157842  0.947373  -0.152258
    C   C62   0.027420  0.157842  0.052628  -0.152305
    C   C63   0.472580  0.657842  0.947373  -0.152263
    C   C64   0.527420  0.657842  0.052628  -0.152308
    C   C65   0.972301  0.122189  0.948020  -0.080765
    C   C66   0.027699  0.122189  0.051980  -0.080764
    C   C67   0.472301  0.622189  0.948020  -0.080710
    C   C68   0.473939  0.527312  0.760010  -0.041603
    C   C69   0.527699  0.622189  0.051980  -0.080714
    C   C70   0.000000  0.104221  0.000000  -0.063785
    C   C71   0.500000  0.604221  0.000000  -0.063926
    C   C72   0.000000  0.175792  0.000000  0.111663
    C   C73   0.500000  0.675792  0.000000  0.111677
    C   C74   0.488450  0.122187  0.040710  -0.139500
    C   C75   0.511551  0.122187  0.959290  -0.139493
    C   C76   0.988450  0.622187  0.040710  -0.139803
    C   C77   0.011551  0.622187  0.959290  -0.139686
    C   C78   0.488068  0.157845  0.039960  -0.245515
    C   C79   0.965022  0.009663  0.253610  0.239291
    C   C80   0.511932  0.157845  0.960040  -0.245521
    C   C81   0.988068  0.657845  0.039960  -0.245262
    C   C82   0.011932  0.657845  0.960040  -0.245363
    C   C83   0.500000  0.175722  0.000000  0.422200
    C   C84   0.000000  0.675722  0.000000  0.422029
    C   C85   0.500000  0.104180  0.000000  0.008731
    C   C86   0.000000  0.604180  0.000000  0.009070
    C   C87   0.530854  0.231401  0.030032  0.716264
    C   C88   0.469146  0.231401  0.969968  0.716189
    C   C89   0.030854  0.731401  0.030032  0.716493
    C   C90   0.034978  0.009663  0.746390  0.239274
    C   C91   0.969146  0.731401  0.969968  0.716041
    C   C92   0.030884  0.767057  0.030727  -0.614961
    C   C93   0.969116  0.767057  0.969273  -0.614488
    C   C94   0.530884  0.267057  0.030727  -0.614915
    C   C95   0.469116  0.267057  0.969273  -0.614745
    C   C96   0.000000  0.785268  0.000000  0.296507
    C   C97   0.500000  0.285268  0.000000  0.296478
    C   C98   0.500000  0.213496  0.000000  -0.656021
    C   C99   0.000000  0.713496  0.000000  -0.656197
    C   C100  0.974198  0.841629  0.005344  -0.635004
    C   C101  0.465022  0.509663  0.253610  0.239136
    C   C102  0.025802  0.841629  0.994656  -0.635001
    C   C103  0.474198  0.341629  0.005344  -0.636007
    C   C104  0.525802  0.341629  0.994656  -0.636021
    C   C105  0.973953  0.877288  0.004626  0.684889
    C   C106  0.026047  0.877288  0.995374  0.684872
    C   C107  0.473953  0.377288  0.004626  0.685649
    C   C108  0.526047  0.377288  0.995374  0.685640
    C   C109  0.000000  0.895413  0.000000  -0.520491
    C   C110  0.500000  0.395413  0.000000  -0.521027
    C   C111  0.000000  0.823418  0.000000  0.346222
    C   C112  0.934312  0.000345  0.433745  0.761024
    C   C113  0.534978  0.509663  0.746390  0.239220
    C   C114  0.500000  0.323418  0.000000  0.347126
    C   C115  0.012325  0.964623  0.297849  0.073569
    C   C116  0.987675  0.964623  0.702151  0.072764
    C   C117  0.512325  0.464623  0.297849  0.073888
    C   C118  0.487675  0.464623  0.702151  0.072919
    C   C119  0.001313  0.000272  0.311869  0.212675
    C   C120  0.998687  0.000272  0.688131  0.212816
    C   C121  0.501313  0.500272  0.311869  0.212332
    C   C122  0.498687  0.500272  0.688131  0.212896
    C   C123  0.000314  0.000259  0.191152  0.258149
    C   C124  0.565688  0.500345  0.566255  0.761236
    C   C125  0.999686  0.000259  0.808848  0.258027
    C   C126  0.500314  0.500259  0.191152  0.258439
    C   C127  0.499686  0.500259  0.808848  0.258285
    C   C128  0.963852  0.008030  0.180827  0.024776
    C   C129  0.036148  0.008030  0.819173  0.025237
    C   C130  0.463852  0.508030  0.180827  0.024934
    C   C131  0.536148  0.508030  0.819173  0.025138
    C   C132  0.012390  0.964894  0.226331  0.462521
    C   C133  0.987610  0.964894  0.773670  0.463079
    C   C134  0.512390  0.464894  0.226331  0.462406
    C   C135  0.434312  0.500345  0.433745  0.761173
    C   C136  0.487610  0.464894  0.773670  0.463043
    C   C137  0.377241  0.009485  0.928882  0.100476
    C   C138  0.622759  0.009485  0.071118  0.100468
    C   C139  0.877241  0.509485  0.928882  0.100210
    C   C140  0.122759  0.509485  0.071118  0.100200
    C   C141  0.341558  0.009850  0.893803  -0.549494
    C   C142  0.658442  0.009850  0.106197  -0.549435
    C   C143  0.841558  0.509850  0.893803  -0.549115
    C   C144  0.158442  0.509850  0.106197  -0.549052
    C   C145  0.323466  0.999690  0.823376  0.585175
    C   C146  0.001349  0.000381  0.382192  0.576904
    C   C147  0.676534  0.999690  0.176624  0.585135
    C   C148  0.823466  0.499690  0.823376  0.584813
    C   C149  0.176534  0.499690  0.176624  0.584777
    C   C150  0.341481  0.989271  0.788353  -0.516293
    C   C151  0.658519  0.989271  0.211647  -0.516298
    C   C152  0.841481  0.489271  0.788353  -0.516041
    C   C153  0.158519  0.489271  0.211647  -0.516050
    C   C154  0.377181  0.989257  0.822881  0.561151
    C   C155  0.622819  0.989257  0.177120  0.561173
    C   C156  0.877181  0.489257  0.822881  0.560975
    C   C157  0.998652  0.000381  0.617808  0.576712
    C   C158  0.122819  0.489257  0.177120  0.560998
    C   C159  0.395385  0.999459  0.893703  -0.361128
    C   C160  0.604615  0.999459  0.106297  -0.361202
    C   C161  0.895385  0.499459  0.893703  -0.360960
    C   C162  0.104615  0.499459  0.106297  -0.361039
    C   C163  0.267763  0.017501  0.721729  0.622534
    C   C164  0.732237  0.017501  0.278271  0.622594
    C   C165  0.767763  0.517501  0.721729  0.622510
    C   C166  0.232237  0.517501  0.278271  0.622569
    C   C167  0.232090  0.017752  0.686236  -0.519398
    C   C168  0.501349  0.500381  0.382192  0.577021
    C   C169  0.767910  0.017752  0.313764  -0.519415
    C   C170  0.732090  0.517752  0.686236  -0.519390
    C   C171  0.267910  0.517752  0.313764  -0.519409
    C   C172  0.213579  0.000986  0.714535  0.292357
    C   C173  0.786421  0.000986  0.285465  0.292346
    C   C174  0.713579  0.500986  0.714535  0.292347
    C   C175  0.286421  0.500986  0.285465  0.292351
    C   C176  0.231262  0.983264  0.778116  -0.623332
    C   C177  0.768738  0.983264  0.221884  -0.623309
    C   C178  0.731262  0.483264  0.778116  -0.623359
    C   C179  0.498652  0.500381  0.617808  0.576674
    C   C180  0.268738  0.483264  0.221884  -0.623345
    C   C181  0.266962  0.982858  0.813734  0.689469
    C   C182  0.733038  0.982858  0.186266  0.689501
    C   C183  0.766962  0.482858  0.813734  0.689473
    C   C184  0.233038  0.482858  0.186266  0.689509
    C   C185  0.285466  0.000114  0.785863  -0.605533
    C   C186  0.714534  0.000114  0.214137  -0.605559
    C   C187  0.785466  0.500114  0.785863  -0.605427
    C   C188  0.214534  0.500114  0.214137  -0.605457
    C   C189  0.157559  0.970748  0.669268  -0.125777
    C   C190  0.026724  0.027292  0.311816  0.240108
    C   C191  0.842441  0.970748  0.330732  -0.125779
    C   C192  0.657559  0.470748  0.669268  -0.125745
    C   C193  0.342441  0.470748  0.330732  -0.125817
    C   C194  0.121864  0.970417  0.633615  -0.169085
    C   C195  0.878136  0.970417  0.366386  -0.169379
    C   C196  0.621864  0.470417  0.633615  -0.169160
    C   C197  0.378136  0.470417  0.366386  -0.169253
    C   C198  0.103643  0.000555  0.604704  -0.069120
    C   C199  0.896358  0.000555  0.395296  -0.068622
    C   C200  0.603643  0.500555  0.604704  -0.069155
    Cu  Cu1   -0.000000  0.034079  0.500000  0.912230
    Cu  Cu2   0.499137  0.999823  0.061660  1.006975
    Cu  Cu3   0.000863  0.499823  0.938341  1.006919
    Cu  Cu4   0.999137  0.499823  0.061660  1.006979
    Cu  Cu5   0.500000  0.534079  0.500000  0.912311
    Cu  Cu6   0.000000  0.966517  0.500000  0.926006
    Cu  Cu7   0.500000  0.466517  0.500000  0.926028
    Cu  Cu8   0.034484  0.999952  0.033815  0.969161
    Cu  Cu9   0.965516  0.999952  0.966185  0.969141
    Cu  Cu10  0.534484  0.499952  0.033815  0.969066
    Cu  Cu11  0.465516  0.499952  0.966185  0.969053
    Cu  Cu12  0.500863  0.999823  0.938341  1.006907
    H   H1    0.053301  0.021168  0.353978  0.041770
    H   H2    0.980826  0.053401  0.784162  -0.002058
    H   H3    0.528705  0.435661  0.811579  0.399227
    H   H4    0.941228  0.965472  0.236867  0.309455
    H   H5    0.058773  0.965472  0.763133  0.309415
    H   H6    0.441228  0.465472  0.236867  0.309426
    H   H7    0.558773  0.465472  0.763133  0.309375
    H   H8    0.393226  0.997903  0.756888  0.335683
    H   H9    0.606774  0.997903  0.243112  0.335712
    H   H10   0.893226  0.497903  0.756888  0.335676
    H   H11   0.106774  0.497903  0.243112  0.335705
    H   H12   0.287606  0.059122  0.713450  0.358521
    H   H13   0.519174  0.553401  0.215838  -0.001991
    H   H14   0.712395  0.059122  0.286550  0.358540
    H   H15   0.787606  0.559122  0.713450  0.358519
    H   H16   0.212395  0.559122  0.286550  0.358534
    H   H17   0.280692  0.977945  0.911281  0.344976
    H   H18   0.719308  0.977945  0.088720  0.344953
    H   H19   0.780692  0.477945  0.911281  0.344967
    H   H20   0.219308  0.477945  0.088720  0.344944
    H   H21   0.175701  0.071355  0.704488  0.357591
    H   H22   0.824299  0.071355  0.295513  0.357598
    H   H23   0.675701  0.571355  0.704488  0.357595
    H   H24   0.480826  0.553401  0.784162  -0.002082
    H   H25   0.324299  0.571355  0.295513  0.357590
    H   H26   0.468503  0.894574  0.848119  0.357625
    H   H27   0.531497  0.894574  0.151882  0.357656
    H   H28   0.968503  0.394574  0.848119  0.357622
    H   H29   0.031497  0.394574  0.151882  0.357651
    H   H30   0.566982  0.211443  0.111892  0.351834
    H   H31   0.433018  0.211443  0.888108  0.351741
    H   H32   0.066982  0.711443  0.111892  0.351845
    H   H33   0.933018  0.711443  0.888108  0.351736
    H   H34   0.956525  0.894433  0.063709  0.356278
    H   H35   0.958948  0.036249  0.263486  0.073827
    H   H36   0.043475  0.894433  0.936292  0.356268
    H   H37   0.456525  0.394433  0.063709  0.356235
    H   H38   0.543475  0.394433  0.936292  0.356230
    H   H39   0.962710  0.058405  0.175634  0.367496
    H   H40   0.037290  0.058405  0.824366  0.367524
    H   H41   0.462710  0.558405  0.175634  0.367504
    H   H42   0.537290  0.558405  0.824366  0.367503
    H   H43   0.045257  0.932378  0.361586  0.412376
    H   H44   0.954743  0.932378  0.638414  0.412405
    H   H45   0.545257  0.432378  0.361586  0.412371
    H   H46   0.041052  0.036249  0.736514  0.073748
    H   H47   0.454743  0.432378  0.638414  0.412420
    H   H48   0.045090  0.937210  0.214438  0.412190
    H   H49   0.954910  0.937210  0.785563  0.412161
    H   H50   0.545090  0.437210  0.214438  0.412135
    H   H51   0.454910  0.437210  0.785563  0.412106
    H   H52   0.458948  0.536249  0.263486  0.073865
    H   H53   0.541052  0.536249  0.736514  0.073788
    H   H54   0.995166  0.944266  0.300257  0.009012
    H   H55   0.004834  0.944266  0.699743  0.009227
    H   H56   0.495166  0.444266  0.300257  0.008960
    H   H57   0.946699  0.021168  0.646022  0.041806
    H   H58   0.504834  0.444266  0.699743  0.009184
    H   H59   0.945936  0.987297  0.148234  0.098582
    H   H60   0.054064  0.987297  0.851766  0.098521
    H   H61   0.445936  0.487297  0.148234  0.098543
    H   H62   0.554064  0.487297  0.851766  0.098543
    H   H63   0.390697  0.017812  0.983868  0.120644
    H   H64   0.609303  0.017812  0.016132  0.120645
    H   H65   0.890697  0.517812  0.983868  0.120687
    H   H66   0.109303  0.517812  0.016132  0.120685
    H   H67   0.327892  0.018684  0.921681  0.182144
    H   H68   0.553301  0.521168  0.353978  0.041789
    H   H69   0.672108  0.018684  0.078320  0.182121
    H   H70   0.827892  0.518684  0.921681  0.182060
    H   H71   0.172108  0.518684  0.078320  0.182036
    H   H72   0.327661  0.980573  0.733628  0.217702
    H   H73   0.672339  0.980573  0.266372  0.217713
    H   H74   0.827661  0.480573  0.733628  0.217664
    H   H75   0.172339  0.480573  0.266372  0.217676
    H   H76   0.218834  0.030928  0.635540  0.227987
    H   H77   0.781166  0.030928  0.364460  0.228005
    H   H78   0.718834  0.530928  0.635540  0.227991
    H   H79   0.446699  0.521168  0.646022  0.041837
    H   H80   0.281166  0.530928  0.364460  0.228002
    H   H81   0.217293  0.969883  0.801087  0.179602
    H   H82   0.782707  0.969883  0.198914  0.179571
    H   H83   0.717293  0.469883  0.801087  0.179613
    H   H84   0.282707  0.469883  0.198914  0.179582
    H   H85   0.171308  0.946737  0.690045  0.145861
    H   H86   0.828692  0.946737  0.309955  0.145880
    H   H87   0.671308  0.446737  0.690045  0.145852
    H   H88   0.328692  0.446737  0.309955  0.145884
    H   H89   0.108533  0.946191  0.628022  0.140479
    H   H90   0.052606  0.021921  0.248876  0.029263
    H   H91   0.891467  0.946191  0.371978  0.140577
    H   H92   0.608533  0.446191  0.628022  0.140511
    H   H93   0.391467  0.446191  0.371978  0.140547
    H   H94   0.107929  0.055114  0.591837  0.146268
    H   H95   0.892071  0.055114  0.408163  0.146407
    H   H96   0.607929  0.555114  0.591837  0.146271
    H   H97   0.392071  0.555114  0.408163  0.146322
    H   H98   0.460257  0.828707  0.890901  0.153582
    H   H99   0.539743  0.828707  0.109100  0.153604
    H   H100  0.960257  0.328707  0.890901  0.153581
    H   H101  0.947394  0.021921  0.751124  0.029217
    H   H102  0.039743  0.328707  0.109100  0.153606
    H   H103  0.510766  0.780422  0.109273  0.133581
    H   H104  0.489234  0.780422  0.890727  0.133568
    H   H105  0.010766  0.280422  0.109273  0.133573
    H   H106  0.989234  0.280422  0.890727  0.133563
    H   H107  0.012030  0.217838  0.109427  0.105226
    H   H108  0.987971  0.217838  0.890573  0.105209
    H   H109  0.512030  0.717838  0.109427  0.105223
    H   H110  0.487971  0.717838  0.890573  0.105205
    H   H111  0.950795  0.171601  0.906283  0.100898
    H   H112  0.552606  0.521921  0.248876  0.029220
    H   H113  0.049205  0.171601  0.093717  0.100922
    H   H114  0.450795  0.671601  0.906283  0.100900
    H   H115  0.549205  0.671601  0.093717  0.100924
    H   H116  0.950505  0.108578  0.906651  0.118846
    H   H117  0.049495  0.108578  0.093349  0.118882
    H   H118  0.450505  0.608578  0.906651  0.118820
    H   H119  0.549495  0.608578  0.093349  0.118858
    H   H120  0.479095  0.108653  0.072567  0.146815
    H   H121  0.520905  0.108653  0.927433  0.146900
    H   H122  0.979095  0.608653  0.072567  0.146862
    H   H123  0.447394  0.521921  0.751124  0.029172
    H   H124  0.020905  0.608653  0.927433  0.146926
    H   H125  0.478806  0.171788  0.071545  0.147784
    H   H126  0.521194  0.171788  0.928455  0.147747
    H   H127  0.978806  0.671788  0.071545  0.147751
    H   H128  0.021194  0.671788  0.928455  0.147743
    H   H129  0.055460  0.780312  0.057102  0.206656
    H   H130  0.944541  0.780312  0.942898  0.206528
    H   H131  0.555460  0.280312  0.057102  0.206655
    H   H132  0.444541  0.280312  0.942898  0.206598
    H   H133  0.954258  0.828346  0.011934  0.209860
    H   H134  0.019174  0.053401  0.215838  -0.001971
    H   H135  0.045742  0.828346  0.988066  0.209877
    H   H136  0.454258  0.328346  0.011934  0.210075
    H   H137  0.545742  0.328346  0.988066  0.210091
    H   H138  0.039997  0.069357  0.364276  0.401146
    H   H139  0.960003  0.069357  0.635724  0.401173
    H   H140  0.539997  0.569357  0.364276  0.401162
    H   H141  0.460003  0.569357  0.635724  0.401172
    H   H142  0.971295  0.935661  0.188421  0.399191
    H   H143  0.028705  0.935661  0.811579  0.399168
    H   H144  0.471295  0.435661  0.188421  0.399249
    O   O1    0.049539  0.028836  0.532745  -0.628239
    O   O2    0.008679  0.028802  0.598315  -0.539076
    O   O3    0.453703  0.459106  0.760364  -0.575687
    O   O4    0.491321  0.528802  0.401685  -0.539202
    O   O5    0.508679  0.528802  0.598315  -0.539143
    O   O6    0.010308  0.971789  0.420797  -0.602416
    O   O7    0.989693  0.971789  0.579203  -0.602339
    O   O8    0.510308  0.471789  0.420797  -0.602479
    O   O9    0.489693  0.471789  0.579203  -0.602385
    O   O10   0.029841  0.050229  0.032586  -0.600111
    O   O11   0.970159  0.050229  0.967415  -0.600048
    O   O12   0.529841  0.550229  0.032586  -0.600062
    O   O13   0.950461  0.028836  0.467255  -0.628410
    O   O14   0.470159  0.550229  0.967415  -0.599994
    O   O15   0.030002  0.000914  0.120702  -0.579106
    O   O16   0.969998  0.000914  0.879298  -0.579164
    O   O17   0.530002  0.500914  0.120702  -0.579056
    O   O18   0.469998  0.500914  0.879298  -0.579129
    O   O19   0.970405  0.001655  0.062114  -0.577226
    O   O20   0.029595  0.001655  0.937886  -0.577259
    O   O21   0.470405  0.501655  0.062114  -0.577177
    O   O22   0.529595  0.501655  0.937886  -0.577201
    O   O23   0.029767  0.949661  0.031052  -0.597113
    O   O24   0.549539  0.528836  0.532745  -0.628351
    O   O25   0.970233  0.949661  0.968948  -0.597090
    O   O26   0.529767  0.449661  0.031052  -0.597055
    O   O27   0.470233  0.449661  0.968948  -0.597032
    O   O28   0.501830  0.949532  0.947806  -0.679110
    O   O29   0.498170  0.949532  0.052195  -0.678994
    O   O30   0.001830  0.449532  0.947806  -0.679111
    O   O31   0.998170  0.449532  0.052195  -0.678993
    O   O32   0.450462  0.001393  0.895733  -0.599435
    O   O33   0.549538  0.001393  0.104267  -0.599476
    O   O34   0.950462  0.501393  0.895733  -0.599433
    O   O35   0.450461  0.528836  0.467255  -0.628348
    O   O36   0.049538  0.501393  0.104267  -0.599477
    O   O37   0.448934  0.000827  0.002163  -0.642476
    O   O38   0.551066  0.000827  0.997837  -0.642457
    O   O39   0.948934  0.500827  0.002163  -0.642470
    O   O40   0.051066  0.500827  0.997837  -0.642444
    O   O41   0.502508  0.050104  0.948465  -0.622211
    O   O42   0.497492  0.050104  0.051535  -0.622148
    O   O43   0.002508  0.550104  0.948465  -0.622219
    O   O44   0.997492  0.550104  0.051535  -0.622132
    O   O45   0.018173  0.060268  0.324988  -0.683777
    O   O46   0.049279  0.971775  0.566803  -0.607529
    O   O47   0.981827  0.060268  0.675012  -0.683811
    O   O48   0.518173  0.560268  0.324988  -0.683812
    O   O49   0.481827  0.560268  0.675012  -0.683786
    O   O50   0.991648  0.938562  0.180852  -0.743860
    O   O51   0.008352  0.938562  0.819148  -0.743932
    O   O52   0.491648  0.438562  0.180852  -0.743930
    O   O53   0.508352  0.438562  0.819148  -0.744013
    O   O54   0.939991  0.988215  0.256575  -0.609210
    O   O55   0.060009  0.988215  0.743426  -0.609200
    O   O56   0.439991  0.488215  0.256575  -0.609153
    O   O57   0.950721  0.971775  0.433197  -0.607676
    O   O58   0.560009  0.488215  0.743426  -0.609162
    O   O59   0.394046  0.977975  0.786855  -0.523812
    O   O60   0.605954  0.977975  0.213145  -0.523825
    O   O61   0.894046  0.477975  0.786855  -0.523786
    O   O62   0.105954  0.477975  0.213145  -0.523796
    O   O63   0.285383  0.035469  0.693914  -0.592987
    O   O64   0.714617  0.035469  0.306086  -0.593033
    O   O65   0.785383  0.535469  0.693914  -0.592986
    O   O66   0.214617  0.535469  0.306086  -0.593027
    O   O67   0.283773  0.964252  0.875419  -0.526112
    O   O68   0.549279  0.471775  0.566803  -0.607567
    O   O69   0.716227  0.964252  0.124581  -0.526105
    O   O70   0.783773  0.464252  0.875419  -0.526102
    O   O71   0.216227  0.464252  0.124581  -0.526096
    O   O72   0.174067  0.062398  0.659451  -0.585712
    O   O73   0.825933  0.062398  0.340549  -0.585703
    O   O74   0.674067  0.562398  0.659451  -0.585716
    O   O75   0.325933  0.562398  0.340549  -0.585690
    O   O76   0.456769  0.894930  0.877950  -0.513819
    O   O77   0.543231  0.894930  0.122050  -0.513854
    O   O78   0.956769  0.394930  0.877950  -0.513817
    O   O79   0.450721  0.471775  0.433197  -0.607710
    O   O80   0.043231  0.394930  0.122050  -0.513849
    O   O81   0.561555  0.213868  0.061374  -0.581553
    O   O82   0.438445  0.213868  0.938627  -0.581492
    O   O83   0.061555  0.713868  0.061374  -0.581614
    O   O84   0.938445  0.713868  0.938627  -0.581431
    O   O85   0.948518  0.894385  0.011737  -0.567224
    O   O86   0.051482  0.894385  0.988263  -0.567197
    O   O87   0.448518  0.394385  0.011737  -0.567318
    O   O88   0.551482  0.394385  0.988263  -0.567297
    O   O89   0.950703  0.038975  0.143080  -0.567928
    O   O90   0.991321  0.028802  0.401685  -0.539236
    O   O91   0.049297  0.038975  0.856920  -0.568070
    O   O92   0.450703  0.538975  0.143080  -0.567971
    O   O93   0.549297  0.538975  0.856920  -0.568045
    O   O94   0.045922  0.957187  0.350725  -0.621842
    O   O95   0.954078  0.957187  0.649275  -0.621845
    O   O96   0.545922  0.457187  0.350725  -0.621884
    O   O97   0.454078  0.457187  0.649275  -0.621896
    O   O98   0.046297  0.959106  0.239636  -0.575721
    O   O99   0.953703  0.959106  0.760364  -0.575709
    O   O100  0.546297  0.459106  0.239636  -0.575692
