# Generated by REPEAT Assigner based on pymatgen
data_DB0-m9_o16_o25_f0_sra.sym.100_sqe
_audit_creation_date              2022-05-24
_audit_creation_method            REPEAT_Assigner
_cell_length_a                    21.873900
_cell_length_b                    6.818000
_cell_length_c                    19.672199
_cell_angle_alpha                 90.000000
_cell_angle_beta                  100.399086
_cell_angle_gamma                 90.000000
_cell_volume                      2885.647738
_symmetry_space_group_name_H-M    P1
_symmetry_Int_Tables_number       1
loop_
    _symmetry_equiv_pos_site_id
    _symmetry_equiv_pos_as_xyz
    1  x,y,z
loop_
    _atom_site_type_symbol
    _atom_site_label
    _atom_site_fract_x
    _atom_site_fract_y
    _atom_site_fract_z
    _atom_type_partial_charge
    O  O1   0.452325  0.717629  0.418396  -0.492479
    O  O2   0.547675  0.217627  0.581604  -0.492482
    O  O3   0.430202  0.370415  0.551999  -0.537949
    O  O4   0.569798  0.870414  0.448001  -0.537943
    C  C1   0.423981  0.546593  0.580052  0.640840
    C  C2   0.576019  0.046593  0.419948  0.640839
    O  O5   0.431285  0.371429  0.413833  -0.513673
    O  O6   0.568714  0.871430  0.586167  -0.513678
    O  O7   0.549509  0.216565  0.434292  -0.549728
    O  O8   0.450491  0.716565  0.565709  -0.549724
    C  C3   0.426203  0.554570  0.389225  0.555984
    C  C4   0.573796  0.054570  0.610775  0.556016
    O  O9   0.539162  0.537973  0.510594  -0.499425
    O  O10  0.460837  0.037971  0.489406  -0.499443
    V  V1   0.488633  0.266668  0.495111  1.420750
    V  V2   0.511366  0.766666  0.504889  1.420641
    C  C5   0.850394  0.746232  0.724805  -0.032389
    C  C6   0.149605  0.246233  0.275195  -0.032390
    H  H1   0.938610  0.723408  0.791043  0.111742
    H  H2   0.061390  0.223408  0.208957  0.111744
    H  H3   0.765071  0.691663  0.616553  0.072690
    H  H4   0.234929  0.191663  0.383447  0.072694
    C  C7   0.881566  0.942031  0.825527  0.011432
    C  C8   0.118434  0.442031  0.174473  0.011442
    C  C9   0.602146  0.228843  0.719749  -0.119704
    C  C10  0.397854  0.728842  0.280251  -0.119730
    C  C11  0.643290  0.278072  0.778597  -0.089704
    C  C12  0.356709  0.778072  0.221403  -0.089691
    C  C13  0.701373  0.193787  0.792260  -0.184175
    C  C14  0.298627  0.693787  0.207740  -0.184170
    C  C15  0.718996  0.058349  0.746839  0.006620
    C  C16  0.281003  0.558349  0.253161  0.006623
    C  C17  0.676338  0.004767  0.688428  0.210672
    C  C18  0.323662  0.504767  0.311572  0.210651
    C  C19  0.778597  0.977114  0.758400  0.048333
    C  C20  0.221403  0.477114  0.241600  0.048336
    C  C21  0.793218  0.837457  0.712837  0.137938
    C  C22  0.206781  0.337457  0.287163  0.137946
    C  C23  0.751592  0.791870  0.653759  -0.058795
    C  C24  0.248407  0.291870  0.346241  -0.058815
    C  C25  0.693471  0.875375  0.641416  -0.334923
    C  C26  0.306529  0.375375  0.358584  -0.334912
    C  C27  0.824024  0.032106  0.814357  -0.238119
    C  C28  0.175976  0.532106  0.185643  -0.238149
    C  C29  0.894315  0.798183  0.781044  -0.142266
    C  C30  0.105685  0.298183  0.218956  -0.142264
    C  C31  0.617769  0.089626  0.675173  -0.107302
    C  C32  0.382231  0.589625  0.324827  -0.107266
    H  H5   0.815619  0.139666  0.851543  0.161240
    H  H6   0.184381  0.639667  0.148457  0.161267
    H  H7   0.557131  0.299026  0.708575  0.115829
    H  H8   0.442869  0.799026  0.291425  0.115838
    H  H9   0.731858  0.238165  0.838823  0.127674
    H  H10  0.268142  0.738165  0.161177  0.127661
    H  H11  0.630295  0.385349  0.813872  0.103343
    H  H12  0.369705  0.885349  0.186128  0.103340
    H  H13  0.661735  0.839291  0.594486  0.200481
    H  H14  0.338265  0.339291  0.405514  0.200483
    C  C33  0.772000  0.942404  0.311072  -0.137967
    C  C34  0.228000  0.442404  0.688928  -0.137955
    C  C35  0.800197  0.112497  0.276954  -0.160022
    C  C36  0.199803  0.612497  0.723046  -0.160030
    H  H15  0.842883  0.193646  0.299923  0.070873
    H  H16  0.157117  0.693646  0.700077  0.070873
    H  H17  0.790746  0.881376  0.362899  0.066455
    H  H18  0.209253  0.381376  0.637101  0.066451
    H  H19  0.723947  0.359127  0.261219  0.070292
    H  H20  0.276052  0.859127  0.738781  0.070291
    C  C37  0.877582  0.977303  0.125804  -0.053824
    C  C38  0.122417  0.477303  0.874196  -0.053809
    C  C39  0.621833  0.053921  0.373651  -0.037325
    C  C40  0.378167  0.553921  0.626349  -0.037323
    C  C41  0.763460  0.828585  0.243272  -0.189180
    C  C42  0.236539  0.328584  0.756728  -0.189193
    C  C43  0.791130  0.998780  0.209677  0.705365
    C  C44  0.208870  0.498780  0.790323  0.705372
    C  C45  0.698956  0.918392  0.222198  -0.127077
    C  C46  0.301043  0.418392  0.777802  -0.127071
    C  C47  0.708034  0.032110  0.289481  0.677601
    C  C48  0.291965  0.532109  0.710519  0.677605
    C  C49  0.727162  0.088483  0.188073  -0.164826
    C  C50  0.272838  0.588483  0.811927  -0.164833
    C  C51  0.735698  0.202310  0.255877  -0.167010
    C  C52  0.264302  0.702310  0.744123  -0.167001
    C  C53  0.838805  0.983070  0.163711  -0.440654
    C  C54  0.161194  0.483070  0.836289  -0.440661
    C  C55  0.660474  0.047903  0.335585  -0.440826
    C  C56  0.339525  0.547903  0.664415  -0.440836
    H  H21  0.708430  0.149451  0.136231  0.070413
    H  H22  0.291569  0.649451  0.863769  0.070415
    H  H23  0.656272  0.837222  0.199225  0.059297
    H  H24  0.343727  0.337222  0.800776  0.059294
    H  H25  0.775203  0.671773  0.237916  0.072908
    H  H26  0.224797  0.171773  0.762084  0.072912
    O  O11  0.049704  0.315664  0.934619  -0.564120
    O  O12  0.950296  0.815666  0.065380  -0.564128
    O  O13  0.068763  0.659813  0.086191  -0.535380
    O  O14  0.931236  0.159814  0.913809  -0.535320
    C  C57  0.073446  0.476891  0.110993  0.578266
    C  C58  0.926554  0.976890  0.889006  0.578226
    O  O15  0.070280  0.661619  0.948190  -0.538529
    O  O16  0.929720  0.161617  0.051810  -0.538528
    O  O17  0.952577  0.813720  0.918171  -0.511623
    O  O18  0.047422  0.313721  0.081830  -0.511625
    C  C59  0.076446  0.485261  0.920297  0.674416
    C  C60  0.923554  0.985261  0.079703  0.674438
    O  O19  0.961062  0.493115  0.989309  -0.489561
    O  O20  0.038938  0.993117  0.010691  -0.489579
    V  V3   0.011464  0.764188  0.004807  1.429231
    V  V4   0.988535  0.264191  0.995193  1.429020
    C  C61  0.864442  0.592656  0.678279  0.001820
    C  C62  0.820949  0.450018  0.654311  0.179479
    C  C63  0.761536  0.438254  0.680968  -0.283938
    C  C64  0.834642  0.307603  0.609557  -0.179497
    C  C65  0.891817  0.305960  0.589383  -0.094828
    C  C66  0.935827  0.444767  0.614900  -0.179815
    C  C67  0.922287  0.587110  0.659707  -0.102772
    H  H27  0.759616  0.556604  0.719152  0.087050
    H  H28  0.759407  0.295010  0.707112  0.117131
    H  H29  0.721357  0.448855  0.637742  0.112947
    H  H30  0.800853  0.195183  0.591137  0.081626
    H  H31  0.902494  0.193902  0.554442  0.102406
    H  H32  0.980931  0.442072  0.599754  0.116818
    H  H33  0.956716  0.696537  0.679405  0.099573
    C  C68  0.135557  0.092657  0.321721  0.001831
    C  C69  0.179051  0.950018  0.345689  0.179465
    C  C70  0.238464  0.938254  0.319032  -0.283935
    C  C71  0.165357  0.807602  0.390443  -0.179488
    C  C72  0.108183  0.805958  0.410618  -0.094839
    C  C73  0.064172  0.944768  0.385100  -0.179826
    C  C74  0.077713  0.087110  0.340293  -0.102767
    H  H34  0.240384  0.056604  0.280848  0.087049
    H  H35  0.240593  0.795011  0.292889  0.117138
    H  H36  0.278643  0.948855  0.362258  0.112946
    H  H37  0.199147  0.695183  0.408863  0.081621
    H  H38  0.097506  0.693902  0.445558  0.102415
    H  H39  0.019069  0.942072  0.400246  0.116826
    H  H40  0.043284  0.196537  0.320595  0.099566
