data_DB0-m2_o18_o25_f0_pcu_repeat
_audit_creation_date              2024-02-23
_audit_creation_method            'Materials Studio'
_symmetry_space_group_name_H-M    'P1'
_symmetry_Int_Tables_number       1
_symmetry_cell_setting            triclinic
loop_
_symmetry_equiv_pos_as_xyz
  x,y,z
_cell_length_a                    14.5568
_cell_length_b                    15.8550
_cell_length_c                    15.8548
_cell_angle_alpha                 95.2194
_cell_angle_beta                  72.4520
_cell_angle_gamma                 107.5555
loop_
_atom_site_label
_atom_site_type_symbol
_atom_site_fract_x
_atom_site_fract_y
_atom_site_fract_z
_atom_site_U_iso_or_equiv
_atom_site_adp_type
_atom_site_occupancy
O1     O     0.87825   0.00020   0.12790   0.00000  Uiso   1.00
O2     O     0.12175   0.99980   0.87209   0.00000  Uiso   1.00
O3     O     0.03493   0.99989   0.12814   0.00000  Uiso   1.00
O4     O     0.96508   0.00011   0.87186   0.00000  Uiso   1.00
C1     C     0.94239   0.00006   0.17086   0.00000  Uiso   1.00
C2     C     0.05761   0.99994   0.82913   0.00000  Uiso   1.00
O5     O     0.96509   0.12814   0.99982   0.00000  Uiso   1.00
O6     O     0.03491   0.87186   0.00018   0.00000  Uiso   1.00
O7     O     0.12178   0.12792   0.00013   0.00000  Uiso   1.00
O8     O     0.87822   0.87208   0.99986   0.00000  Uiso   1.00
C3     C     0.05764   0.17087   0.99997   0.00000  Uiso   1.00
C4     C     0.94236   0.82913   0.00003   0.00000  Uiso   1.00
Cu1    Cu    0.90869   0.00028   0.99971   0.00000  Uiso   1.00
Cu2    Cu    0.09131   0.99973   0.00028   0.00000  Uiso   1.00
C5     C     0.91050   0.73245   0.00001   0.00000  Uiso   1.00
C6     C     0.08950   0.26755   0.99999   0.00000  Uiso   1.00
C7     C     0.78518   0.59610   0.99992   0.00000  Uiso   1.00
C8     C     0.21482   0.40390   0.00009   0.00000  Uiso   1.00
C9     C     0.81382   0.68676   0.99994   0.00000  Uiso   1.00
C10    C     0.18618   0.31325   0.00006   0.00000  Uiso   1.00
C11    C     0.97798   0.68719   0.00005   0.00000  Uiso   1.00
C12    C     0.02202   0.31281   0.99995   0.00000  Uiso   1.00
C13    C     0.95017   0.59505   0.00001   0.00000  Uiso   1.00
C14    C     0.04983   0.40495   1.00000   0.00000  Uiso   1.00
C15    C     0.85250   0.55078   0.99994   0.00000  Uiso   1.00
C16    C     0.14750   0.44923   0.00006   0.00000  Uiso   1.00
C17    C     0.01665   0.54626   0.00002   0.00000  Uiso   1.00
C18    C     0.98335   0.45375   0.99998   0.00000  Uiso   1.00
C19    C     0.88421   0.41230   0.99993   0.00000  Uiso   1.00
C20    C     0.11579   0.58770   0.00008   0.00000  Uiso   1.00
C21    C     0.82049   0.46039   0.99991   0.00000  Uiso   1.00
C22    C     0.17951   0.53961   0.00010   0.00000  Uiso   1.00
H1     H     0.74411   0.42597   0.99987   0.00000  Uiso   1.00
H2     H     0.25588   0.57403   0.00014   0.00000  Uiso   1.00
H3     H     0.94817   0.27318   0.99990   0.00000  Uiso   1.00
H4     H     0.05184   0.72682   0.00009   0.00000  Uiso   1.00
H5     H     0.24015   0.27908   0.00009   0.00000  Uiso   1.00
H6     H     0.75985   0.72092   0.99992   0.00000  Uiso   1.00
H7     H     0.70912   0.56046   0.99987   0.00000  Uiso   1.00
H8     H     0.29088   0.43954   0.00014   0.00000  Uiso   1.00
H9     H     0.85124   0.34203   0.99991   0.00000  Uiso   1.00
H10    H     0.14876   0.65797   0.00011   0.00000  Uiso   1.00
C23    C     0.91055   0.00012   0.26754   0.00000  Uiso   1.00
C24    C     0.08946   0.99988   0.73246   0.00000  Uiso   1.00
C25    C     0.78530   0.00043   0.40387   0.00000  Uiso   1.00
C26    C     0.21470   0.99957   0.59612   0.00000  Uiso   1.00
C27    C     0.81391   0.00033   0.31322   0.00000  Uiso   1.00
C28    C     0.18609   0.99966   0.68678   0.00000  Uiso   1.00
C29    C     0.97800   0.99999   0.31281   0.00000  Uiso   1.00
C30    C     0.02201   0.00001   0.68719   0.00000  Uiso   1.00
C31    C     0.95020   0.00007   0.40495   0.00000  Uiso   1.00
C32    C     0.04981   0.99993   0.59505   0.00000  Uiso   1.00
C33    C     0.85259   0.00031   0.44921   0.00000  Uiso   1.00
C34    C     0.14741   0.99969   0.55079   0.00000  Uiso   1.00
C35    C     0.01663   0.99993   0.45375   0.00000  Uiso   1.00
C36    C     0.98337   0.00006   0.54625   0.00000  Uiso   1.00
C37    C     0.88431   0.00034   0.58769   0.00000  Uiso   1.00
C38    C     0.11569   0.99966   0.41231   0.00000  Uiso   1.00
C39    C     0.82061   0.00044   0.53959   0.00000  Uiso   1.00
C40    C     0.17939   0.99955   0.46041   0.00000  Uiso   1.00
H11    H     0.74429   0.00064   0.57401   0.00000  Uiso   1.00
H12    H     0.25571   0.99935   0.42599   0.00000  Uiso   1.00
H13    H     0.94819   0.00016   0.72682   0.00000  Uiso   1.00
H14    H     0.05181   0.99985   0.27318   0.00000  Uiso   1.00
H15    H     0.24002   0.99955   0.72095   0.00000  Uiso   1.00
H16    H     0.75998   0.00044   0.27905   0.00000  Uiso   1.00
H17    H     0.70929   0.00061   0.43950   0.00000  Uiso   1.00
H18    H     0.29071   0.99938   0.56049   0.00000  Uiso   1.00
H19    H     0.85138   0.00049   0.65796   0.00000  Uiso   1.00
H20    H     0.14862   0.99950   0.34204   0.00000  Uiso   1.00
C41    C     0.50350   0.07793   0.97389   0.00000  Uiso   1.00
C42    C     0.49650   0.92207   0.02611   0.00000  Uiso   1.00
C43    C     0.56145   0.01645   0.91903   0.00000  Uiso   1.00
C44    C     0.43855   0.98355   0.08096   0.00000  Uiso   1.00
H21    H     0.61449   0.03017   0.85160   0.00000  Uiso   1.00
H22    H     0.38551   0.96983   0.14840   0.00000  Uiso   1.00
H23    H     0.50454   0.14283   0.95217   0.00000  Uiso   1.00
H24    H     0.49546   0.85718   0.04783   0.00000  Uiso   1.00
H25    H     0.43850   0.88637   0.90045   0.00000  Uiso   1.00
H26    H     0.56151   0.11363   0.09955   0.00000  Uiso   1.00
N1     N     0.77031   0.00111   0.99886   0.00000  Uiso   1.00
N2     N     0.22969   0.99889   0.00114   0.00000  Uiso   1.00
C45    C     0.53253   0.06198   0.05433   0.00000  Uiso   1.00
C46    C     0.46747   0.93802   0.94567   0.00000  Uiso   1.00
C47    C     0.58887   0.00050   0.99948   0.00000  Uiso   1.00
C48    C     0.41113   0.99950   0.00052   0.00000  Uiso   1.00
C49    C     0.69043   0.00094   0.99903   0.00000  Uiso   1.00
C50    C     0.30957   0.99906   0.00096   0.00000  Uiso   1.00
