# Generated by REPEAT Assigner based on pymatgen
data_DB0-m2_o2_o27_f0_pcu.sym.31_sqe
_audit_creation_date              2022-05-24
_audit_creation_method            REPEAT_Assigner
_cell_length_a                    15.305991
_cell_length_b                    13.694843
_cell_length_c                    19.245123
_cell_angle_alpha                 90.000000
_cell_angle_beta                  90.001448
_cell_angle_gamma                 90.000000
_cell_volume                      4034.030799
_symmetry_space_group_name_H-M    P1
_symmetry_Int_Tables_number       1
loop_
    _symmetry_equiv_pos_site_id
    _symmetry_equiv_pos_as_xyz
    1  x,y,z
loop_
    _atom_site_type_symbol
    _atom_site_label
    _atom_site_fract_x
    _atom_site_fract_y
    _atom_site_fract_z
    _atom_type_partial_charge
    O   O1   0.363315  0.570479  0.496077  -0.513838
    O   O2   0.616701  0.402670  0.499858  -0.596036
    O   O3   0.617292  0.569378  0.492449  -0.489701
    O   O4   0.362792  0.404192  0.500536  -0.519126
    C   C1   0.320339  0.487492  0.500053  0.737543
    C   C2   0.659172  0.485701  0.496152  0.792110
    O   O5   0.485111  0.570076  0.395829  -0.574620
    O   O6   0.493161  0.403621  0.598584  -0.503650
    O   O7   0.489508  0.571080  0.597762  -0.557209
    O   O8   0.492343  0.402872  0.396629  -0.553179
    C   C3   0.488071  0.486279  0.363537  0.557766
    C   C4   0.491784  0.487486  0.630883  0.534259
    Cu  Cu1  0.490204  0.584125  0.496588  0.764526
    Cu  Cu2  0.489793  0.389444  0.497713  0.785668
    C   C5   0.483494  0.573485  0.251357  -0.148682
    C   C6   0.496068  0.400336  0.743515  -0.212140
    C   C7   0.489634  0.574336  0.743583  -0.144589
    C   C8   0.491737  0.399534  0.250983  -0.184736
    H   H1   0.479336  0.642334  0.278484  0.113571
    H   H2   0.498746  0.331269  0.716424  0.160978
    H   H3   0.487114  0.643451  0.716547  0.099186
    H   H4   0.494193  0.330263  0.277711  0.125470
    C   C9   0.484881  0.574081  0.179701  0.138740
    C   C10  0.495953  0.400159  0.815218  0.171060
    C   C11  0.489425  0.574171  0.815196  0.135505
    C   C12  0.493204  0.399989  0.179411  0.157463
    H   H5   0.482179  0.643603  0.153102  0.021545
    H   H6   0.498541  0.330881  0.842098  0.003774
    H   H7   0.486810  0.643187  0.842140  0.020569
    H   H8   0.497196  0.330893  0.152566  0.015462
    C   C13  0.489820  0.487206  0.143250  -0.513823
    C   C14  0.492459  0.487151  0.851586  -0.515799
    C   C15  0.487485  0.486204  0.287409  0.070454
    C   C16  0.492619  0.487531  0.707214  0.082596
    N   N1   0.495320  0.402580  0.031800  -0.342147
    N   N2   0.487478  0.572007  0.963008  -0.335761
    N   N3   0.495886  0.402519  0.963122  -0.334308
    N   N4   0.486898  0.572065  0.031700  -0.340755
    C   C17  0.491999  0.487215  0.927882  0.901634
    C   C18  0.490857  0.487340  0.066974  0.905759
    C   C19  0.083569  0.574473  0.492242  -0.449494
    C   C20  0.895242  0.414626  0.460626  -0.463870
    C   C21  0.894572  0.561486  0.525762  -0.423829
    C   C22  0.082195  0.402639  0.502537  -0.376625
    H   H9   0.047293  0.640831  0.483203  0.165645
    H   H10  0.933438  0.362152  0.432095  0.168330
    H   H11  0.928927  0.618658  0.553040  0.167844
    H   H12  0.045453  0.335917  0.508940  0.134494
    C   C23  0.173609  0.576025  0.502195  0.447555
    C   C24  0.804220  0.409008  0.463978  0.432139
    C   C25  0.804445  0.561713  0.527150  0.397353
    C   C26  0.172636  0.399883  0.505154  0.328038
    C   C27  0.221476  0.487641  0.502171  -0.485933
    C   C28  0.756995  0.485060  0.496214  -0.509208
    C   C29  0.037256  0.488646  0.493917  0.218872
    C   C30  0.940605  0.488961  0.492584  0.257671
    C   C31  0.514845  0.093315  0.556309  -0.274144
    C   C32  0.436361  0.880597  0.453466  -0.249760
    C   C33  0.467229  0.092993  0.439256  -0.265147
    C   C34  0.543874  0.879484  0.542088  -0.144335
    H   H13  0.532825  0.057512  0.604140  0.137263
    H   H14  0.390785  0.917141  0.419579  0.125568
    H   H15  0.451596  0.057170  0.390900  0.142439
    H   H16  0.588715  0.914535  0.577415  0.084309
    C   C35  0.514331  0.193973  0.555301  0.192231
    C   C36  0.437862  0.779793  0.452817  0.077540
    C   C37  0.464365  0.193632  0.440882  0.058533
    C   C38  0.541380  0.778882  0.541636  0.070208
    H   H17  0.534129  0.232642  0.601450  0.033925
    H   H18  0.396092  0.740762  0.417157  0.119633
    H   H19  0.442792  0.231954  0.394987  0.101009
    H   H20  0.581756  0.739107  0.577784  0.095371
    N   N5   0.489356  0.243195  0.497975  -0.092845
    N   N6   0.490969  0.730281  0.496063  -0.117228
    C   C39  0.491281  0.040734  0.497752  0.179346
    C   C40  0.490891  0.932410  0.497644  0.117651
    C   C41  0.216705  0.673422  0.515006  -0.363314
    C   C42  0.155226  0.751410  0.538278  0.347117
    C   C43  0.141807  0.832927  0.497508  -0.304923
    C   C44  0.088234  0.907053  0.520513  -0.038893
    C   C45  0.047772  0.900059  0.584402  -0.186636
    C   C46  0.061322  0.818757  0.625356  -0.074774
    C   C47  0.115384  0.744868  0.602528  -0.225464
    H   H21  0.250525  0.697192  0.467037  0.087079
    H   H22  0.263618  0.666154  0.558447  0.100767
    H   H23  0.173341  0.839455  0.447498  0.133039
    H   H24  0.078732  0.971005  0.488483  0.098364
    H   H25  0.006065  0.958560  0.602556  0.116275
    H   H26  0.030222  0.813162  0.675675  0.101076
    H   H27  0.126452  0.681648  0.634972  0.115930
    C   C48  0.757530  0.323430  0.430578  -0.302582
    C   C49  0.816801  0.246806  0.402123  0.207169
    C   C50  0.829741  0.238242  0.331393  -0.227700
    C   C51  0.883437  0.165858  0.305784  -0.067170
    C   C52  0.923437  0.101270  0.350621  -0.170240
    C   C53  0.909855  0.109097  0.421205  -0.035391
    C   C54  0.855970  0.181153  0.446926  -0.134238
    H   H28  0.714187  0.350609  0.388561  0.109629
    H   H29  0.718083  0.284578  0.470021  0.081866
    H   H30  0.798652  0.288493  0.295805  0.113837
    H   H31  0.894156  0.159911  0.250465  0.101254
    H   H32  0.965212  0.044357  0.330352  0.101719
    H   H33  0.940791  0.058306  0.456417  0.084317
    H   H34  0.844976  0.186684  0.502321  0.087400
    C   C55  0.764062  0.645038  0.566394  -0.416980
    C   C56  0.764119  0.737092  0.523767  0.347004
    C   C57  0.777308  0.826255  0.556152  -0.223329
    C   C58  0.775013  0.911748  0.518115  -0.025017
    C   C59  0.759458  0.908880  0.447609  -0.194791
    C   C60  0.747557  0.820536  0.414883  -0.029952
    C   C61  0.749736  0.734955  0.452587  -0.261470
    H   H35  0.803627  0.657739  0.613811  0.094323
    H   H36  0.698288  0.628200  0.586567  0.115138
    H   H37  0.788322  0.830051  0.611594  0.103529
    H   H38  0.784541  0.981266  0.543724  0.070080
    H   H39  0.756182  0.975738  0.417851  0.110545
    H   H40  0.735707  0.818384  0.359501  0.087056
    H   H41  0.739120  0.667206  0.425201  0.123256
    C   C62  0.211078  0.299338  0.513881  -0.226250
    C   C63  0.246641  0.280225  0.585339  0.308354
    C   C64  0.288018  0.192044  0.596706  -0.269467
    C   C65  0.320573  0.169011  0.661427  -0.033093
    C   C66  0.311865  0.234083  0.715490  -0.202160
    C   C67  0.269170  0.321300  0.705150  -0.025335
    C   C68  0.235963  0.344469  0.640592  -0.280622
    H   H42  0.260286  0.283497  0.473227  0.065897
    H   H43  0.159648  0.243823  0.505088  0.044469
    H   H44  0.294858  0.140264  0.554674  0.129297
    H   H45  0.352934  0.099821  0.669683  0.075331
    H   H46  0.337934  0.216543  0.766150  0.118209
    H   H47  0.261271  0.371638  0.747969  0.088635
    H   H48  0.201395  0.412755  0.635634  0.135746
