# Generated by REPEAT Assigner based on pymatgen
data_DB0-m3_o3_o5_f0_pcu.sym.27
_audit_creation_date              2022-05-24
_audit_creation_method            REPEAT_Assigner
_cell_length_a                    19.443690
_cell_length_b                    18.439340
_cell_length_c                    9.300653
_cell_angle_alpha                 90.000000
_cell_angle_beta                  90.007167
_cell_angle_gamma                 90.000000
_cell_volume                      3334.552225
_symmetry_space_group_name_H-M    P1
_symmetry_Int_Tables_number       1
loop_
    _symmetry_equiv_pos_site_id
    _symmetry_equiv_pos_as_xyz
    1  x,y,z
loop_
    _atom_site_type_symbol
    _atom_site_label
    _atom_site_fract_x
    _atom_site_fract_y
    _atom_site_fract_z
    _atom_type_partial_charge
    O   O1   0.397583  0.562746  0.501248  -0.714137
    O   O2   0.602417  0.437254  0.498752  -0.714127
    O   O3   0.602435  0.562703  0.498724  -0.714515
    O   O4   0.397565  0.437297  0.501275  -0.714521
    C   C1   0.365437  0.500026  0.501699  0.780221
    C   C2   0.634563  0.499974  0.498301  0.780207
    O   O5   0.500071  0.562502  0.285972  -0.572098
    O   O6   0.499929  0.437498  0.714028  -0.572092
    O   O7   0.499950  0.562524  0.714020  -0.572334
    O   O8   0.500050  0.437476  0.285980  -0.572329
    C   C3   0.500101  0.499989  0.219121  0.720629
    C   C4   0.499899  0.500011  0.780879  0.720623
    Zn  Zn1  0.500013  0.583075  0.499991  1.020289
    Zn  Zn2  0.499987  0.416925  0.500009  1.020265
    C   C5   0.500036  0.499994  0.064792  -0.138173
    C   C6   0.499964  0.500006  0.935208  -0.138163
    C   C7   0.745949  0.435279  0.497979  -0.092243
    C   C8   0.254052  0.564721  0.502019  -0.092250
    C   C9   0.254046  0.435348  0.502125  -0.093300
    C   C10  0.745954  0.564652  0.497876  -0.093300
    H   H1   0.719247  0.383893  0.497220  0.101077
    H   H2   0.280753  0.616107  0.502777  0.101083
    H   H3   0.280742  0.383958  0.501492  0.101302
    H   H4   0.719258  0.616041  0.498510  0.101304
    C   C11  0.816871  0.435304  0.498524  -0.165977
    C   C12  0.183130  0.564696  0.501474  -0.165966
    C   C13  0.183124  0.435377  0.502103  -0.166055
    C   C14  0.816876  0.564623  0.497898  -0.166056
    H   H5   0.843662  0.383993  0.495717  0.106723
    H   H6   0.156338  0.616007  0.504280  0.106715
    H   H7   0.156342  0.384066  0.498984  0.107747
    H   H8   0.843659  0.615934  0.501018  0.107744
    C   C15  0.852889  0.499962  0.498466  0.113699
    C   C16  0.147111  0.500038  0.501534  0.113695
    C   C17  0.710027  0.499967  0.497909  -0.052539
    C   C18  0.289974  0.500033  0.502091  -0.052540
    C   C19  0.964713  0.551006  0.420925  -0.142893
    C   C20  0.035287  0.448993  0.579075  -0.142901
    C   C21  0.035634  0.551041  0.421723  -0.135739
    C   C22  0.964366  0.448958  0.578276  -0.135745
    H   H9   0.938085  0.590276  0.355090  0.106900
    H   H10  0.061916  0.409724  0.644910  0.106904
    H   H11  0.062553  0.590328  0.356462  0.106001
    H   H12  0.937447  0.409671  0.643537  0.106003
    C   C23  0.071487  0.500037  0.500807  0.058519
    C   C24  0.928513  0.499963  0.499192  0.058522
    C   C25  0.529142  0.731657  0.611159  0.064126
    C   C26  0.470858  0.268342  0.388841  0.064118
    C   C27  0.470925  0.731658  0.388780  0.064382
    C   C28  0.529075  0.268342  0.611219  0.064381
    C   C29  0.526435  0.806900  0.612450  -0.153623
    C   C30  0.473566  0.193100  0.387549  -0.153626
    C   C31  0.473610  0.806902  0.387518  -0.154022
    C   C32  0.526390  0.193097  0.612481  -0.154022
    H   H13  0.543464  0.837641  0.704409  0.132772
    H   H14  0.456535  0.162360  0.295590  0.132775
    H   H15  0.456577  0.837648  0.295570  0.132851
    H   H16  0.543423  0.162350  0.704429  0.132848
    C   C33  0.500015  0.844877  0.499993  0.119429
    C   C34  0.499985  0.155123  0.500007  0.119439
    N   N1   0.500033  0.692387  0.499969  -0.091293
    N   N2   0.499967  0.307613  0.500030  -0.091287
    C   C35  0.444249  0.962602  0.446691  -0.143144
    C   C36  0.555751  0.037398  0.553308  -0.143120
    C   C37  0.555757  0.962612  0.553309  -0.142666
    C   C38  0.444243  0.037388  0.446690  -0.142657
    H   H17  0.399314  0.934268  0.407703  0.132463
    H   H18  0.600686  0.065733  0.592296  0.132454
    H   H19  0.600697  0.934286  0.592296  0.132296
    H   H20  0.399302  0.065713  0.407703  0.132294
    C   C39  0.499994  0.075373  0.499999  0.087427
    C   C40  0.500007  0.924627  0.500001  0.087441
    C   C41  0.562631  0.699288  0.742807  0.543448
    F   F1   0.605014  0.749695  0.808022  -0.227469
    F   F2   0.604146  0.641464  0.709720  -0.115590
    F   F3   0.512731  0.680146  0.841594  -0.172241
    C   C42  0.437369  0.300712  0.257192  0.543452
    F   F4   0.394987  0.250305  0.191977  -0.227469
    F   F5   0.487269  0.319854  0.158406  -0.172240
    F   F6   0.395854  0.358536  0.290280  -0.115590
    C   C43  0.437473  0.699285  0.257095  0.543652
    F   F7   0.395129  0.749693  0.191778  -0.227407
    F   F8   0.395930  0.641478  0.290157  -0.116118
    F   F9   0.487406  0.680117  0.158398  -0.172385
    C   C44  0.562527  0.300715  0.742905  0.543656
    F   F10  0.604872  0.250307  0.808221  -0.227412
    F   F11  0.512595  0.319883  0.841601  -0.172379
    F   F12  0.604071  0.358522  0.709842  -0.116125
