data_DB0-m2_o11_o23_f0_pcu.sym.15_repeat
_audit_creation_date              2024-02-23
_audit_creation_method            'Materials Studio'
_symmetry_space_group_name_H-M    'P1'
_symmetry_Int_Tables_number       1
_symmetry_cell_setting            triclinic
loop_
_symmetry_equiv_pos_as_xyz
  x,y,z
_cell_length_a                    15.8627
_cell_length_b                    11.0431
_cell_length_c                    9.5659
_cell_angle_alpha                 90.0205
_cell_angle_beta                  89.9973
_cell_angle_gamma                 89.9983
loop_
_atom_site_label
_atom_site_type_symbol
_atom_site_fract_x
_atom_site_fract_y
_atom_site_fract_z
_atom_site_U_iso_or_equiv
_atom_site_adp_type
_atom_site_occupancy
O1     O     0.49095   0.32142   0.61491   0.00000  Uiso   1.00
O2     O     0.49753   0.32364   0.37442   0.00000  Uiso   1.00
C1     C     0.49384   0.26558   0.49374   0.00000  Uiso   1.00
O3     O     0.37410   0.50525   0.62020   0.00000  Uiso   1.00
O4     O     0.37281   0.49622   0.37951   0.00000  Uiso   1.00
C2     C     0.33427   0.50112   0.50023   0.00000  Uiso   1.00
Cu1    Cu    0.49642   0.49705   0.63770   0.00000  Uiso   1.00
Cu2    Cu    0.49588   0.49965   0.35797   0.00000  Uiso   1.00
O5     O     0.49636   0.67309   0.62130   0.00000  Uiso   1.00
O6     O     0.49862   0.67554   0.38109   0.00000  Uiso   1.00
O7     O     0.61899   0.49761   0.61580   0.00000  Uiso   1.00
O8     O     0.61775   0.49450   0.37565   0.00000  Uiso   1.00
C3     C     0.49853   0.73086   0.50232   0.00000  Uiso   1.00
C4     C     0.65768   0.49521   0.49531   0.00000  Uiso   1.00
C5     C     0.04285   0.42879   0.62423   0.00000  Uiso   1.00
C6     C     0.04547   0.43707   0.36786   0.00000  Uiso   1.00
C7     C     0.95013   0.42843   0.37111   0.00000  Uiso   1.00
H1     H     0.92107   0.34213   0.63347   0.00000  Uiso   1.00
H2     H     0.06210   0.33271   0.61297   0.00000  Uiso   1.00
H3     H     0.07262   0.34460   0.36439   0.00000  Uiso   1.00
H4     H     0.93217   0.33174   0.38101   0.00000  Uiso   1.00
H5     H     0.92272   0.46307   0.27235   0.00000  Uiso   1.00
C8     C     0.74795   0.49563   0.49407   0.00000  Uiso   1.00
C9     C     0.07564   0.50052   0.49954   0.00000  Uiso   1.00
C10    C     0.94725   0.43518   0.62808   0.00000  Uiso   1.00
C11    C     0.91619   0.49759   0.49684   0.00000  Uiso   1.00
C12    C     0.94682   0.62837   0.49920   0.00000  Uiso   1.00
C13    C     0.04301   0.63051   0.50061   0.00000  Uiso   1.00
C14    C     0.82390   0.49635   0.49475   0.00000  Uiso   1.00
C15    C     0.16774   0.50158   0.50149   0.00000  Uiso   1.00
C16    C     0.24369   0.50192   0.50170   0.00000  Uiso   1.00
H6     H     0.06695   0.67846   0.40703   0.00000  Uiso   1.00
H7     H     0.92216   0.67209   0.59516   0.00000  Uiso   1.00
H8     H     0.06961   0.46328   0.72355   0.00000  Uiso   1.00
H9     H     0.92618   0.48648   0.72135   0.00000  Uiso   1.00
C17    C     0.50394   0.92852   0.38912   0.00000  Uiso   1.00
C18    C     0.50174   0.86354   0.50676   0.00000  Uiso   1.00
H10    H     0.50475   0.88232   0.28927   0.00000  Uiso   1.00
H11    H     0.50540   0.90504   0.60888   0.00000  Uiso   1.00
C19    C     0.50795   0.06243   0.38507   0.00000  Uiso   1.00
C20    C     0.49059   0.13236   0.49647   0.00000  Uiso   1.00
H12    H     0.47289   0.09219   0.59533   0.00000  Uiso   1.00
C21    C     0.44212   0.43793   0.92182   0.00000  Uiso   1.00
N1     N     0.49763   0.49366   0.84724   0.00000  Uiso   1.00
H13    H     0.55184   0.52161   0.89640   0.00000  Uiso   1.00
C22    C     0.44764   0.42970   0.07616   0.00000  Uiso   1.00
N2     N     0.49366   0.50220   0.14868   0.00000  Uiso   1.00
H14    H     0.51648   0.57796   0.09884   0.00000  Uiso   1.00
O9     O     0.91467   0.69255   0.38482   0.00000  Uiso   1.00
H15    H     0.94628   0.66555   0.30141   0.00000  Uiso   1.00
O10    O     0.52753   0.11498   0.25957   0.00000  Uiso   1.00
H16    H     0.58988   0.11865   0.25808   0.00000  Uiso   1.00
O11    O     0.37713   0.37852   0.85750   0.00000  Uiso   1.00
H17    H     0.39807   0.29480   0.84612   0.00000  Uiso   1.00
O12    O     0.39921   0.34465   0.14237   0.00000  Uiso   1.00
H18    H     0.42667   0.26649   0.12058   0.00000  Uiso   1.00
O13    O     0.07151   0.50004   0.24902   0.00000  Uiso   1.00
H19    H     0.10251   0.43915   0.19301   0.00000  Uiso   1.00
O14    O     0.07384   0.69399   0.61665   0.00000  Uiso   1.00
H20    H     0.04540   0.66135   0.70040   0.00000  Uiso   1.00
