# Generated by REPEAT Assigner based on pymatgen
data_DB0-m9_o11_o22_f0_sra.sym.48_sqe
_audit_creation_date              2022-05-24
_audit_creation_method            REPEAT_Assigner
_cell_length_a                    6.329901
_cell_length_b                    13.244164
_cell_length_c                    15.803647
_cell_angle_alpha                 90.542648
_cell_angle_beta                  89.949948
_cell_angle_gamma                 90.007270
_cell_volume                      1324.826911
_symmetry_space_group_name_H-M    P1
_symmetry_Int_Tables_number       1
loop_
    _symmetry_equiv_pos_site_id
    _symmetry_equiv_pos_as_xyz
    1  x,y,z
loop_
    _atom_site_type_symbol
    _atom_site_label
    _atom_site_fract_x
    _atom_site_fract_y
    _atom_site_fract_z
    _atom_type_partial_charge
    O  O1   0.551087  0.381454  0.458967  -0.455227
    O  O2   0.752657  0.378574  0.558150  -0.383601
    O  O3   0.967808  0.544891  0.617752  -0.661399
    C  C1   0.633565  0.399974  0.625207  0.612402
    O  O4   0.842590  0.437864  0.390919  -0.649733
    O  O5   0.051411  0.603817  0.450522  -0.390773
    C  C2   0.666564  0.386926  0.390657  0.676472
    O  O6   0.468320  0.460697  0.621040  -0.543332
    O  O7   0.655612  0.573420  0.503421  -0.618319
    V  V1   0.929931  0.483516  0.504940  1.435256
    O  O8   0.343120  0.538421  0.387501  -0.643223
    C  C3   0.170263  0.590737  0.383508  0.712782
    O  O9   0.252360  0.619053  0.549884  -0.533851
    C  C4   0.134465  0.604887  0.618558  0.515014
    V  V2   0.429778  0.507956  0.504423  1.512101
    O  O10  0.155395  0.418146  0.509005  -0.611677
    C  C5   0.974801  0.655738  0.753030  0.074224
    H  H1   0.820376  0.642189  0.721840  0.027147
    H  H2   0.025157  0.586463  0.786321  -0.021036
    C  C6   0.953578  0.741836  0.816042  -0.357561
    H  H3   0.951320  0.711382  0.881158  0.083686
    H  H4   0.804944  0.783601  0.803991  0.035899
    H  H5   0.922919  0.787418  0.630562  0.031330
    H  H6   0.985010  0.917523  0.722175  0.036704
    C  C7   0.089470  0.785992  0.652222  -0.095300
    C  C8   0.354350  0.685653  0.728904  -0.381079
    C  C9   0.139225  0.682618  0.687306  0.365855
    H  H7   0.470947  0.717540  0.684066  0.070465
    H  H8   0.403017  0.608299  0.746761  0.062356
    C  C10  0.139093  0.812631  0.805823  0.353464
    C  C11  0.121331  0.864937  0.721289  -0.102478
    C  C12  0.342109  0.751925  0.807546  0.277668
    H  H9   0.343075  0.703866  0.864626  -0.045814
    H  H10  0.479873  0.803644  0.809277  -0.019933
    H  H11  0.195733  0.802380  0.598243  0.032188
    H  H12  0.268720  0.907652  0.708996  0.006421
    C  C13  0.003680  0.730258  0.310799  -0.070086
    C  C14  0.150597  0.658611  0.311810  -0.296794
    H  H13  0.893245  0.736338  0.363060  0.098854
    H  H14  0.262136  0.649991  0.260538  0.179094
    C  C15  0.988293  0.802054  0.240662  0.000788
    C  C16  0.130076  0.805418  0.178222  -0.250287
    H  H15  0.857787  0.855034  0.240285  0.107895
    H  H16  0.265032  0.755599  0.175721  0.133933
    C  C17  0.770241  0.173026  0.758427  -0.008701
    C  C18  0.625485  0.170852  0.819492  -0.255413
    H  H17  0.892139  0.115561  0.756783  0.097461
    H  H18  0.499710  0.225818  0.822916  0.146762
    C  C19  0.768092  0.250445  0.692407  -0.036488
    C  C20  0.635247  0.328418  0.694738  -0.307840
    H  H19  0.877713  0.243507  0.639935  0.089630
    H  H20  0.524488  0.339333  0.746026  0.175282
    C  C21  0.773031  0.222983  0.197620  -0.055746
    C  C22  0.601813  0.166005  0.185162  -0.440700
    H  H21  0.462088  0.177315  0.223514  0.278091
    C  C23  0.782444  0.301905  0.263630  0.015679
    C  C24  0.635407  0.311949  0.323328  -0.290087
    H  H22  0.920313  0.350240  0.266826  0.126582
    H  H23  0.499225  0.262690  0.325401  0.105705
    O  O11  0.803277  0.034412  0.884761  -0.519929
    O  O12  0.428559  0.031278  0.115044  -0.692311
    O  O13  0.220138  0.872756  0.043145  -0.430210
    C  C25  0.596551  0.087502  0.118558  0.729265
    O  O14  0.519171  0.108852  0.953495  -0.569848
    O  O15  0.303638  0.949137  0.881181  -0.578050
    C  C26  0.635657  0.093920  0.884741  0.599330
    O  O16  0.720413  0.095526  0.052442  -0.270343
    O  O17  0.615894  0.908792  0.992876  -0.686674
    V  V3   0.341586  0.998446  0.998036  1.492619
    O  O18  0.018892  0.868278  0.943431  -0.403948
    C  C27  0.138839  0.888044  0.876434  0.373933
    O  O19  0.928139  0.930521  0.110940  -0.529901
    C  C28  0.102306  0.878844  0.110965  0.563154
    V  V4   0.841528  0.974126  0.997048  1.427632
    O  O20  0.116074  0.064021  0.998971  -0.622433
    C  C29  0.969165  0.197284  0.150995  0.384139
    C  C30  0.143564  0.270841  0.173918  -0.364799
    C  C31  0.030993  0.092253  0.177905  -0.143097
    H  H24  0.941271  0.200123  0.081907  -0.046951
    H  H25  0.179888  0.265302  0.242355  0.099858
    H  H26  0.092741  0.348751  0.158828  0.051976
    H  H27  0.286962  0.252184  0.136582  0.065559
    H  H28  0.131517  0.096879  0.235248  -0.038989
    H  H29  0.116365  0.053857  0.126333  0.148626
    H  H30  0.885848  0.048993  0.192720  0.010683
