# Generated by REPEAT Assigner based on pymatgen
data_DB0-m2_o9_o14_f0_nbo.sym.22
_audit_creation_date              2022-05-24
_audit_creation_method            REPEAT_Assigner
_cell_length_a                    18.812770
_cell_length_b                    18.564510
_cell_length_c                    18.679241
_cell_angle_alpha                 109.078172
_cell_angle_beta                  109.617824
_cell_angle_gamma                 109.737568
_cell_volume                      5020.588321
_symmetry_space_group_name_H-M    P1
_symmetry_Int_Tables_number       1
loop_
    _symmetry_equiv_pos_site_id
    _symmetry_equiv_pos_as_xyz
    1  x,y,z
loop_
    _atom_site_type_symbol
    _atom_site_label
    _atom_site_fract_x
    _atom_site_fract_y
    _atom_site_fract_z
    _atom_type_partial_charge
    C   C1    0.377412  0.506679  0.393704  0.736144
    C   C2    0.787189  0.858127  0.840826  -0.250518
    C   C3    0.332572  0.312320  0.804401  -0.192203
    C   C4    0.075601  0.324626  0.816346  -0.143271
    C   C5    0.996241  0.313664  0.807347  0.007270
    C   C6    0.919689  0.239963  0.734387  0.033870
    C   C7    0.924411  0.180199  0.671431  -0.189987
    C   C8    0.003860  0.191274  0.681010  -0.026900
    C   C9    0.080044  0.263259  0.754799  -0.047660
    C   C10   0.775476  0.148272  0.711366  -0.099123
    C   C11   0.693042  0.132276  0.695292  -0.306277
    C   C12   0.667524  0.191633  0.686088  0.362045
    C   C13   0.818099  0.832403  0.581197  -0.144356
    C   C14   0.724278  0.266761  0.692516  -0.233897
    C   C15   0.806806  0.282924  0.708982  -0.094333
    C   C16   0.833058  0.224366  0.719580  0.114443
    C   C17   0.809812  0.820079  0.501325  -0.134012
    C   C18   0.733177  0.751365  0.425026  0.170598
    C   C19   0.669995  0.691757  0.430162  -0.210989
    C   C20   0.678267  0.703969  0.509966  0.051375
    C   C21   0.751257  0.777423  0.586188  -0.020920
    C   C22   0.645723  0.733937  0.281946  0.391796
    C   C23   0.629570  0.717068  0.198839  -0.303632
    C   C24   0.685103  0.702248  0.171146  -0.055035
    C   C25   0.613102  0.634235  0.511177  0.631817
    C   C26   0.756885  0.704351  0.226648  -0.167785
    C   C27   0.773396  0.721851  0.309959  -0.044835
    C   C28   0.718316  0.737228  0.338178  -0.122669
    C   C29   0.419339  0.800778  0.522976  -0.108451
    C   C30   0.355159  0.716178  0.456793  -0.168390
    C   C31   0.374020  0.664805  0.402452  0.160392
    C   C32   0.456609  0.699183  0.412894  -0.165543
    C   C33   0.520422  0.784196  0.478327  -0.019683
    C   C34   0.501956  0.834809  0.533711  -0.165136
    C   C35   0.239786  0.570788  0.260813  -0.264428
    C   C36   0.623482  0.517220  0.627765  0.720283
    C   C37   0.175140  0.490112  0.187900  0.026220
    C   C38   0.174667  0.414073  0.183998  -0.113288
    C   C39   0.240999  0.420644  0.252040  0.355056
    C   C40   0.306120  0.501815  0.324709  -0.240135
    C   C41   0.304591  0.577140  0.329407  0.105961
    C   C42   0.051772  0.263211  0.113137  0.350545
    C   C43   0.991287  0.180869  0.040735  -0.284913
    C   C44   0.988280  0.161872  0.961685  -0.059584
    C   C45   0.045772  0.225294  0.955007  -0.179111
    C   C46   0.105896  0.307947  0.027163  -0.107612
    C   C47   0.387631  0.389546  0.512815  0.732745
    C   C48   0.108977  0.327286  0.106510  0.025171
    C   C49   0.255101  0.536423  0.578086  -0.062293
    C   C50   0.267979  0.467985  0.579559  -0.138658
    C   C51   0.232464  0.392072  0.502235  0.071849
    C   C52   0.182292  0.383925  0.423510  -0.299632
    C   C53   0.169137  0.452322  0.422106  0.430340
    C   C54   0.205867  0.528680  0.499332  -0.330950
    C   C55   0.180758  0.249456  0.497065  -0.212075
    C   C56   0.192854  0.181875  0.502864  -0.030835
    C   C57   0.269623  0.182814  0.512933  0.004281
    C   C58   0.718471  0.852986  0.777543  -0.046613
    C   C59   0.332909  0.251143  0.516263  -0.124469
    C   C60   0.321421  0.319660  0.512538  -0.164839
    C   C61   0.245547  0.319418  0.504278  0.201258
    C   C62   0.354402  0.127874  0.587419  -0.143808
    C   C63   0.368526  0.060288  0.589869  -0.075786
    C   C64   0.312816  0.975615  0.520046  -0.170153
    C   C65   0.243028  0.958514  0.447664  -0.004154
    C   C66   0.228275  0.025848  0.445525  -0.157747
    C   C67   0.283486  0.110614  0.515796  0.106967
    C   C68   0.772684  0.525898  0.612771  -0.262448
    C   C69   0.705880  0.825056  0.694050  -0.201875
    C   C70   0.839085  0.521912  0.599499  -0.103775
    C   C71   0.898987  0.511660  0.655253  -0.000970
    C   C72   0.894064  0.507615  0.725760  -0.330044
    C   C73   0.828696  0.513937  0.741837  0.279575
    C   C74   0.765517  0.519950  0.682540  0.166599
    C   C75   0.696309  0.520918  0.693802  -0.155824
    C   C76   0.692149  0.518857  0.765263  -0.136168
    C   C77   0.754422  0.513038  0.824120  -0.064254
    C   C78   0.823097  0.510895  0.813748  -0.153161
    C   C79   0.000474  0.875480  0.388530  0.600844
    C   C80   0.760204  0.799472  0.672610  0.177948
    C   C81   0.880044  0.884524  0.500243  0.767164
    C   C82   0.005212  0.122636  0.615836  0.765697
    C   C83   0.124746  0.112738  0.501545  0.777110
    C   C84   0.996917  0.380126  0.877260  0.651945
    C   C85   0.110265  0.488894  0.116269  0.741881
    C   C86   0.998824  0.615998  0.119071  0.646088
    C   C87   0.887450  0.505798  0.880483  0.803229
    C   C88   0.074262  0.749892  0.542600  -0.256799
    C   C89   0.072241  0.767784  0.476136  -0.091843
    C   C90   0.998059  0.716701  0.394350  0.019110
    C   C91   0.829942  0.806283  0.736598  -0.309247
    C   C92   0.928047  0.644236  0.378180  -0.004969
    C   C93   0.929952  0.626466  0.444722  -0.342830
    C   C94   0.002848  0.679681  0.527128  0.386986
    C   C95   0.991192  0.668874  0.252827  -0.196029
    C   C96   0.997908  0.683085  0.186778  -0.038772
    C   C97   0.007943  0.761593  0.188981  0.044670
    C   C98   0.007241  0.822194  0.254920  -0.214098
    C   C99   0.002354  0.808768  0.321771  0.125188
    C   C100  0.997354  0.732625  0.322384  0.046846
    C   C101  0.095841  0.857279  0.150960  -0.187717
    C   C102  0.843316  0.835634  0.820487  0.367406
    C   C103  0.110692  0.876429  0.090286  -0.101397
    C   C104  0.049782  0.822054  0.002470  -0.121968
    C   C105  0.973096  0.749645  0.975461  0.051723
    C   C106  0.958000  0.730560  0.036097  -0.252313
    C   C107  0.020321  0.783314  0.123906  0.200607
    C   C108  0.304374  0.297623  0.860135  -0.049041
    C   C109  0.221590  0.280823  0.843243  -0.219769
    C   C110  0.166083  0.276851  0.769585  0.264784
    C   C111  0.194699  0.292302  0.714206  -0.217370
    C   C112  0.278013  0.310366  0.731889  -0.025815
    Cu  Cu1   0.498516  0.570577  0.572018  0.876508
    Cu  Cu2   0.500995  0.452379  0.450176  0.963318
    Cu  Cu3   0.060634  0.998655  0.564473  0.918711
    Cu  Cu4   0.944685  0.999996  0.439057  0.955267
    Cu  Cu5   0.063846  0.560740  0.003348  0.973541
    Cu  Cu6   0.933798  0.435284  0.995003  0.942673
    F   F1    0.242978  0.346861  0.246866  -0.204297
    F   F2    0.053879  0.281291  0.190422  -0.201523
    F   F3    0.120060  0.444621  0.344897  -0.220865
    F   F4    0.005053  0.661987  0.592443  -0.207003
    F   F5    0.912925  0.844369  0.883608  -0.209360
    F   F6    0.586444  0.175795  0.669973  -0.205802
    F   F7    0.590937  0.748964  0.308643  -0.234643
    H   H1    0.798058  0.881363  0.906752  0.141389
    H   H2    0.829254  0.722907  0.353047  0.068098
    H   H3    0.552154  0.901303  0.585275  0.109011
    H   H4    0.404728  0.840645  0.566079  0.116913
    H   H5    0.290111  0.689982  0.447776  0.110161
    H   H6    0.471039  0.660010  0.368975  0.108365
    H   H7    0.584984  0.811190  0.486229  0.089109
    H   H8    0.240385  0.630184  0.263931  0.134591
    H   H9    0.946306  0.131071  0.046044  0.154737
    H   H10   0.941095  0.097152  0.905047  0.106207
    H   H11   0.043909  0.209926  0.893189  0.133129
    H   H12   0.675472  0.872499  0.793768  0.099008
    H   H13   0.151321  0.357150  0.021649  0.099738
    H   H14   0.195677  0.582297  0.498139  0.159122
    H   H15   0.283441  0.596066  0.638689  0.114546
    H   H16   0.306188  0.473891  0.641375  0.079503
    H   H17   0.153673  0.324137  0.362968  0.152173
    H   H18   0.121474  0.249508  0.490538  0.124164
    H   H19   0.391838  0.250952  0.521527  0.119500
    H   H20   0.398317  0.194192  0.642324  0.108205
    H   H21   0.423396  0.073702  0.646523  0.106283
    H   H22   0.324067  0.922710  0.521843  0.111770
    H   H23   0.654246  0.824960  0.645872  0.120147
    H   H24   0.199876  0.892261  0.392564  0.050629
    H   H25   0.173918  0.012193  0.388231  0.100716
    H   H26   0.638146  0.519005  0.773817  0.117643
    H   H27   0.727737  0.534700  0.567524  0.152162
    H   H28   0.843466  0.525876  0.544557  0.121177
    H   H29   0.950248  0.506801  0.643818  0.082818
    H   H30   0.941644  0.497148  0.765548  0.167008
    H   H31   0.749531  0.511115  0.879557  0.109096
    H   H32   0.132232  0.790447  0.606663  0.142301
    H   H33   0.129621  0.821056  0.488004  0.113675
    H   H34   0.874816  0.789617  0.721422  0.155193
    H   H35   0.870953  0.601862  0.313504  0.089660
    H   H36   0.874412  0.570495  0.432096  0.165221
    H   H37   0.986719  0.609366  0.253075  0.117698
    H   H38   0.012417  0.882121  0.255298  0.104724
    H   H39   0.144699  0.899093  0.219653  0.105249
    H   H40   0.170522  0.933574  0.111518  0.104959
    H   H41   0.061858  0.836615  0.954825  0.102782
    H   H42   0.924922  0.707652  0.906620  0.047627
    H   H43   0.897968  0.673515  0.014613  0.098123
    H   H44   0.397720  0.326180  0.817971  0.120175
    H   H45   0.875747  0.888852  0.640521  0.115693
    H   H46   0.347406  0.299944  0.917472  0.095029
    H   H47   0.200044  0.270155  0.887604  0.111158
    H   H48   0.152531  0.291958  0.657879  0.087507
    H   H49   0.300896  0.323548  0.689235  0.094738
    H   H50   0.135365  0.380986  0.873530  0.113303
    H   H51   0.865065  0.123212  0.614311  0.110233
    H   H52   0.795187  0.101510  0.718502  0.099951
    H   H53   0.648356  0.073103  0.689767  0.171085
    H   H54   0.703903  0.312766  0.684220  0.121227
    H   H55   0.850685  0.340970  0.712590  0.070691
    H   H56   0.612804  0.634868  0.370785  0.128895
    H   H57   0.573143  0.715267  0.155278  0.160572
    H   H58   0.672221  0.688733  0.105883  0.114963
    H   H59   0.800222  0.692212  0.204850  0.100673
    O   O1    0.391519  0.541605  0.474617  -0.517975
    O   O2    0.936535  0.892504  0.363001  -0.540823
    O   O3    0.959422  0.896785  0.539679  -0.581220
    O   O4    0.861567  0.929987  0.463053  -0.589767
    O   O5    0.037129  0.076348  0.640685  -0.615898
    O   O6    0.970641  0.107295  0.534411  -0.605448
    O   O7    0.144101  0.100634  0.569934  -0.555511
    O   O8    0.045281  0.069650  0.433924  -0.639783
    O   O9    0.053479  0.463256  0.910253  -0.597194
    O   O10   0.938705  0.354982  0.900784  -0.556969
    O   O11   0.139166  0.543896  0.089905  -0.629274
    O   O12   0.423726  0.474235  0.370957  -0.596076
    O   O13   0.026872  0.438078  0.085473  -0.594494
    O   O14   0.052103  0.641439  0.090446  -0.557151
    O   O15   0.941805  0.532942  0.085671  -0.565297
    O   O16   0.970953  0.555612  0.910553  -0.610646
    O   O17   0.858619  0.454468  0.910710  -0.612172
    O   O18   0.566561  0.652900  0.545584  -0.499703
    O   O19   0.601487  0.554173  0.473965  -0.599989
    O   O20   0.606041  0.581629  0.650716  -0.571683
    O   O21   0.577990  0.448688  0.548008  -0.591476
    O   O22   0.431011  0.470197  0.579937  -0.553041
    O   O23   0.400154  0.368730  0.445197  -0.571722
    O   O24   0.066547  0.921209  0.469257  -0.534079
