# Generated by REPEAT Assigner based on pymatgen
data_DB0-m3_o2_o19_f0_pcu.sym.21_sqe
_audit_creation_date              2022-05-24
_audit_creation_method            REPEAT_Assigner
_cell_length_a                    15.206268
_cell_length_b                    14.022453
_cell_length_c                    11.919620
_cell_angle_alpha                 90.000000
_cell_angle_beta                  89.992212
_cell_angle_gamma                 90.000000
_cell_volume                      2541.610771
_symmetry_space_group_name_H-M    P1
_symmetry_Int_Tables_number       1
loop_
    _symmetry_equiv_pos_site_id
    _symmetry_equiv_pos_as_xyz
    1  x,y,z
loop_
    _atom_site_type_symbol
    _atom_site_label
    _atom_site_fract_x
    _atom_site_fract_y
    _atom_site_fract_z
    _atom_type_partial_charge
    O   O1   0.368930  0.582761  0.500587  -0.713148
    O   O2   0.631066  0.417934  0.500509  -0.711760
    O   O3   0.631067  0.582761  0.499409  -0.713147
    O   O4   0.368930  0.417934  0.499487  -0.711738
    C   C1   0.327781  0.500347  0.500048  0.596311
    C   C2   0.672215  0.500347  0.499949  0.596390
    O   O5   0.499557  0.582718  0.332851  -0.781401
    O   O6   0.499582  0.417953  0.667149  -0.783418
    O   O7   0.500440  0.582718  0.667145  -0.781412
    O   O8   0.500414  0.417953  0.332847  -0.783410
    C   C3   0.499998  0.052758  0.499998  0.090265
    C   C4   0.499998  0.948031  0.499998  0.078305
    C   C5   0.499985  0.500336  0.280736  1.295445
    C   C6   0.500012  0.500336  0.719261  1.295429
    Zn  Zn1  0.499998  0.608993  0.499998  1.128397
    Zn  Zn2  0.499998  0.391701  0.499998  1.113541
    H   H1   0.443492  0.066170  0.335904  0.102816
    H   H2   0.453478  0.934611  0.669110  0.103810
    H   H3   0.556505  0.066170  0.664093  0.102808
    H   H4   0.546518  0.934611  0.330887  0.103808
    C   C7   0.469430  0.102972  0.408365  -0.083790
    C   C8   0.475011  0.897811  0.594327  -0.089661
    C   C9   0.530566  0.102972  0.591631  -0.083786
    C   C10  0.524985  0.897811  0.405669  -0.089663
    H   H5   0.443934  0.239964  0.338687  0.210483
    H   H6   0.453661  0.760963  0.666332  0.197927
    H   H7   0.556063  0.239964  0.661309  0.210491
    H   H8   0.546335  0.760963  0.333665  0.197924
    N   N1   0.499998  0.249010  0.499998  0.100839
    N   N2   0.499998  0.751703  0.499998  0.073790
    C   C11  0.499988  0.500338  0.160321  -0.493631
    C   C12  0.500008  0.500338  0.839675  -0.493605
    C   C13  0.499994  0.500339  0.059228  0.114976
    C   C14  0.500002  0.500339  0.940769  0.114949
    C   C15  0.469245  0.201305  0.410109  -0.164485
    C   C16  0.474695  0.799478  0.592605  -0.137607
    C   C17  0.530752  0.201305  0.589888  -0.164491
    C   C18  0.525301  0.799478  0.407391  -0.137599
    C   C19  0.093622  0.537410  0.589758  0.003769
    C   C20  0.906335  0.463269  0.589714  0.002481
    C   C21  0.906375  0.537410  0.410239  0.003789
    C   C22  0.093661  0.463270  0.410282  0.002588
    H   H9   0.057257  0.566000  0.659986  0.078273
    H   H10  0.942664  0.434672  0.659957  0.078913
    H   H11  0.942739  0.566001  0.340010  0.078251
    H   H12  0.057332  0.434673  0.340039  0.078900
    C   C23  0.184508  0.537631  0.591174  -0.409502
    C   C24  0.815450  0.463049  0.591094  -0.405660
    C   C25  0.815489  0.537631  0.408823  -0.409261
    C   C26  0.184546  0.463049  0.408903  -0.406072
    C   C27  0.231044  0.500345  0.500043  0.363859
    C   C28  0.768952  0.500345  0.499954  0.363474
    C   C29  0.048173  0.500343  0.500008  0.021625
    C   C30  0.951823  0.500343  0.499988  0.021352
    C   C31  0.228030  0.575454  0.692435  0.789769
    O   O9   0.299566  0.545533  0.722116  -0.478739
    O   O10  0.185463  0.639361  0.757237  -0.337890
    C   C32  0.222814  0.673634  0.853903  -0.026585
    H   H13  0.177256  0.725277  0.893752  0.078387
    H   H14  0.285537  0.710328  0.833959  0.056596
    H   H15  0.235092  0.613995  0.913027  0.076237
    C   C33  0.771884  0.425204  0.692324  0.788370
    O   O11  0.700374  0.455184  0.722045  -0.480569
    O   O12  0.814386  0.361206  0.757058  -0.342108
    C   C34  0.776980  0.326885  0.853679  -0.014183
    H   H16  0.822486  0.275167  0.893474  0.075814
    H   H17  0.714234  0.290266  0.833684  0.051366
    H   H18  0.764731  0.386485  0.912871  0.074652
    C   C35  0.771966  0.575455  0.307562  0.789703
    O   O13  0.700431  0.545534  0.277881  -0.478724
    O   O14  0.814534  0.639362  0.242760  -0.337890
    C   C36  0.777183  0.673636  0.146094  -0.026597
    H   H19  0.822740  0.725279  0.106246  0.078392
    H   H20  0.714459  0.710329  0.166039  0.056600
    H   H21  0.764905  0.613997  0.086971  0.076239
    C   C37  0.228112  0.425205  0.307672  0.788427
    O   O15  0.299623  0.455185  0.277951  -0.480578
    O   O16  0.185611  0.361207  0.242938  -0.342037
    C   C38  0.223016  0.326887  0.146316  -0.014276
    H   H22  0.177510  0.275169  0.106521  0.075834
    H   H23  0.285762  0.290267  0.166312  0.051383
    H   H24  0.235265  0.386487  0.087124  0.074676
