# Generated by REPEAT Assigner based on pymatgen
data_DB0-m3_o16_o96_f0_fsc.sym.71_sqe
_audit_creation_date              2022-05-24
_audit_creation_method            REPEAT_Assigner
_cell_length_a                    11.873752
_cell_length_b                    13.526359
_cell_length_c                    16.161171
_cell_angle_alpha                 90.000039
_cell_angle_beta                  85.424987
_cell_angle_gamma                 106.866139
_cell_volume                      2475.330129
_symmetry_space_group_name_H-M    P1
_symmetry_Int_Tables_number       1
loop_
    _symmetry_equiv_pos_site_id
    _symmetry_equiv_pos_as_xyz
    1  x,y,z
loop_
    _atom_site_type_symbol
    _atom_site_label
    _atom_site_fract_x
    _atom_site_fract_y
    _atom_site_fract_z
    _atom_type_partial_charge
    C   C1   0.975327  0.809484  0.222012  0.038316
    C   C2   0.929202  0.736296  0.166450  0.029268
    C   C3   0.923364  0.786132  0.093679  0.338876
    N   N1   0.960250  0.889443  0.103842  -0.493989
    C   C4   0.990110  0.904004  0.183325  0.311101
    C   C5   0.894540  0.737121  0.022822  -0.406656
    C   C6   0.918152  0.785100  0.939180  0.150857
    C   C7   0.935473  0.734351  0.867404  0.055102
    C   C8   0.961733  0.804364  0.802916  0.129984
    C   C9   0.957695  0.898113  0.837492  0.071963
    N   N2   0.929648  0.884422  0.920440  -0.160334
    C   C10  0.971714  0.996389  0.792775  -0.359425
    C   C11  0.004555  0.088343  0.829254  0.327752
    C   C12  0.019250  0.182927  0.790715  0.052919
    C   C13  0.066132  0.256030  0.846123  0.022341
    C   C14  0.072454  0.206090  0.918707  0.335097
    N   N3   0.035120  0.102789  0.908577  -0.501364
    C   C15  0.101858  0.255038  0.989458  -0.399220
    C   C16  0.077369  0.207096  0.073062  0.138206
    C   C17  0.059190  0.257905  0.144590  0.059235
    C   C18  0.032294  0.187994  0.209151  0.133290
    C   C19  0.036760  0.094202  0.174855  0.070489
    N   N4   0.065687  0.107798  0.091989  -0.148950
    C   C20  0.022402  0.996003  0.219786  -0.355993
    H   H1   0.867314  0.653892  0.024837  0.171128
    H   H2   0.958733  0.993652  0.727157  0.167454
    H   H3   0.129659  0.338263  0.987420  0.167593
    H   H4   0.034785  0.998842  0.285496  0.167496
    H   H5   0.910524  0.937139  0.962021  0.262648
    H   H6   0.085268  0.055075  0.050605  0.264137
    C   C21  0.068352  0.360238  0.155804  -0.210363
    C   C22  0.049916  0.391821  0.235347  -0.097970
    C   C23  0.015357  0.322235  0.302210  -0.030731
    C   C24  0.007724  0.217806  0.289769  -0.274284
    C   C25  0.004487  0.782905  0.298383  -0.281913
    C   C26  0.980066  0.678224  0.316608  0.028400
    C   C27  0.922248  0.605143  0.262219  -0.074823
    C   C28  0.899830  0.632970  0.185312  -0.243071
    C   C29  0.926038  0.632018  0.855879  -0.228215
    C   C30  0.943734  0.600613  0.776154  -0.060582
    C   C31  0.977808  0.670334  0.709356  -0.061592
    C   C32  0.985567  0.774732  0.722096  -0.253071
    C   C33  0.989292  0.209640  0.714676  -0.321658
    C   C34  0.013503  0.314338  0.696659  0.063352
    C   C35  0.071955  0.387363  0.750841  -0.095132
    C   C36  0.095320  0.359395  0.827428  -0.229833
    H   H7   0.093275  0.416392  0.105178  0.130943
    H   H8   0.986497  0.162974  0.341415  0.133197
    H   H9   0.044369  0.840166  0.342247  0.125335
    H   H10  0.896281  0.524051  0.279383  0.126618
    H   H11  0.859036  0.573781  0.143293  0.123259
    H   H12  0.901547  0.575759  0.906436  0.133936
    H   H13  0.006541  0.829720  0.670564  0.124845
    H   H14  0.948913  0.152465  0.670901  0.134708
    H   H15  0.097798  0.468480  0.733768  0.124991
    H   H16  0.136604  0.418520  0.869340  0.120879
    H   H17  0.064208  0.473079  0.245711  0.127052
    H   H18  0.929402  0.519392  0.765575  0.118662
    O   O1   0.899719  0.365349  0.420055  -0.712875
    O   O2   0.100397  0.433819  0.407441  -0.696402
    C   C37  0.004310  0.368632  0.384246  0.818074
    O   O3   0.103036  0.637608  0.414561  -0.680067
    O   O4   0.899725  0.571628  0.430159  -0.690231
    C   C38  0.996275  0.636165  0.395783  0.729672
    O   O5   0.094683  0.627316  0.591975  -0.713160
    O   O6   0.891640  0.560169  0.603315  -0.714478
    C   C39  0.989034  0.624076  0.627240  0.823813
    O   O7   0.890994  0.356008  0.599198  -0.692159
    O   O8   0.091986  0.420850  0.583044  -0.672348
    C   C40  0.996762  0.356268  0.617621  0.736151
    Zn  Zn1  0.127906  0.537418  0.498804  1.055893
    Zn  Zn2  0.865671  0.454353  0.513599  1.089152
    C   C41  0.536269  0.285641  0.500536  0.127060
    H   H19  0.702967  0.259457  0.507045  0.135212
    H   H20  0.306877  0.248035  0.488213  0.124233
    N   N5   0.711100  0.416089  0.518837  0.041904
    C   C42  0.337443  0.675465  0.497248  -0.027491
    C   C43  0.457484  0.711093  0.501688  -0.127288
    C   C44  0.523791  0.643195  0.504792  -0.129163
    C   C45  0.469904  0.537294  0.502369  0.091245
    C   C46  0.348105  0.504320  0.494991  0.167164
    C   C47  0.533498  0.463287  0.507001  0.003515
    C   C48  0.475428  0.359073  0.499772  0.117624
    C   C49  0.356632  0.328290  0.491827  -0.160851
    C   C50  0.295086  0.398687  0.490251  -0.194436
    C   C51  0.654209  0.489358  0.517489  -0.174319
    C   C52  0.654647  0.316030  0.510000  -0.134523
    N   N6   0.283152  0.573660  0.493520  -0.070640
    H   H21  0.706481  0.568036  0.523020  0.161385
    H   H22  0.286710  0.730033  0.497963  0.163546
    H   H23  0.616962  0.677087  0.508663  0.140358
    H   H24  0.499994  0.793212  0.504259  0.119827
    H   H25  0.203942  0.364106  0.485029  0.168336
    C   C53  0.481175  0.177231  0.481784  -0.035144
    C   C54  0.448155  0.099398  0.542861  0.194022
    C   C55  0.461482  0.120046  0.633016  -0.273838
    C   C56  0.399120  0.998449  0.520391  -0.200097
    C   C57  0.382954  0.974644  0.438428  -0.085942
    C   C58  0.416286  0.051591  0.378071  -0.140735
    C   C59  0.465539  0.152397  0.399723  -0.125209
    H   H26  0.495933  0.203172  0.646104  0.063448
    H   H27  0.522388  0.079290  0.655334  0.082649
    H   H28  0.373966  0.089431  0.668160  0.075628
    H   H29  0.372709  0.937490  0.567455  0.117369
    H   H30  0.344181  0.895597  0.421336  0.098731
    H   H31  0.404026  0.032912  0.313745  0.116853
    H   H32  0.492240  0.212593  0.352037  0.096276
