# Generated by REPEAT Assigner based on pymatgen
data_DB0-m3_o9_o9_f0_nbo
_audit_creation_date              2022-05-24
_audit_creation_method            REPEAT_Assigner
_cell_length_a                    18.975506
_cell_length_b                    18.978761
_cell_length_c                    18.986703
_cell_angle_alpha                 109.466099
_cell_angle_beta                  109.459371
_cell_angle_gamma                 109.463128
_cell_volume                      5265.300262
_symmetry_space_group_name_H-M    P1
_symmetry_Int_Tables_number       1
loop_
    _symmetry_equiv_pos_site_id
    _symmetry_equiv_pos_as_xyz
    1  x,y,z
loop_
    _atom_site_type_symbol
    _atom_site_label
    _atom_site_fract_x
    _atom_site_fract_y
    _atom_site_fract_z
    _atom_type_partial_charge
    C   C1    0.380708  0.509265  0.387512  0.616024
    C   C2    0.799093  0.816500  0.835877  -0.087846
    C   C3    0.937151  0.731493  0.963666  -0.096198
    C   C4    0.936005  0.714727  0.028635  -0.148998
    C   C5    0.000068  0.774143  0.113241  0.188072
    C   C6    0.277908  0.543119  0.927634  -0.052241
    C   C7    0.194672  0.475328  0.870550  -0.224840
    C   C8    0.168818  0.399308  0.872822  0.276012
    C   C9    0.228294  0.389799  0.928963  -0.113313
    C   C10   0.311505  0.457622  0.986151  -0.144749
    C   C11   0.336191  0.534491  0.985869  -0.120657
    C   C12   0.075845  0.256013  0.746583  -0.172230
    C   C13   0.821657  0.821225  0.580892  -0.197059
    C   C14   0.996643  0.185769  0.681070  0.083458
    C   C15   0.921981  0.183789  0.678221  -0.107860
    C   C16   0.928623  0.250439  0.743519  -0.191928
    C   C17   0.007844  0.321088  0.808888  0.363637
    C   C18   0.082295  0.325310  0.808551  -0.172502
    C   C19   0.775635  0.128887  0.564150  -0.147444
    C   C20   0.693729  0.062342  0.499953  -0.126849
    C   C21   0.671209  0.978712  0.481070  -0.079181
    C   C22   0.730398  0.961864  0.527009  -0.115744
    C   C23   0.812044  0.028332  0.591772  -0.143460
    C   C24   0.811555  0.809624  0.501746  0.168365
    C   C25   0.835547  0.112053  0.609499  0.190537
    C   C26   0.738192  0.738787  0.426812  -0.127023
    C   C27   0.678283  0.679580  0.433027  -0.187430
    C   C28   0.688166  0.691179  0.512039  0.159720
    C   C29   0.759934  0.763639  0.587002  -0.127581
    C   C30   0.645369  0.708213  0.281468  -0.121004
    C   C31   0.628418  0.689548  0.198968  -0.128872
    C   C32   0.687892  0.683804  0.174508  -0.159253
    C   C33   0.620711  0.625482  0.512230  0.627567
    C   C34   0.764283  0.696576  0.232570  -0.070405
    C   C35   0.781418  0.715592  0.315182  -0.061726
    C   C36   0.722412  0.722291  0.340291  0.137561
    C   C37   0.428703  0.808198  0.509197  -0.171932
    C   C38   0.365311  0.727393  0.439956  -0.144703
    C   C39   0.387311  0.671152  0.397581  0.201298
    C   C40   0.473213  0.697413  0.423478  -0.160073
    C   C41   0.536466  0.777732  0.493465  -0.053532
    C   C42   0.514351  0.833209  0.536295  -0.092728
    C   C43   0.256530  0.580479  0.256087  -0.163937
    C   C44   0.613252  0.499068  0.626207  0.634225
    C   C45   0.189787  0.501786  0.185710  0.093028
    C   C46   0.185361  0.426246  0.182775  -0.099372
    C   C47   0.249701  0.431462  0.249003  -0.188066
    C   C48   0.316147  0.510002  0.319597  0.173013
    C   C49   0.319106  0.585508  0.323938  -0.146372
    C   C50   0.070336  0.279636  0.126644  -0.126405
    C   C51   0.007208  0.197478  0.059746  -0.126766
    C   C52   0.990219  0.174978  0.976601  -0.138691
    C   C53   0.036502  0.234669  0.960415  -0.086672
    C   C54   0.099294  0.316993  0.027218  -0.069602
    C   C55   0.371860  0.381833  0.501075  0.630568
    C   C56   0.116025  0.340119  0.110564  0.147257
    C   C57   0.181663  0.492914  0.553644  -0.170173
    C   C58   0.200927  0.429845  0.557239  -0.117603
    C   C59   0.215083  0.383995  0.495005  0.172502
    C   C60   0.207549  0.400147  0.427802  -0.079278
    C   C61   0.187711  0.462886  0.424018  -0.163002
    C   C62   0.175194  0.509550  0.487121  -0.083704
    C   C63   0.172432  0.248273  0.496530  -0.139338
    C   C64   0.184502  0.180800  0.497621  0.058786
    C   C65   0.257633  0.179438  0.499380  -0.100384
    C   C66   0.801398  0.877423  0.811250  -0.173515
    C   C67   0.316725  0.245228  0.498939  -0.193202
    C   C68   0.305125  0.313143  0.498761  0.169878
    C   C69   0.232459  0.315036  0.497926  -0.156002
    C   C70   0.348588  0.126491  0.563669  -0.108950
    C   C71   0.365614  0.060988  0.562126  -0.159723
    C   C72   0.308173  0.977708  0.494725  -0.088906
    C   C73   0.233830  0.959993  0.428739  -0.100795
    C   C74   0.216269  0.025288  0.430572  -0.137974
    C   C75   0.273313  0.108717  0.498554  0.188182
    C   C76   0.556821  0.550947  0.870619  -0.165233
    C   C77   0.788554  0.859837  0.730044  -0.110996
    C   C78   0.623396  0.555288  0.854532  -0.096395
    C   C79   0.607005  0.493480  0.777896  0.143585
    C   C80   0.523744  0.425987  0.718366  -0.059857
    C   C81   0.457284  0.421553  0.734748  -0.165019
    C   C82   0.473732  0.484188  0.810664  -0.090169
    C   C83   0.745184  0.496944  0.821672  -0.177159
    C   C84   0.814176  0.499512  0.810764  0.133966
    C   C85   0.816756  0.501821  0.739466  -0.130159
    C   C86   0.749633  0.500367  0.679913  -0.202543
    C   C87   0.680898  0.498340  0.691057  0.173321
    C   C88   0.773475  0.781251  0.673123  0.160355
    C   C89   0.678863  0.497297  0.763033  -0.145399
    C   C90   0.934402  0.568654  0.714340  -0.127165
    C   C91   0.998790  0.568361  0.696017  -0.140870
    C   C92   0.014894  0.500924  0.684715  -0.115291
    C   C93   0.966491  0.433695  0.691599  -0.081621
    C   C94   0.902650  0.434308  0.710807  -0.144251
    C   C95   0.886914  0.502247  0.722956  0.199064
    C   C96   0.001453  0.872191  0.385077  0.471958
    C   C97   0.877778  0.875374  0.500400  0.631212
    C   C98   0.995366  0.116832  0.615633  0.654714
    C   C99   0.773837  0.721395  0.699056  -0.133162
    C   C100  0.119149  0.113252  0.497925  0.704450
    C   C101  0.009090  0.386408  0.878227  0.468844
    C   C102  0.123448  0.501202  0.118193  0.670654
    C   C103  0.999808  0.619545  0.117436  0.657286
    C   C104  0.882784  0.500439  0.876321  0.667570
    C   C105  0.102161  0.756323  0.539914  -0.045184
    C   C106  0.093269  0.772390  0.472698  -0.224194
    C   C107  0.015603  0.723073  0.396135  0.279684
    C   C108  0.948711  0.654328  0.385515  -0.107814
    C   C109  0.957526  0.638339  0.452772  -0.152479
    C   C110  0.785098  0.738501  0.779655  -0.075203
    C   C111  0.034078  0.689673  0.530173  -0.132070
    C   C112  0.001000  0.673988  0.253711  -0.158202
    C   C113  0.998619  0.684369  0.184646  0.072355
    C   C114  0.000276  0.757583  0.183395  -0.100167
    C   C115  0.000700  0.816923  0.249650  -0.190201
    C   C116  0.004767  0.807571  0.319597  0.362716
    C   C117  0.007646  0.736433  0.322889  -0.188132
    C   C118  0.063164  0.851664  0.132394  -0.153099
    C   C119  0.063584  0.868641  0.067335  -0.116365
    C   C120  0.000779  0.808339  0.982858  -0.093624
    H   H1    0.808384  0.829891  0.899251  0.082211
    H   H2    0.674452  0.668876  0.109732  0.117387
    H   H3    0.810599  0.691287  0.213179  0.057470
    H   H4    0.840962  0.724764  0.360112  0.075249
    H   H5    0.564150  0.896316  0.590959  0.081854
    H   H6    0.411220  0.851696  0.542639  0.133816
    H   H7    0.298292  0.707832  0.419901  0.103933
    H   H8    0.491262  0.655032  0.389372  0.112199
    H   H9    0.603487  0.797070  0.514919  0.090223
    H   H10   0.259113  0.639101  0.258688  0.123003
    H   H11   0.247322  0.372809  0.246071  0.132566
    H   H12   0.812540  0.938739  0.855335  0.136116
    H   H13   0.083244  0.296674  0.191681  0.080569
    H   H14   0.971220  0.150578  0.072578  0.109193
    H   H15   0.940983  0.110448  0.924209  0.109811
    H   H16   0.023822  0.216741  0.895341  0.061033
    H   H17   0.135848  0.363205  0.014275  0.081361
    H   H18   0.159671  0.558722  0.484082  0.089709
    H   H19   0.171311  0.529121  0.602862  0.124553
    H   H20   0.205748  0.417047  0.609544  0.096557
    H   H21   0.215927  0.362904  0.377324  0.096112
    H   H22   0.181355  0.475172  0.371239  0.134630
    H   H23   0.788997  0.907448  0.710726  0.080866
    H   H24   0.115265  0.249101  0.494971  0.118120
    H   H25   0.373440  0.243902  0.499619  0.130118
    H   H26   0.394080  0.191772  0.616548  0.074724
    H   H27   0.424257  0.075033  0.613586  0.117834
    H   H28   0.321717  0.926403  0.493235  0.097507
    H   H29   0.189629  0.894888  0.375282  0.073137
    H   H30   0.158436  0.011143  0.377989  0.111602
    H   H31   0.421590  0.480611  0.823449  0.091182
    H   H32   0.569847  0.599791  0.930424  0.126640
    H   H33   0.688437  0.607835  0.901887  0.078445
    H   H34   0.764643  0.660682  0.656146  0.107721
    H   H35   0.510529  0.375829  0.659323  0.091078
    H   H36   0.392273  0.368625  0.688342  0.138439
    H   H37   0.743256  0.495165  0.877330  0.129353
    H   H38   0.751320  0.501408  0.623917  0.136726
    H   H39   0.921810  0.621561  0.722830  0.080034
    H   H40   0.036436  0.620877  0.690184  0.121105
    H   H41   0.065079  0.500460  0.669905  0.105457
    H   H42   0.978398  0.380288  0.681473  0.067382
    H   H43   0.864191  0.380862  0.715051  0.109156
    H   H44   0.041106  0.676943  0.582788  0.112410
    H   H45   0.782615  0.690497  0.798588  0.098360
    H   H46   0.162750  0.795619  0.600057  0.077966
    H   H47   0.147405  0.823546  0.479972  0.120404
    H   H48   0.888943  0.613209  0.324552  0.075593
    H   H49   0.904559  0.585189  0.444619  0.107287
    H   H50   0.002596  0.618382  0.256052  0.113315
    H   H51   0.999017  0.872432  0.247159  0.104718
    H   H52   0.113318  0.898937  0.198430  0.094466
    H   H53   0.113465  0.929087  0.082579  0.103243
    H   H54   0.001238  0.821346  0.931699  0.084767
    H   H55   0.888156  0.684206  0.897552  0.119719
    H   H56   0.878161  0.877167  0.639089  0.132098
    H   H57   0.884880  0.654863  0.012938  0.111539
    H   H58   0.401521  0.587544  0.030456  0.109002
    H   H59   0.297639  0.602825  0.926266  0.077653
    H   H60   0.149728  0.481737  0.823752  0.123831
    H   H61   0.209586  0.329225  0.928584  0.075974
    H   H62   0.357569  0.450312  0.030837  0.103403
    H   H63   0.133882  0.258716  0.747249  0.115445
    H   H64   0.870567  0.247313  0.743121  0.101730
    H   H65   0.793067  0.194253  0.577982  0.095929
    H   H66   0.647295  0.075754  0.464187  0.105295
    H   H67   0.622000  0.623472  0.374781  0.136046
    H   H68   0.607114  0.926398  0.430522  0.081111
    H   H69   0.712822  0.896437  0.512231  0.125503
    H   H70   0.857378  0.014493  0.628489  0.113845
    H   H71   0.598344  0.712637  0.300103  0.079108
    H   H72   0.568320  0.679190  0.153367  0.119174
    O   O1    0.410611  0.561505  0.469156  -0.617668
    O   O2    0.952516  0.904070  0.360282  -0.654371
    O   O3    0.959237  0.909747  0.556828  -0.704410
    O   O4    0.855623  0.901134  0.444728  -0.626064
    O   O5    0.051078  0.091675  0.640224  -0.680395
    O   O6    0.941341  0.082701  0.533523  -0.651384
    O   O7    0.141937  0.083378  0.549584  -0.674579
    O   O8    0.037499  0.085716  0.448559  -0.700749
    O   O9    0.062068  0.468536  0.911875  -0.591824
    O   O10   0.953034  0.361748  0.903113  -0.647589
    O   O11   0.145953  0.557767  0.093319  -0.697244
    O   O12   0.406637  0.453758  0.365231  -0.704282
    O   O13   0.041955  0.445929  0.084717  -0.653863
    O   O14   0.050228  0.643758  0.086868  -0.640733
    O   O15   0.952233  0.537489  0.090128  -0.689295
    O   O16   0.964317  0.552013  0.904712  -0.651692
    O   O17   0.861408  0.451320  0.908889  -0.707704
    O   O18   0.592097  0.647230  0.565465  -0.628892
    O   O19   0.587205  0.544283  0.456005  -0.699760
    O   O20   0.581705  0.548970  0.649365  -0.634787
    O   O21   0.587996  0.452574  0.544705  -0.703527
    O   O22   0.399374  0.463080  0.552368  -0.626565
    O   O23   0.406562  0.361010  0.454048  -0.706104
    O   O24   0.050568  0.902085  0.467264  -0.586787
    Zn  Zn1   0.495838  0.570541  0.574938  1.251053
    Zn  Zn2   0.496948  0.437348  0.439309  1.323127
    Zn  Zn3   0.066207  0.997412  0.569821  1.280676
    Zn  Zn4   0.931173  0.992737  0.430521  1.283690
    Zn  Zn5   0.071273  0.571688  0.999822  1.267130
    Zn  Zn6   0.936627  0.433054  0.996255  1.297870
