# Generated by REPEAT Assigner based on pymatgen
data_DB0-m6_o6_o20_f0_bcu.sym.11
_audit_creation_date              2022-05-24
_audit_creation_method            REPEAT_Assigner
_cell_length_a                    20.418236
_cell_length_b                    19.950035
_cell_length_c                    20.742260
_cell_angle_alpha                 60.234254
_cell_angle_beta                  118.467327
_cell_angle_gamma                 118.931676
_cell_volume                      6100.192326
_symmetry_space_group_name_H-M    P1
_symmetry_Int_Tables_number       1
loop_
    _symmetry_equiv_pos_site_id
    _symmetry_equiv_pos_as_xyz
    1  x,y,z
loop_
    _atom_site_type_symbol
    _atom_site_label
    _atom_site_fract_x
    _atom_site_fract_y
    _atom_site_fract_z
    _atom_type_partial_charge
    N   N1   0.869935  0.090398  0.327084  -0.084958
    N   N2   0.826510  0.095758  0.253976  -0.484999
    N   N3   0.021314  0.811707  0.569268  -0.137094
    N   N4   0.996384  0.734071  0.576538  -0.451411
    N   N5   0.058966  0.018604  0.374552  -0.195588
    N   N6   0.060981  0.991815  0.329003  -0.340886
    N   N7   0.832327  0.883756  0.521727  -0.193193
    N   N8   0.757895  0.842899  0.494237  -0.333785
    N   N9   0.016970  0.068894  0.332268  -0.210126
    N   N10  0.990771  0.075942  0.258124  -0.329703
    N   N11  0.874363  0.833627  0.563854  -0.166111
    N   N12  0.828442  0.759069  0.564756  -0.348734
    N   N13  0.066060  0.856697  0.523407  -0.117556
    N   N14  0.071827  0.810113  0.499228  -0.458411
    N   N15  0.825205  0.045405  0.372906  -0.100406
    N   N16  0.750871  0.019830  0.331132  -0.484337
    C   C1   0.752171  0.052067  0.256840  1.112161
    C   C2   0.027911  0.733536  0.532294  1.109318
    C   C3   0.017895  0.027183  0.256954  1.044560
    C   C4   0.756499  0.765771  0.520924  1.020290
    N   N17  0.982941  0.934817  0.667993  -0.215994
    N   N18  0.009140  0.927770  0.742137  -0.328108
    N   N19  0.125547  0.170083  0.436410  -0.165694
    N   N20  0.171434  0.244600  0.435680  -0.351272
    N   N21  0.933849  0.147011  0.476854  -0.116141
    N   N22  0.928081  0.193594  0.501033  -0.458134
    N   N23  0.174704  0.958300  0.627356  -0.119813
    N   N24  0.249038  0.983872  0.669127  -0.466675
    N   N25  0.129976  0.913312  0.673179  -0.068177
    N   N26  0.173404  0.907952  0.746287  -0.495059
    N   N27  0.978596  0.192003  0.430993  -0.137985
    N   N28  0.003524  0.269639  0.423724  -0.451781
    N   N29  0.940944  0.985107  0.625709  -0.187169
    N   N30  0.938929  0.011896  0.671259  -0.342205
    N   N31  0.167581  0.119951  0.478540  -0.197753
    N   N32  0.241977  0.160765  0.506205  -0.328979
    Mn  Mn1  0.001338  0.865824  0.625608  0.909556
    Mn  Mn2  0.998573  0.137886  0.374654  0.913041
    Mn  Mn3  0.123741  0.988589  0.500054  0.919223
    Mn  Mn4  0.876167  0.015119  0.500208  0.911331
    C   C5   0.982016  0.976529  0.743307  1.044714
    C   C6   0.243356  0.237872  0.479607  1.019826
    C   C7   0.971996  0.270172  0.467968  1.111309
    C   C8   0.247743  0.951639  0.743419  1.100277
    C   C9   0.981686  0.342576  0.477260  -0.724254
    C   C10  0.988854  0.402355  0.485595  0.404237
    C   C11  0.996694  0.472222  0.495767  -0.121928
    C   C12  0.003214  0.531484  0.504498  -0.111659
    C   C13  0.011053  0.601351  0.514669  0.395565
    C   C14  0.018221  0.661131  0.523003  -0.718251
    H   H1   0.517150  0.367255  0.560102  0.133691
    C   C15  0.574397  0.495310  0.535535  -0.058946
    H   H2   0.633092  0.491010  0.562978  0.097426
    C   C16  0.563737  0.569957  0.501762  -0.005933
    C   C17  0.489827  0.577051  0.467038  -0.095173
    H   H3   0.482646  0.636268  0.441183  0.112739
    C   C18  0.425399  0.508207  0.465798  -0.088107
    H   H4   0.366704  0.512513  0.438306  0.102459
    C   C19  0.436058  0.433563  0.499541  0.025778
    C   C20  0.509969  0.426466  0.534295  -0.140341
    C   C21  0.630408  0.640426  0.505347  0.333241
    C   C22  0.369394  0.363127  0.495727  0.322119
    C   C23  0.312249  0.304931  0.489954  -0.774315
    C   C24  0.687569  0.698660  0.510875  -0.780185
    H   H5   0.367086  0.918520  0.011533  0.139510
    C   C25  0.488312  0.967706  0.071654  -0.089457
    H   H6   0.478902  0.940750  0.127664  0.120170
    C   C26  0.563044  0.014515  0.065525  -0.013387
    C   C27  0.574567  0.048652  0.993777  -0.049334
    H   H7   0.632977  0.085304  0.988647  0.098586
    C   C28  0.511757  0.036129  0.928500  -0.014368
    C   C29  0.437002  0.989309  0.934632  0.128864
    C   C30  0.425490  0.955175  0.006391  -0.178019
    C   C31  0.628813  0.027433  0.133566  0.294340
    C   C32  0.371177  0.976344  0.866624  0.220504
    C   C33  0.315346  0.965225  0.810084  -0.681034
    C   C34  0.684577  0.038492  0.190159  -0.718688
    H   H8   0.931928  0.078666  0.868021  0.103371
    C   C35  0.963655  0.050781  0.990395  -0.099636
    H   H9   0.935456  0.089199  0.982988  0.112639
    C   C36  0.001655  0.007470  0.064196  -0.008332
    C   C37  0.038029  0.958654  0.074119  -0.080969
    H   H10  0.067985  0.925046  0.132242  0.102103
    C   C38  0.036259  0.952931  0.009869  -0.097134
    H   H11  0.064458  0.914513  0.017275  0.112041
    C   C39  0.998259  0.996243  0.936067  -0.011672
    C   C40  0.961885  0.045058  0.926144  -0.078992
    C   C41  0.004902  0.014316  0.131018  0.354985
    C   C42  0.995011  0.989396  0.869245  0.356119
    C   C43  0.990429  0.983560  0.812255  -0.811662
    C   C44  0.009484  0.020152  0.188008  -0.810301
    Cl  Cl1  0.527133  0.079843  0.837829  -0.055777
