# Generated by REPEAT Assigner based on pymatgen
data_DB0-m29_o97_o148_f0_pts.sym.70
_audit_creation_date              2022-05-24
_audit_creation_method            REPEAT_Assigner
_cell_length_a                    17.782045
_cell_length_b                    9.374576
_cell_length_c                    15.064360
_cell_angle_alpha                 87.658719
_cell_angle_beta                  79.629139
_cell_angle_gamma                 106.692554
_cell_volume                      2354.651511
_symmetry_space_group_name_H-M    P1
_symmetry_Int_Tables_number       1
loop_
    _symmetry_equiv_pos_site_id
    _symmetry_equiv_pos_as_xyz
    1  x,y,z
loop_
    _atom_site_type_symbol
    _atom_site_label
    _atom_site_fract_x
    _atom_site_fract_y
    _atom_site_fract_z
    _atom_type_partial_charge
    C   C1   0.237977  0.041420  0.154332  -0.180173
    C   C2   0.106540  0.070168  0.193003  -0.137859
    C   C3   0.297111  0.010252  0.092868  0.022499
    C   C4   0.283608  0.971571  0.007420  -0.134957
    C   C5   0.165260  0.037050  0.131763  0.195129
    C   C6   0.149418  0.992094  0.049167  -0.029976
    C   C7   0.206603  0.949982  0.989890  0.129093
    C   C8   0.184324  0.881067  0.915449  -0.136627
    C   C9   0.035700  0.070591  0.169693  -0.168640
    C   C10  0.020803  0.036736  0.084413  0.035850
    C   C11  0.076388  0.989020  0.025932  0.040626
    C   C12  0.059154  0.937614  0.944621  0.026361
    C   C13  0.112168  0.874892  0.893105  -0.114940
    C   C14  0.897287  0.106299  0.110416  -0.125862
    C   C15  0.950058  0.043220  0.058573  0.054910
    C   C16  0.933050  0.992826  0.977116  0.013986
    C   C17  0.987846  0.942296  0.919041  0.065391
    C   C18  0.971014  0.902425  0.835002  -0.166041
    C   C19  0.825408  0.102070  0.087926  -0.117181
    C   C20  0.803939  0.036659  0.012265  0.099275
    C   C21  0.860660  0.992622  0.953683  -0.022236
    C   C22  0.844343  0.946485  0.871889  0.259517
    C   C23  0.727943  0.019860  0.993117  -0.113831
    C   C24  0.714717  0.981440  0.907745  0.077774
    C   C25  0.899976  0.904216  0.812301  -0.189580
    C   C26  0.773014  0.945066  0.848206  -0.295543
    H   H1   0.113101  0.095029  0.260947  0.083228
    H   H2   0.220487  0.823225  0.875188  0.130561
    H   H3   0.992582  0.092838  0.222739  0.158266
    H   H4   0.099457  0.815128  0.835563  0.121497
    H   H5   0.910215  0.165196  0.168248  0.114607
    H   H6   0.012111  0.872697  0.783017  0.138697
    H   H7   0.788737  0.158129  0.129093  0.133145
    H   H8   0.888292  0.871860  0.746873  0.148173
    H   H9   0.761171  0.910128  0.783290  0.160462
    O   O1   0.593423  0.035649  0.049656  -0.546892
    C   C27  0.659933  0.017272  0.066942  0.643173
    O   O2   0.522419  0.719286  0.148162  -0.547298
    O   O3   0.661310  0.976163  0.150808  -0.536904
    O   O4   0.505489  0.858492  0.265338  -0.645633
    C   C28  0.513701  0.733102  0.235464  0.756966
    Fe  Fe1  0.513089  0.005844  0.163593  1.467230
    O   O5   0.404774  0.926224  0.131964  -0.640705
    O   O6   0.416147  0.174355  0.128352  -0.525936
    C   C29  0.375530  0.037380  0.117960  0.724498
    O   O7   0.545211  0.209222  0.207927  -0.625928
    O   O8   0.453426  0.085563  0.332361  -0.333738
    C   C30  0.504046  0.210176  0.289279  0.540085
    O   O9   0.466272  0.803206  0.790880  -0.662953
    O   O10  0.562537  0.918468  0.667793  -0.544488
    C   C31  0.509153  0.797089  0.711393  0.653328
    O   O11  0.610744  0.075982  0.868578  -0.645570
    O   O12  0.596958  0.827523  0.864945  -0.528745
    C   C32  0.637544  0.961097  0.881126  0.695670
    O   O13  0.346653  0.999600  0.847928  -0.540736
    O   O14  0.513712  0.156331  0.734497  -0.554140
    C   C33  0.484557  0.265660  0.760312  0.595340
    O   O15  0.422074  0.979122  0.949713  -0.571712
    C   C34  0.351841  0.975887  0.932771  0.687908
    O   O16  0.460791  0.272244  0.847291  -0.517696
    Fe  Fe2  0.502336  0.005446  0.835949  1.492393
    C   C35  0.488528  0.526114  0.730227  -0.212088
    C   C36  0.500664  0.653213  0.673963  0.151007
    C   C37  0.509250  0.647419  0.582070  -0.356385
    C   C38  0.487166  0.391439  0.695193  -0.007964
    C   C39  0.489679  0.383025  0.601714  -0.176489
    C   C40  0.500181  0.511844  0.544739  0.380266
    C   C41  0.502559  0.502022  0.451403  -0.359788
    C   C42  0.506767  0.622621  0.390738  0.069913
    C   C43  0.512435  0.608389  0.298841  -0.144762
    C   C44  0.479572  0.247954  0.564031  0.324210
    N   N1   0.486411  0.243276  0.474212  -0.492417
    C   C45  0.498777  0.365710  0.417699  0.500499
    C   C46  0.507152  0.353289  0.325636  -0.021993
    C   C47  0.515894  0.475057  0.266375  -0.138049
    H   H10  0.464049  0.142841  0.604432  0.085779
    H   H11  0.485893  0.535953  0.801823  0.220377
    H   H12  0.520445  0.462479  0.194830  0.210010
    H   H13  0.522102  0.752315  0.542321  0.164890
    H   H14  0.503576  0.728661  0.412465  0.120630
    C   C48  0.255613  0.085876  0.242124  0.223970
    C   C49  0.265519  0.231742  0.262144  -0.017002
    C   C50  0.281197  0.272695  0.345395  0.013707
    Cl  Cl1  0.293356  0.457539  0.370883  -0.103317
    C   C51  0.286921  0.167940  0.408737  -0.078628
    C   C52  0.277497  0.022445  0.388611  -0.142156
    C   C53  0.262607  0.981764  0.305048  -0.238954
    H   H15  0.260680  0.313817  0.212690  0.068952
    H   H16  0.298914  0.199927  0.474121  0.090739
    H   H17  0.282143  0.940391  0.438211  0.162307
    H   H18  0.255150  0.867610  0.289408  0.139614
