# Generated by REPEAT Assigner based on pymatgen
data_DB0-m29_o99_o430_f0_pts.sym.40
_audit_creation_date              2022-05-24
_audit_creation_method            REPEAT_Assigner
_cell_length_a                    15.949135
_cell_length_b                    15.918278
_cell_length_c                    13.779864
_cell_angle_alpha                 88.479271
_cell_angle_beta                  97.535917
_cell_angle_gamma                 104.592423
_cell_volume                      3356.298688
_symmetry_space_group_name_H-M    P1
_symmetry_Int_Tables_number       1
loop_
    _symmetry_equiv_pos_site_id
    _symmetry_equiv_pos_as_xyz
    1  x,y,z
loop_
    _atom_site_type_symbol
    _atom_site_label
    _atom_site_fract_x
    _atom_site_fract_y
    _atom_site_fract_z
    _atom_type_partial_charge
    C   C1   0.197016  0.951383  0.851061  -0.133483
    H   H1   0.206761  0.944430  0.775829  0.156623
    C   C2   0.115246  0.951879  0.872517  -0.180380
    H   H2   0.061019  0.943497  0.814645  0.144172
    C   C3   0.103555  0.967094  0.966992  0.297280
    C   C4   0.172598  0.977460  0.040905  -0.212415
    H   H3   0.161048  0.986973  0.114857  0.165423
    C   C5   0.255125  0.976621  0.020402  0.030410
    C   C6   0.267580  0.966423  0.923658  0.019410
    C   C7   0.019918  0.974229  0.988386  -0.166845
    C   C8   0.950271  0.981200  0.007207  -0.103869
    C   C9   0.796981  0.979936  0.960643  -0.219468
    H   H4   0.805989  0.969691  0.885942  0.161044
    C   C10  0.715904  0.982302  0.984851  0.026581
    C   C11  0.706645  0.993805  0.082809  -0.011131
    C   C12  0.780173  0.008098  0.152992  -0.006055
    C   C13  0.859770  0.004957  0.126883  -0.210110
    H   H5   0.916099  0.013123  0.182015  0.134579
    C   C14  0.867856  0.989211  0.031652  0.276230
    O   O1   0.512119  0.104523  0.736476  -0.610406
    C   C15  0.447837  0.102658  0.665810  0.629867
    O   O2   0.409775  0.059452  0.914057  -0.477758
    O   O3   0.383775  0.032029  0.654046  -0.566649
    O   O4   0.374914  0.929262  0.836132  -0.521827
    C   C16  0.354779  0.983710  0.893479  0.599073
    Fe  Fe1  0.488882  0.986482  0.792587  1.431862
    O   O5   0.569529  0.992567  0.918334  -0.508411
    O   O6   0.655009  0.957104  0.815647  -0.516572
    C   C17  0.643135  0.974552  0.904561  0.530419
    O   O7   0.502997  0.917274  0.678940  -0.524274
    O   O8   0.453567  0.790735  0.759702  -0.489923
    C   C18  0.480652  0.832053  0.681505  0.600686
    O   O9   0.469537  0.038260  0.328324  -0.560265
    O   O10  0.499739  0.163949  0.240928  -0.517137
    C   C19  0.481246  0.122887  0.322285  0.665886
    O   O11  0.399993  0.965554  0.088342  -0.499682
    O   O12  0.312843  0.998652  0.191063  -0.515353
    C   C20  0.326173  0.983043  0.102127  0.525366
    O   O13  0.585406  0.924387  0.354401  -0.463048
    O   O14  0.595262  0.028960  0.167425  -0.501838
    C   C21  0.619613  0.973622  0.115081  0.592801
    O   O15  0.460049  0.851756  0.266913  -0.555547
    C   C22  0.522420  0.853243  0.339614  0.540746
    O   O16  0.567290  0.896177  0.096721  -0.485114
    Fe  Fe2  0.482303  0.970559  0.212643  1.407400
    H   H6   0.507839  0.903405  0.509645  0.142532
    C   C23  0.505080  0.795924  0.422812  0.074182
    C   C24  0.496320  0.707780  0.418406  -0.204722
    H   H7   0.501177  0.678308  0.350283  0.149532
    C   C25  0.482999  0.658082  0.501853  0.100476
    C   C26  0.475275  0.696895  0.588455  -0.170580
    H   H8   0.465631  0.658573  0.653847  0.126736
    C   C27  0.484923  0.785659  0.592279  0.031078
    C   C28  0.500772  0.834158  0.509309  -0.141915
    C   C29  0.417005  0.505014  0.540351  -0.152458
    H   H9   0.366438  0.525079  0.571756  0.129944
    C   C30  0.415978  0.418161  0.539238  -0.147446
    H   H10  0.363862  0.371687  0.568794  0.096810
    C   C31  0.480477  0.390740  0.500469  0.149957
    C   C32  0.542979  0.450958  0.457436  -0.139901
    H   H11  0.593589  0.430904  0.426099  0.116746
    C   C33  0.542877  0.537679  0.456561  -0.153842
    H   H12  0.593802  0.584022  0.424897  0.111600
    C   C34  0.480663  0.565365  0.499331  0.101773
    C   C35  0.484430  0.258001  0.414317  -0.162226
    H   H13  0.491496  0.295577  0.348082  0.122108
    C   C36  0.475891  0.169445  0.411159  -0.002655
    C   C37  0.461440  0.121671  0.494758  -0.144225
    H   H14  0.453689  0.052330  0.494526  0.165186
    C   C38  0.460984  0.160576  0.582180  0.000489
    C   C39  0.472517  0.249548  0.587419  -0.047781
    C   C40  0.480554  0.298169  0.501589  0.032663
    C   C41  0.478833  0.291139  0.682981  0.175600
    C   C42  0.554576  0.351322  0.719086  -0.075870
    C   C43  0.561260  0.390385  0.808878  -0.329924
    C   C44  0.492081  0.369510  0.863165  0.381224
    C   C45  0.498373  0.411225  0.960170  -0.404934
    C   C46  0.416388  0.309526  0.827311  -0.282518
    C   C47  0.409722  0.270370  0.737600  -0.043309
    H   H15  0.609227  0.367566  0.677283  0.089165
    H   H16  0.621028  0.437208  0.836165  0.162540
    H   H17  0.563103  0.457528  0.977971  0.105223
    H   H18  0.489447  0.360543  0.017351  0.138933
    H   H19  0.446548  0.446625  0.958406  0.104651
    H   H20  0.362009  0.293206  0.869511  0.142569
    H   H21  0.349738  0.224122  0.709709  0.070905
    C   C48  0.775370  0.019526  0.257005  0.173071
    C   C49  0.761974  0.095553  0.290378  -0.136007
    C   C50  0.763576  0.108627  0.389225  -0.248220
    C   C51  0.780226  0.046298  0.455377  0.345431
    C   C52  0.782232  0.059531  0.562278  -0.401119
    C   C53  0.795795  0.971323  0.422304  -0.243524
    C   C54  0.793941  0.958210  0.323458  -0.163232
    H   H22  0.750938  0.145405  0.239069  0.130818
    H   H23  0.752392  0.168201  0.414222  0.136122
    H   H24  0.768738  0.122804  0.576362  0.101839
    H   H25  0.847624  0.058382  0.600448  0.101063
    H   H26  0.731982  0.006647  0.590771  0.141718
    H   H27  0.809653  0.922746  0.473928  0.142431
    H   H28  0.806872  0.899562  0.298156  0.122997
