# Generated by REPEAT Assigner based on pymatgen
data_DB0-m29_o99_o430_f0_pts.sym.51
_audit_creation_date              2022-05-24
_audit_creation_method            REPEAT_Assigner
_cell_length_a                    15.882668
_cell_length_b                    15.963059
_cell_length_c                    13.875818
_cell_angle_alpha                 88.512054
_cell_angle_beta                  97.452141
_cell_angle_gamma                 104.488615
_cell_volume                      3377.290023
_symmetry_space_group_name_H-M    P1
_symmetry_Int_Tables_number       1
loop_
    _symmetry_equiv_pos_site_id
    _symmetry_equiv_pos_as_xyz
    1  x,y,z
loop_
    _atom_site_type_symbol
    _atom_site_label
    _atom_site_fract_x
    _atom_site_fract_y
    _atom_site_fract_z
    _atom_type_partial_charge
    C   C1   0.225154  0.980047  0.853728  -0.140267
    H   H1   0.235885  0.975497  0.778903  0.156166
    C   C2   0.142124  0.976716  0.874778  -0.171668
    H   H2   0.088031  0.968138  0.816955  0.159577
    C   C3   0.128666  0.987868  0.968947  0.293687
    C   C4   0.197467  0.998410  0.042818  -0.221787
    H   H3   0.184537  0.005023  0.116410  0.163342
    C   C5   0.281499  0.001717  0.022763  0.042686
    C   C6   0.295485  0.995026  0.926293  -0.001228
    C   C7   0.043160  0.990557  0.989562  -0.127710
    C   C8   0.971263  0.993777  0.005673  -0.103599
    C   C9   0.815316  0.987048  0.950886  -0.147697
    C   C10  0.732084  0.987636  0.974372  0.052396
    C   C11  0.722393  0.001239  0.070622  0.000016
    C   C12  0.793950  0.016278  0.141264  -0.152016
    H   H4   0.786118  0.025838  0.216092  0.171932
    C   C13  0.874668  0.013438  0.118628  -0.150363
    H   H5   0.929852  0.022554  0.175158  0.137659
    C   C14  0.885476  0.997711  0.024720  0.229569
    O   O1   0.527070  0.132570  0.723949  -0.592299
    C   C15  0.459219  0.129836  0.658063  0.610544
    O   O2   0.435935  0.090375  0.911513  -0.468814
    O   O3   0.395577  0.058885  0.649596  -0.563139
    O   O4   0.402955  0.958633  0.838595  -0.480067
    C   C16  0.383073  0.013065  0.895862  0.601875
    Fe  Fe1  0.511598  0.016788  0.783873  1.423443
    O   O5   0.601188  0.028720  0.902144  -0.508293
    O   O6   0.641499  0.922250  0.828429  -0.374788
    C   C17  0.655499  0.978906  0.899027  0.434101
    O   O7   0.519543  0.945309  0.670074  -0.581987
    O   O8   0.458491  0.821869  0.749211  -0.464026
    C   C18  0.489191  0.860695  0.671932  0.621322
    O   O9   0.505880  0.069045  0.329613  -0.532182
    O   O10  0.495183  0.184074  0.231299  -0.488210
    C   C19  0.497030  0.148454  0.317594  0.563434
    O   O11  0.430914  0.004675  0.089580  -0.483856
    O   O12  0.333368  0.006288  0.194353  -0.512446
    C   C20  0.351775  0.007102  0.104792  0.561093
    O   O13  0.606250  0.933047  0.346143  -0.542846
    O   O14  0.626697  0.042952  0.170485  -0.561847
    C   C21  0.636193  0.991922  0.102180  0.645194
    O   O15  0.471836  0.879872  0.264599  -0.576118
    C   C22  0.534017  0.870801  0.333185  0.584479
    O   O16  0.571941  0.924571  0.073489  -0.492922
    Fe  Fe2  0.509750  0.998386  0.213445  1.424695
    H   H6   0.518512  0.926950  0.499385  0.168385
    C   C23  0.510659  0.816262  0.416219  0.096748
    C   C24  0.497931  0.727777  0.414168  -0.193036
    H   H7   0.504806  0.697122  0.348122  0.139477
    C   C25  0.483582  0.680389  0.498420  0.063056
    C   C26  0.478734  0.722607  0.583416  -0.161679
    H   H8   0.466383  0.686342  0.649135  0.132266
    C   C27  0.490936  0.811626  0.584397  0.045819
    C   C28  0.508004  0.857454  0.500743  -0.159263
    C   C29  0.521714  0.550642  0.575396  -0.156987
    H   H9   0.557404  0.589740  0.637035  0.137620
    C   C30  0.522662  0.464524  0.572830  -0.161538
    H   H10  0.558720  0.438823  0.632903  0.133108
    C   C31  0.481113  0.413091  0.493251  0.124957
    C   C32  0.438123  0.449407  0.416512  -0.140568
    H   H11  0.403041  0.410478  0.354497  0.128730
    C   C33  0.437405  0.535644  0.418983  -0.169624
    H   H12  0.402415  0.561934  0.358455  0.132425
    C   C34  0.479367  0.587102  0.498349  0.137476
    C   C35  0.488165  0.281209  0.405198  -0.169306
    H   H13  0.496868  0.318533  0.339554  0.132362
    C   C36  0.486966  0.194161  0.404251  0.079219
    C   C37  0.476389  0.147045  0.488297  -0.183504
    H   H14  0.473666  0.078778  0.489817  0.170116
    C   C38  0.470404  0.185407  0.573304  0.094368
    C   C39  0.473893  0.272387  0.575826  -0.206712
    H   H15  0.466570  0.300796  0.643096  0.140754
    C   C40  0.481320  0.320787  0.491252  0.074464
    C   C41  0.832715  0.980853  0.847457  0.084334
    C   C42  0.830265  0.888078  0.821792  0.226519
    C   C43  0.838199  0.881398  0.714740  -0.234944
    H   H16  0.781851  0.898739  0.670288  0.056733
    H   H17  0.900252  0.925794  0.697886  0.032900
    H   H18  0.838340  0.814036  0.697283  0.049346
    H   H19  0.885341  0.867695  0.865044  -0.048822
    H   H20  0.767843  0.844028  0.837846  -0.037521
    H   H21  0.785553  0.005271  0.795620  0.001191
    H   H22  0.897471  0.023442  0.836579  0.004097
