# Generated by REPEAT Assigner based on pymatgen
data_DB0-m3_o7_o16_f0_pcu.sym.107_sqe
_audit_creation_date              2022-05-24
_audit_creation_method            REPEAT_Assigner
_cell_length_a                    13.627019
_cell_length_b                    16.600043
_cell_length_c                    17.772053
_cell_angle_alpha                 90.000306
_cell_angle_beta                  89.988544
_cell_angle_gamma                 73.857628
_cell_volume                      3861.698961
_symmetry_space_group_name_H-M    P1
_symmetry_Int_Tables_number       1
loop_
    _symmetry_equiv_pos_site_id
    _symmetry_equiv_pos_as_xyz
    1  x,y,z
loop_
    _atom_site_type_symbol
    _atom_site_label
    _atom_site_fract_x
    _atom_site_fract_y
    _atom_site_fract_z
    _atom_type_partial_charge
    O   O1   0.497597  0.427685  0.615295  -0.655428
    O   O2   0.489425  0.568060  0.616919  -0.591541
    C   C1   0.491885  0.497803  0.651391  0.652649
    O   O3   0.654237  0.396300  0.506679  -0.723367
    O   O4   0.648426  0.535827  0.509051  -0.729789
    C   C2   0.699771  0.456444  0.507751  0.891374
    Zn  Zn1  0.502168  0.408340  0.502591  1.060530
    Zn  Zn2  0.496373  0.592714  0.505727  1.052869
    O   O5   0.507028  0.433132  0.391294  -0.667511
    O   O6   0.501587  0.573345  0.393003  -0.638000
    O   O7   0.349958  0.464708  0.499827  -0.665124
    O   O8   0.344329  0.605056  0.500335  -0.703344
    C   C3   0.505903  0.503304  0.356925  0.726277
    C   C4   0.299438  0.544471  0.498735  0.778361
    C   C5   0.035012  0.657389  0.441498  -0.269965
    H   H1   0.175946  0.688274  0.444793  0.105133
    H   H2   0.848410  0.670436  0.402180  0.110762
    H   H3   0.995831  0.715951  0.414703  0.124051
    C   C6   0.188316  0.565944  0.489429  -0.125484
    C   C7   0.859577  0.357657  0.546510  -0.025002
    C   C8   0.962104  0.336039  0.561482  -0.143842
    C   C9   0.019260  0.389917  0.544577  -0.154879
    C   C10  0.975466  0.466220  0.508801  0.010827
    C   C11  0.871658  0.486340  0.490456  0.295475
    C   C12  0.032323  0.523000  0.491056  -0.008048
    C   C13  0.983800  0.598147  0.456256  0.247546
    C   C14  0.884278  0.613973  0.433282  -0.191906
    C   C15  0.829843  0.557773  0.447883  -0.297874
    C   C16  0.136539  0.507262  0.506192  -0.106189
    C   C17  0.136629  0.642031  0.458910  -0.056410
    C   C18  0.812427  0.433347  0.512866  -0.306384
    H   H4   0.180959  0.449610  0.530646  0.090705
    H   H5   0.816081  0.315621  0.564226  0.095725
    H   H6   0.098161  0.368652  0.560702  0.130406
    H   H7   0.997761  0.277134  0.589064  0.104685
    H   H8   0.755010  0.571328  0.423115  0.164771
    C   C19  0.508630  0.429683  0.158154  -0.238028
    H   H9   0.510903  0.372483  0.128260  0.136910
    C   C20  0.510415  0.430036  0.235638  -0.036886
    H   H10  0.514034  0.372366  0.265124  0.095816
    C   C21  0.506844  0.503163  0.274365  -0.116709
    C   C22  0.502138  0.575748  0.234510  -0.033420
    H   H11  0.499077  0.633699  0.263357  0.083412
    C   C23  0.500334  0.575066  0.156847  -0.239407
    H   H12  0.496069  0.631973  0.125863  0.139602
    C   C24  0.503244  0.502108  0.118716  0.313203
    C   C25  0.499918  0.501280  0.038025  -0.170818
    C   C26  0.496990  0.500138  0.970279  -0.181284
    C   C27  0.500514  0.425551  0.851448  -0.221324
    H   H13  0.507842  0.368138  0.882423  0.135620
    C   C28  0.498864  0.424793  0.773787  -0.084780
    H   H14  0.505208  0.366267  0.744928  0.098743
    C   C29  0.490416  0.498020  0.733942  -0.016145
    C   C30  0.482709  0.571873  0.772673  -0.144373
    H   H15  0.475773  0.630075  0.743167  0.144587
    C   C31  0.484341  0.572313  0.850160  -0.192630
    H   H16  0.478872  0.630105  0.880058  0.128958
    C   C32  0.493662  0.499235  0.889590  0.301694
    C   C33  0.557660  0.148974  0.545319  -0.251606
    H   H17  0.603901  0.103834  0.583988  0.153121
    C   C34  0.560901  0.231304  0.546749  -0.005771
    H   H18  0.609653  0.250610  0.586765  0.165407
    N   N1   0.502757  0.287766  0.499011  -0.086833
    C   C35  0.441117  0.264801  0.449087  0.050390
    H   H19  0.394485  0.310876  0.411365  0.129563
    C   C36  0.436144  0.183025  0.446258  -0.253933
    H   H20  0.386102  0.165028  0.406442  0.151568
    C   C37  0.494568  0.124677  0.494902  0.383713
    C   C38  0.489251  0.039513  0.493925  -0.186963
    C   C39  0.486730  0.967514  0.494935  -0.144561
    C   C40  0.551479  0.829764  0.549972  -0.370373
    H   H21  0.599447  0.855429  0.585776  0.160545
    C   C41  0.555330  0.746140  0.555001  0.307611
    N   N2   0.496067  0.713374  0.509409  -0.220188
    C   C42  0.432759  0.763577  0.459522  0.062749
    H   H22  0.385895  0.737698  0.422946  0.152785
    C   C43  0.427531  0.847700  0.453747  -0.312439
    H   H23  0.376883  0.886963  0.413281  0.160793
    C   C44  0.487870  0.880913  0.499306  0.412143
    C   C45  0.627441  0.695486  0.611583  0.210505
    O   O9   0.601472  0.729704  0.682934  -0.556793
    H   H24  0.705916  0.697916  0.597684  -0.007915
    H   H25  0.627017  0.629658  0.612523  0.053935
    H   H26  0.666948  0.733254  0.704807  0.357746
