# Generated by REPEAT Assigner based on pymatgen
data_DB0-m2_o14_o24_f0_nbo.sym.10_sqe
_audit_creation_date              2022-05-24
_audit_creation_method            REPEAT_Assigner
_cell_length_a                    18.447753
_cell_length_b                    18.738468
_cell_length_c                    18.805202
_cell_angle_alpha                 109.601375
_cell_angle_beta                  109.589282
_cell_angle_gamma                 108.748099
_cell_volume                      5033.029373
_symmetry_space_group_name_H-M    P1
_symmetry_Int_Tables_number       1
loop_
    _symmetry_equiv_pos_site_id
    _symmetry_equiv_pos_as_xyz
    1  x,y,z
loop_
    _atom_site_type_symbol
    _atom_site_label
    _atom_site_fract_x
    _atom_site_fract_y
    _atom_site_fract_z
    _atom_type_partial_charge
    O   O1   0.591503  0.536725  0.453530  -0.621222
    O   O2   0.600483  0.643479  0.567643  -0.609202
    C   C1   0.628492  0.617905  0.513461  0.752331
    O   O3   0.410511  0.458025  0.363487  -0.570052
    O   O4   0.414748  0.565306  0.473314  -0.615982
    C   C2   0.388287  0.517267  0.390932  0.564534
    Cu  Cu1  0.495654  0.441032  0.441531  0.977820
    Cu  Cu2  0.501021  0.565426  0.568418  0.981680
    O   O5   0.395847  0.362863  0.441820  -0.600271
    O   O6   0.405599  0.469890  0.557067  -0.595157
    O   O7   0.576194  0.436089  0.536283  -0.606026
    O   O8   0.581347  0.544072  0.646169  -0.588933
    C   C3   0.368786  0.388628  0.497028  0.782526
    C   C4   0.606770  0.487479  0.619050  0.704650
    C   C5   0.330367  0.599053  0.313205  -0.090995
    C   C6   0.239435  0.579464  0.302773  -0.010482
    H   H1   0.221083  0.627827  0.332280  0.039419
    H   H2   0.390608  0.663664  0.354369  0.053291
    C   C7   0.199266  0.521463  0.206454  0.149823
    C   C8   0.288824  0.540995  0.215627  -0.082474
    C   C9   0.279760  0.463064  0.227974  -0.071064
    C   C10  0.189290  0.443613  0.217859  -0.003162
    C   C11  0.230559  0.501498  0.315148  -0.090318
    C   C12  0.320136  0.521019  0.324352  0.210435
    H   H3   0.311796  0.557413  0.172915  0.059995
    H   H4   0.297200  0.414300  0.197387  0.040913
    H   H5   0.129117  0.379003  0.177150  0.012584
    H   H6   0.207821  0.484814  0.357880  0.038115
    H   H7   0.629232  0.643166  0.384497  0.123910
    C   C13  0.797824  0.732821  0.668985  -0.243693
    H   H8   0.750839  0.679707  0.667741  0.150157
    C   C14  0.875199  0.791187  0.746213  -0.121744
    H   H9   0.886122  0.783669  0.802819  0.119855
    C   C15  0.938253  0.859196  0.751408  -0.050526
    H   H10  0.998814  0.905820  0.812402  0.101434
    C   C16  0.925187  0.867754  0.678970  -0.270934
    H   H11  0.977161  0.922489  0.687990  0.161660
    C   C17  0.848301  0.808195  0.599332  0.186907
    C   C18  0.782563  0.741641  0.595650  0.216648
    C   C19  0.702797  0.683400  0.518490  -0.184251
    C   C20  0.690936  0.688618  0.444693  -0.089472
    H   H12  0.743185  0.756553  0.388532  0.128406
    C   C21  0.755369  0.753773  0.447637  -0.085571
    C   C22  0.834086  0.814636  0.524057  -0.185372
    H   H13  0.749571  0.619357  0.761109  0.139050
    C   C23  0.588985  0.323967  0.612688  -0.260755
    H   H14  0.531363  0.320650  0.568130  0.166684
    C   C24  0.584295  0.246606  0.604342  -0.081675
    H   H15  0.525545  0.185959  0.553052  0.102983
    C   C25  0.654447  0.246285  0.660438  -0.033551
    H   H16  0.651375  0.185367  0.652638  0.095789
    C   C26  0.728137  0.323412  0.727409  -0.315445
    H   H17  0.781881  0.319626  0.768987  0.176077
    C   C27  0.732706  0.402269  0.738792  0.223525
    C   C28  0.664374  0.402497  0.677824  0.205354
    C   C29  0.671408  0.481276  0.684756  -0.157769
    C   C30  0.743790  0.557992  0.754480  -0.122553
    H   H18  0.866389  0.618933  0.869253  0.141525
    C   C31  0.810474  0.557760  0.815184  -0.141681
    C   C32  0.805549  0.480788  0.808728  -0.163008
    H   H19  0.375041  0.356273  0.623584  0.109841
    C   C33  0.195459  0.282252  0.347580  -0.214866
    H   H20  0.242039  0.336317  0.349385  0.150803
    C   C34  0.115407  0.227815  0.272507  -0.159983
    H   H21  0.101727  0.239475  0.218229  0.175389
    C   C35  0.053308  0.158236  0.266309  -0.029999
    H   H22  0.990935  0.114249  0.206535  0.080921
    C   C36  0.069648  0.144591  0.336154  -0.276970
    H   H23  0.018308  0.088323  0.325852  0.175170
    C   C37  0.148857  0.200963  0.414448  0.193201
    C   C38  0.213693  0.268533  0.418279  0.202829
    C   C39  0.295764  0.323032  0.493140  -0.213633
    C   C40  0.311316  0.313578  0.565173  -0.080080
    H   H24  0.262668  0.242581  0.620542  0.127660
    C   C41  0.247661  0.248071  0.562564  -0.074289
    C   C42  0.166339  0.190566  0.488055  -0.202693
    O   O9   0.938549  0.538295  0.089272  -0.591001
    O   O10  0.041803  0.643496  0.085094  -0.607379
    C   C43  0.988475  0.619719  0.114521  0.758081
    O   O11  0.045759  0.464859  0.110948  -0.605517
    O   O12  0.148043  0.563341  0.099481  -0.609825
    C   C44  0.127277  0.517559  0.136119  0.578086
    Cu  Cu3  0.943264  0.441896  0.011765  0.960764
    Cu  Cu4  0.060909  0.563424  0.005258  0.982051
    O   O13  0.958946  0.361382  0.928424  -0.597033
    O   O14  0.059136  0.466229  0.921164  -0.596020
    O   O15  0.856193  0.440358  0.916112  -0.575822
    O   O16  0.958397  0.541952  0.907152  -0.591457
    C   C45  0.015738  0.385790  0.902611  0.734507
    C   C46  0.876801  0.486211  0.879339  0.718548
    O   O17  0.950790  0.092500  0.557617  -0.603742
    O   O18  0.066383  0.089775  0.651997  -0.570126
    C   C47  0.009841  0.118494  0.636685  0.707451
    O   O19  0.862341  0.909137  0.465961  -0.595227
    O   O20  0.981852  0.916071  0.565991  -0.569108
    C   C48  0.896350  0.884312  0.520114  0.702219
    Cu  Cu5  0.931368  0.001954  0.452166  0.952041
    Cu  Cu6  0.069358  0.003585  0.560783  0.948681
    O   O21  0.935073  0.916593  0.360872  -0.574998
    O   O22  0.049250  0.912248  0.455502  -0.601330
    O   O23  0.018931  0.090263  0.447824  -0.570451
    O   O24  0.138317  0.095633  0.546072  -0.602737
    C   C49  0.990778  0.886896  0.376520  0.723822
    C   C50  0.104308  0.121096  0.492537  0.715827
    H   H25  0.996896  0.634451  0.260935  0.121814
    C   C51  0.956019  0.751524  0.084307  -0.291202
    H   H26  0.945837  0.697793  0.029660  0.170891
    C   C52  0.950763  0.818886  0.073181  -0.072330
    H   H27  0.939068  0.817408  0.012270  0.100143
    C   C53  0.961620  0.888485  0.139839  -0.084791
    H   H28  0.959542  0.942445  0.131911  0.110917
    C   C54  0.974060  0.889201  0.216425  -0.239076
    H   H29  0.983433  0.945719  0.266882  0.143146
    C   C55  0.975971  0.820128  0.227645  0.167080
    C   C56  0.971671  0.752719  0.162439  0.259961
    C   C57  0.981355  0.686659  0.175524  -0.226815
    C   C58  0.989406  0.685574  0.250497  -0.080798
    H   H30  0.999047  0.749087  0.372816  0.126433
    C   C59  0.991899  0.751097  0.314182  -0.087178
    C   C60  0.985378  0.818679  0.303951  -0.180129
    H   H31  0.992055  0.364637  0.749671  0.127395
    C   C61  0.058558  0.260850  0.934915  -0.331813
    H   H32  0.067528  0.314364  0.989021  0.185054
    C   C62  0.071868  0.197592  0.948942  0.208108
    C   C63  0.061935  0.128262  0.882904  -0.129949
    H   H33  0.070467  0.077530  0.893356  0.119253
    C   C64  0.042003  0.123542  0.803648  -0.256509
    H   H34  0.033607  0.067108  0.754214  0.173386
    C   C65  0.032130  0.188619  0.789054  0.178094
    C   C66  0.036465  0.255934  0.854451  0.190211
    C   C67  0.020421  0.318537  0.839434  -0.157314
    C   C68  0.004615  0.316105  0.761592  -0.101383
    H   H35  0.988557  0.250088  0.636675  0.131107
    C   C69  0.001396  0.250475  0.697292  -0.082764
    C   C70  0.015069  0.186378  0.709719  -0.169987
    Cl  Cl1  0.100313  0.204631  0.050557  -0.149298
