# Generated by REPEAT Assigner based on pymatgen
data_DB0-m29_o82_o46_f0_pts.sym.72
_audit_creation_date              2022-05-24
_audit_creation_method            REPEAT_Assigner
_cell_length_a                    14.321853
_cell_length_b                    10.081595
_cell_length_c                    13.251055
_cell_angle_alpha                 83.146577
_cell_angle_beta                  92.999835
_cell_angle_gamma                 114.204973
_cell_volume                      1732.593380
_symmetry_space_group_name_H-M    P1
_symmetry_Int_Tables_number       1
loop_
    _symmetry_equiv_pos_site_id
    _symmetry_equiv_pos_as_xyz
    1  x,y,z
loop_
    _atom_site_type_symbol
    _atom_site_label
    _atom_site_fract_x
    _atom_site_fract_y
    _atom_site_fract_z
    _atom_type_partial_charge
    C   C1   0.235286  0.940238  0.852410  0.041632
    C   C2   0.135351  0.891938  0.817808  -0.136719
    C   C3   0.058195  0.889084  0.877167  -0.089614
    C   C4   0.907915  0.019357  0.885214  -0.185845
    C   C5   0.254037  0.969215  0.953461  -0.108651
    C   C6   0.175681  0.969940  0.011991  0.001764
    C   C7   0.079502  0.944863  0.970582  0.118443
    C   C8   0.005690  0.963831  0.027779  -0.133775
    C   C9   0.817573  0.018377  0.845404  -0.099156
    C   C10  0.734377  0.982747  0.906865  -0.029872
    C   C11  0.916168  0.976400  0.987331  0.172473
    C   C12  0.838770  0.966437  0.051829  0.056915
    C   C13  0.746204  0.966520  0.011534  -0.030839
    C   C14  0.193196  0.995231  0.112805  0.042930
    C   C15  0.116654  0.990290  0.172369  -0.193513
    C   C16  0.023885  0.975429  0.130617  0.237328
    C   C17  0.951081  0.977299  0.193099  -0.236872
    C   C18  0.858182  0.967879  0.155272  -0.096238
    H   H1   0.115564  0.855369  0.743151  0.133811
    H   H2   0.981029  0.840583  0.848399  0.116490
    H   H3   0.972090  0.059504  0.834177  0.137261
    H   H4   0.812865  0.043501  0.764229  0.161372
    H   H5   0.264825  0.013598  0.149325  0.039081
    H   H6   0.131634  0.004473  0.252049  0.139677
    H   H7   0.966565  0.986222  0.273296  0.150509
    H   H8   0.806152  0.973372  0.208680  0.136416
    O   O1   0.615654  0.044964  0.054218  -0.573776
    C   C19  0.663243  0.957577  0.077304  0.552512
    O   O2   0.434967  0.690726  0.176887  -0.422649
    O   O3   0.634172  0.858899  0.156230  -0.507904
    O   O4   0.474918  0.876809  0.273729  -0.620409
    C   C20  0.443001  0.735696  0.266895  0.707380
    Fe  Fe1  0.500761  0.009237  0.145544  1.462798
    O   O5   0.370775  0.909825  0.068519  -0.602050
    O   O6   0.424536  0.140129  0.987692  -0.510550
    C   C21  0.355929  0.004530  0.999295  0.789914
    O   O7   0.537071  0.211029  0.184513  -0.608716
    O   O8   0.392824  0.079784  0.274767  -0.484060
    C   C22  0.465709  0.207016  0.245098  0.574183
    O   O9   0.426982  0.831937  0.633113  -0.551694
    O   O10  0.564840  0.780944  0.677833  -0.496765
    C   C23  0.479528  0.753031  0.626063  0.531151
    O   O11  0.642460  0.041075  0.766897  -0.641142
    O   O12  0.548986  0.879040  0.896005  -0.467054
    C   C24  0.637716  0.970694  0.857385  0.718900
    O   O13  0.291771  0.933163  0.685672  -0.468254
    O   O14  0.552038  0.178200  0.591150  -0.615139
    C   C25  0.505029  0.265968  0.585584  0.537977
    O   O15  0.412561  0.997049  0.809473  -0.575825
    C   C26  0.316098  0.954553  0.780985  0.589358
    O   O16  0.436407  0.246877  0.654032  -0.467774
    Fe  Fe2  0.507531  0.013623  0.700494  1.466764
    C   C27  0.432360  0.639085  0.363798  -0.075376
    C   C28  0.428235  0.703057  0.449936  -0.188644
    H   H9   0.413863  0.800877  0.442520  0.185069
    C   C29  0.456648  0.658343  0.544166  0.158077
    C   C30  0.483910  0.542469  0.554833  -0.206997
    H   H10  0.514119  0.517103  0.627325  0.152089
    C   C31  0.478257  0.466049  0.473106  0.018755
    C   C32  0.450516  0.510298  0.376385  0.220250
    C   C33  0.441176  0.422119  0.298312  -0.332257
    C   C34  0.487229  0.323190  0.310417  0.169633
    H   H11  0.547391  0.204597  0.412235  0.177101
    C   C35  0.524188  0.294624  0.403453  -0.249078
    C   C36  0.506518  0.349469  0.486749  0.107531
    C   C37  0.363755  0.404981  0.217627  0.757210
    O   O17  0.285747  0.419386  0.234707  -0.534118
    N   N1   0.378469  0.371643  0.119522  -0.643578
    H   H12  0.316004  0.369418  0.074341  0.291361
    H   H13  0.444164  0.457104  0.088278  0.330786
