# Generated by REPEAT Assigner based on pymatgen
data_DB0-m3_o6_o15_f0_pcu.sym.52_sqe
_audit_creation_date              2022-05-24
_audit_creation_method            REPEAT_Assigner
_cell_length_a                    16.134879
_cell_length_b                    14.962872
_cell_length_c                    11.011796
_cell_angle_alpha                 90.000000
_cell_angle_beta                  89.993674
_cell_angle_gamma                 90.000000
_cell_volume                      2658.513347
_symmetry_space_group_name_H-M    P1
_symmetry_Int_Tables_number       1
loop_
    _symmetry_equiv_pos_site_id
    _symmetry_equiv_pos_as_xyz
    1  x,y,z
loop_
    _atom_site_type_symbol
    _atom_site_label
    _atom_site_fract_x
    _atom_site_fract_y
    _atom_site_fract_z
    _atom_type_partial_charge
    O   O1   0.377882  0.576114  0.497803  -0.579512
    O   O2   0.624744  0.421783  0.499121  -0.616731
    O   O3   0.624861  0.576039  0.498824  -0.591516
    O   O4   0.377766  0.421883  0.498113  -0.607113
    C   C1   0.250376  0.499122  0.497295  -0.159155
    C   C2   0.752242  0.498780  0.499074  -0.215333
    C   C3   0.339309  0.499035  0.497749  0.720339
    C   C4   0.663314  0.498871  0.499106  0.761527
    O   O5   0.501759  0.575837  0.317246  -0.697110
    O   O6   0.500877  0.422083  0.679698  -0.691709
    O   O7   0.501031  0.576244  0.679445  -0.693035
    O   O8   0.501593  0.421663  0.317495  -0.694809
    H   H1   0.077876  0.553664  0.676131  0.212391
    H   H2   0.924693  0.444302  0.319581  0.130812
    H   H3   0.925445  0.553335  0.677049  0.126594
    H   H4   0.077147  0.444714  0.318631  0.158414
    C   C5   0.501805  0.498717  0.260030  0.901607
    C   C6   0.500889  0.499203  0.736909  0.889557
    Zn  Zn1  0.501376  0.600556  0.498288  1.032279
    Zn  Zn2  0.501246  0.397354  0.498659  1.050112
    C   C7   0.915845  0.498834  0.498356  0.247320
    C   C8   0.086754  0.499236  0.497338  0.339400
    C   C9   0.501125  0.811329  0.497929  0.035070
    C   C10  0.501064  0.186577  0.499045  0.028479
    C   C11  0.826920  0.498768  0.498825  -0.103831
    C   C12  0.175692  0.499178  0.497122  -0.156244
    H   H5   0.236141  0.397344  0.110751  0.103315
    H   H6   0.766532  0.600836  0.886166  0.105694
    H   H7   0.235457  0.398205  0.888216  0.079886
    H   H8   0.766955  0.600728  0.108699  0.094226
    C   C13  0.642700  0.553453  0.122793  -0.285202
    C   C14  0.359859  0.445077  0.874105  -0.281379
    C   C15  0.642265  0.553497  0.873059  -0.240525
    C   C16  0.360501  0.444351  0.123843  -0.245167
    C   C17  0.712001  0.580281  0.059902  -0.067776
    C   C18  0.290544  0.418278  0.936988  -0.057330
    C   C19  0.711779  0.580304  0.935395  -0.115508
    C   C20  0.290896  0.417837  0.061496  -0.121321
    C   C21  0.571136  0.527185  0.934964  0.203367
    C   C22  0.431594  0.470792  0.061943  0.229100
    C   C23  0.571389  0.527048  0.061444  0.253597
    C   C24  0.431289  0.471099  0.935467  0.228452
    C   C25  0.501077  0.499233  0.871331  -0.399003
    C   C26  0.501658  0.498716  0.125589  -0.428105
    C   C27  0.500844  0.907023  0.498112  0.194417
    C   C28  0.500864  0.090873  0.498853  0.189262
    C   C29  0.427799  0.952769  0.477324  -0.111267
    C   C30  0.573674  0.045078  0.520479  -0.084451
    C   C31  0.573779  0.952742  0.519230  -0.120247
    C   C32  0.427942  0.045221  0.476971  -0.116912
    H   H9   0.646991  0.553408  0.220493  0.161716
    H   H10  0.355421  0.445521  0.776419  0.168376
    H   H11  0.646269  0.553461  0.775343  0.159264
    H   H12  0.356563  0.444185  0.221574  0.154619
    N   N1   0.501188  0.263773  0.498976  -0.099534
    N   N2   0.501393  0.734137  0.497991  -0.105585
    C   C33  0.958773  0.529493  0.598282  -0.138394
    C   C34  0.043826  0.468598  0.397379  -0.241559
    C   C35  0.044223  0.529681  0.597767  -0.302367
    C   C36  0.958362  0.468380  0.397902  -0.159275
    C   C37  0.350922  0.095176  0.458215  0.257309
    C   C38  0.289833  0.094084  0.546079  -0.170789
    C   C39  0.217429  0.141368  0.528840  0.054107
    Cl  Cl1  0.140165  0.139785  0.640485  -0.093921
    C   C40  0.205901  0.189965  0.423842  -0.070966
    C   C41  0.266749  0.191192  0.335962  -0.143937
    C   C42  0.339130  0.143827  0.352998  -0.159497
    H   H13  0.298879  0.056635  0.628993  0.100035
    H   H14  0.149178  0.227109  0.410415  0.113947
    H   H15  0.257688  0.229246  0.253580  0.144934
    H   H16  0.386500  0.144603  0.283557  0.113157
    C   C43  0.650182  0.903011  0.543260  0.258808
    C   C44  0.683115  0.901094  0.658977  -0.178237
    C   C45  0.755104  0.854305  0.681611  0.065176
    Cl  Cl2  0.796452  0.851670  0.828570  -0.082408
    C   C46  0.794409  0.809416  0.588669  -0.054697
    C   C47  0.761658  0.811183  0.473070  -0.184980
    C   C48  0.689632  0.857870  0.450349  -0.145470
    H   H17  0.652234  0.935812  0.732244  0.099115
    H   H18  0.850840  0.772762  0.606456  0.093726
    H   H19  0.792480  0.776010  0.400173  0.159868
    H   H20  0.664315  0.859409  0.359482  0.114157
    C   C49  0.650545  0.094707  0.541565  0.208011
    C   C50  0.711303  0.096868  0.453277  -0.132631
    C   C51  0.783797  0.143419  0.473232  0.014680
    Cl  Cl3  0.860447  0.146505  0.360725  -0.084183
    C   C52  0.795866  0.187698  0.581589  -0.027238
    C   C53  0.735325  0.185658  0.669906  -0.162468
    C   C54  0.662686  0.139387  0.649887  -0.127617
    H   H21  0.701943  0.062528  0.367999  0.094588
    H   H22  0.852780  0.224012  0.597303  0.107449
    H   H23  0.744794  0.220364  0.754892  0.137531
    H   H24  0.615473  0.137682  0.719524  0.109834
    C   C55  0.351504  0.903065  0.451776  0.286739
    C   C56  0.313075  0.854608  0.542550  -0.159100
    C   C57  0.241102  0.808211  0.518320  0.088889
    Cl  Cl4  0.192506  0.747146  0.633765  -0.105897
    C   C58  0.207335  0.809996  0.403350  -0.121262
    C   C59  0.245592  0.858149  0.312528  -0.092193
    C   C60  0.317528  0.904640  0.336656  -0.243180
    H   H25  0.339054  0.853396  0.633027  0.111092
    H   H26  0.150906  0.773630  0.384404  0.122145
    H   H27  0.219223  0.859412  0.222301  0.132966
    H   H28  0.347525  0.941898  0.264939  0.120227
