# Generated by REPEAT Assigner based on pymatgen
data_DB0-m3_o2_o17_f0_pcu.sym.63
_audit_creation_date              2022-05-24
_audit_creation_method            REPEAT_Assigner
_cell_length_a                    15.374720
_cell_length_b                    13.994207
_cell_length_c                    15.089514
_cell_angle_alpha                 90.000000
_cell_angle_beta                  90.005951
_cell_angle_gamma                 90.000000
_cell_volume                      3246.614810
_symmetry_space_group_name_H-M    P1
_symmetry_Int_Tables_number       1
loop_
    _symmetry_equiv_pos_site_id
    _symmetry_equiv_pos_as_xyz
    1  x,y,z
loop_
    _atom_site_type_symbol
    _atom_site_label
    _atom_site_fract_x
    _atom_site_fract_y
    _atom_site_fract_z
    _atom_type_partial_charge
    O   O1   0.368708  0.581671  0.519848  -0.777285
    O   O2   0.627119  0.418357  0.512992  -0.686630
    O   O3   0.628043  0.580629  0.514763  -0.632102
    O   O4   0.367937  0.416790  0.518702  -0.758954
    C   C1   0.327150  0.499413  0.520298  1.133924
    C   C2   0.670466  0.499164  0.512647  0.827528
    O   O5   0.495881  0.581429  0.384973  -0.613920
    O   O6   0.500351  0.417321  0.648396  -0.648174
    O   O7   0.500835  0.581436  0.649028  -0.655565
    O   O8   0.494724  0.417222  0.384355  -0.655013
    C   C3   0.494441  0.499470  0.343046  0.674853
    C   C4   0.501410  0.499231  0.690362  0.712610
    Zn  Zn1  0.498446  0.607543  0.517022  1.004571
    Zn  Zn2  0.497692  0.391166  0.516355  1.024767
    C   C5   0.501894  0.584489  0.833758  -0.240300
    C   C6   0.496416  0.414173  0.199695  -0.303038
    C   C7   0.502778  0.499105  0.787585  0.005732
    C   C8   0.494490  0.499565  0.245835  0.090940
    C   C9   0.503751  0.413806  0.833856  -0.240541
    C   C10  0.493937  0.584855  0.199574  -0.328626
    C   C11  0.502298  0.413994  0.925325  0.241167
    C   C12  0.495877  0.584653  0.108125  0.240623
    C   C13  0.500367  0.499274  0.971007  -0.033120
    C   C14  0.498120  0.499368  0.062460  -0.045720
    C   C15  0.500463  0.584475  0.925210  0.180331
    C   C16  0.498158  0.414169  0.108259  0.231138
    C   C17  0.502187  0.328728  0.971216  -0.258769
    C   C18  0.495852  0.669912  0.062236  -0.211777
    C   C19  0.500233  0.328812  0.062516  -0.221106
    C   C20  0.498167  0.669823  0.970940  -0.218963
    H   H1   0.501157  0.651918  0.798924  0.125267
    H   H2   0.497066  0.346743  0.234544  0.130168
    H   H3   0.504641  0.346347  0.799054  0.115915
    H   H4   0.492099  0.652282  0.234356  0.134588
    H   H5   0.503522  0.261504  0.935969  0.141445
    H   H6   0.494131  0.737110  0.097517  0.128948
    H   H7   0.500280  0.261633  0.097866  0.137065
    H   H8   0.498037  0.736978  0.935559  0.132459
    C   C21  0.096506  0.545862  0.446733  -0.338906
    C   C22  0.907787  0.414179  0.519388  -0.297788
    C   C23  0.907894  0.581201  0.496929  -0.319128
    C   C24  0.092589  0.450300  0.577020  -0.327293
    H   H9   0.060408  0.581394  0.395153  0.118464
    H   H10  0.946725  0.350840  0.526581  0.087998
    H   H11  0.944618  0.646364  0.488545  0.134172
    H   H12  0.055488  0.415535  0.628591  0.151212
    C   C25  0.187289  0.545959  0.448513  0.301366
    C   C26  0.816954  0.411591  0.518495  0.243605
    C   C27  0.817714  0.583704  0.497994  0.241762
    C   C28  0.182398  0.451458  0.581923  0.328542
    C   C29  0.230792  0.499697  0.517682  -0.565667
    C   C30  0.769178  0.498235  0.509482  -0.420475
    C   C31  0.049161  0.497779  0.510455  0.170463
    C   C32  0.953065  0.497813  0.508541  0.162058
    C   C33  0.526522  0.101996  0.443054  -0.118984
    C   C34  0.528240  0.896794  0.589762  -0.170677
    C   C35  0.471917  0.101953  0.590233  -0.121380
    C   C36  0.470459  0.896719  0.443833  -0.165668
    H   H13  0.549984  0.065002  0.384904  0.125463
    H   H14  0.552868  0.933839  0.647373  0.132175
    H   H15  0.448769  0.064952  0.648497  0.106647
    H   H16  0.446075  0.933667  0.386059  0.114185
    C   C37  0.526343  0.200499  0.444272  -0.081311
    C   C38  0.528215  0.798293  0.588545  0.000659
    C   C39  0.471109  0.200431  0.588680  -0.064109
    C   C40  0.469776  0.798236  0.445432  0.056359
    H   H17  0.549066  0.239270  0.386873  0.168363
    H   H18  0.552199  0.759602  0.645454  0.136592
    H   H19  0.448132  0.239139  0.646011  0.163993
    H   H20  0.445624  0.759505  0.388623  0.115972
    N   N1   0.498414  0.248211  0.516372  0.005224
    N   N2   0.498902  0.750504  0.517045  -0.042372
    C   C41  0.499408  0.051766  0.516702  0.098167
    C   C42  0.499491  0.946966  0.516722  0.113592
    C   C43  0.240232  0.592782  0.376178  -0.140443
    C   C44  0.188384  0.623438  0.295143  -0.008203
    C   C45  0.250580  0.657469  0.223658  0.172925
    C   C46  0.199873  0.692646  0.143951  -0.313680
    H   H21  0.290116  0.541401  0.352817  0.026691
    H   H22  0.273035  0.656955  0.403333  0.043746
    H   H23  0.144413  0.683306  0.312821  0.018794
    H   H24  0.150740  0.562013  0.268889  0.015441
    H   H25  0.293227  0.597634  0.202842  0.005589
    H   H26  0.291201  0.716621  0.249713  -0.024535
    H   H27  0.159208  0.633862  0.117244  0.066571
    H   H28  0.246049  0.716698  0.092071  0.053960
    H   H29  0.157705  0.753404  0.163438  0.064366
    C   C47  0.771708  0.315536  0.527132  -0.085131
    C   C48  0.830260  0.228073  0.534348  -0.024666
    C   C49  0.774297  0.138788  0.539344  0.182442
    C   C50  0.831621  0.050959  0.545971  -0.247937
    H   H30  0.731560  0.303821  0.467077  0.046540
    H   H31  0.730629  0.316251  0.587551  0.033993
    H   H32  0.870170  0.232310  0.595482  0.019519
    H   H33  0.872079  0.222450  0.474662  0.017571
    H   H34  0.733539  0.133096  0.478927  -0.034198
    H   H35  0.731587  0.142375  0.598472  -0.024514
    H   H36  0.874335  0.046339  0.486910  0.055439
    H   H37  0.790088  0.986247  0.549124  0.018299
    H   H38  0.872078  0.055072  0.606696  0.052599
    C   C51  0.779414  0.681824  0.485543  -0.132526
    C   C52  0.747106  0.695463  0.391070  0.061279
    C   C53  0.714784  0.797153  0.379376  0.141441
    C   C54  0.675676  0.809519  0.287914  -0.348474
    H   H39  0.830782  0.736014  0.496377  0.015475
    H   H40  0.729776  0.699358  0.535998  0.030626
    H   H41  0.694078  0.644714  0.375462  -0.001084
    H   H42  0.801747  0.682532  0.344623  -0.004917
    H   H43  0.769801  0.847690  0.387339  0.005489
    H   H44  0.664599  0.813055  0.429945  -0.019189
    H   H45  0.725210  0.793004  0.236742  0.077972
    H   H46  0.653578  0.884452  0.279849  0.055677
    H   H47  0.619214  0.760980  0.280049  0.080869
    C   C55  0.223009  0.406768  0.662046  -0.311511
    C   C56  0.237726  0.482643  0.732291  0.222840
    C   C57  0.255844  0.435590  0.820962  0.174111
    C   C58  0.264899  0.511287  0.892160  -0.262078
    H   H48  0.284376  0.368969  0.647125  0.077892
    H   H49  0.177608  0.352499  0.688846  0.039582
    H   H50  0.178581  0.527545  0.738033  -0.051933
    H   H51  0.293584  0.528279  0.713085  -0.048713
    H   H52  0.316708  0.393471  0.816566  -0.048406
    H   H53  0.201332  0.387483  0.838985  -0.040466
    H   H54  0.314847  0.564142  0.872333  0.058208
    H   H55  0.284509  0.477022  0.955357  0.063492
    H   H56  0.201752  0.548233  0.901525  0.045454
