# Generated by REPEAT Assigner based on pymatgen
data_DB0-m2_o9_o17_f0_pcu.sym.5_sqe
_audit_creation_date              2022-05-24
_audit_creation_method            REPEAT_Assigner
_cell_length_a                    15.058703
_cell_length_b                    10.981234
_cell_length_c                    13.540245
_cell_angle_alpha                 89.991369
_cell_angle_beta                  90.000213
_cell_angle_gamma                 90.012021
_cell_volume                      2239.057329
_symmetry_space_group_name_H-M    P1
_symmetry_Int_Tables_number       1
loop_
    _symmetry_equiv_pos_site_id
    _symmetry_equiv_pos_as_xyz
    1  x,y,z
loop_
    _atom_site_type_symbol
    _atom_site_label
    _atom_site_fract_x
    _atom_site_fract_y
    _atom_site_fract_z
    _atom_type_partial_charge
    O   O1    0.496036  0.321608  0.585180  -0.500309
    O   O2    0.503852  0.677373  0.416678  -0.524849
    O   O3    0.502130  0.323465  0.414557  -0.484756
    O   O4    0.497580  0.675418  0.583786  -0.500200
    C   C1    0.499623  0.264369  0.499729  0.573639
    C   C2    0.501521  0.734938  0.500437  0.618154
    O   O5    0.370790  0.504146  0.584946  -0.674768
    O   O6    0.629152  0.495037  0.415382  -0.694980
    O   O7    0.371076  0.497281  0.414914  -0.622209
    O   O8    0.628974  0.502159  0.584261  -0.629285
    C   C3    0.328892  0.501567  0.499923  0.799487
    C   C4    0.671151  0.499082  0.499733  0.822001
    Cu  Cu1   0.499552  0.499397  0.598588  0.795130
    Cu  Cu2   0.500358  0.500026  0.401528  0.865181
    C   C5    0.815230  0.579605  0.438435  -0.054850
    C   C6    0.184871  0.421132  0.560707  -0.049859
    C   C7    0.769006  0.499213  0.498219  0.006812
    C   C8    0.230935  0.501995  0.500876  0.003823
    C   C9    0.815128  0.417227  0.555984  -0.155069
    C   C10   0.184541  0.583881  0.442951  -0.146967
    C   C11   0.907348  0.418445  0.557810  0.269943
    C   C12   0.092351  0.583070  0.442283  0.257659
    C   C13   0.953689  0.500536  0.499853  -0.035678
    C   C14   0.046211  0.501619  0.501061  -0.020463
    C   C15   0.907574  0.580409  0.439588  0.079134
    C   C16   0.092494  0.420964  0.560506  0.070972
    C   C17   0.954123  0.338275  0.617441  -0.297400
    C   C18   0.045514  0.662959  0.382902  -0.294854
    C   C19   0.045400  0.340007  0.618710  -0.090572
    C   C20   0.954423  0.661341  0.381633  -0.085714
    H   H1    0.922135  0.272767  0.665243  0.175441
    H   H2    0.077451  0.727898  0.334860  0.172971
    H   H3    0.078003  0.275716  0.666580  0.089500
    H   H4    0.921490  0.724897  0.333586  0.086984
    H   H5    0.323833  0.257567  0.098408  0.094273
    H   H6    0.676178  0.741768  0.901165  0.094748
    C   C21   0.302926  0.204229  0.247662  -0.070508
    C   C22   0.696976  0.795922  0.751799  -0.067060
    H   H7    0.233553  0.230018  0.246535  0.101440
    H   H8    0.766452  0.771055  0.752002  0.100325
    C   C23   0.340420  0.153656  0.331189  -0.048450
    C   C24   0.659582  0.846759  0.668642  -0.049081
    C   C25   0.429103  0.121588  0.331973  0.374852
    C   C26   0.570638  0.877721  0.667696  0.366089
    C   C27   0.478962  0.136571  0.247494  -0.351940
    C   C28   0.520557  0.863231  0.752330  -0.349741
    H   H9    0.547671  0.109434  0.245593  0.152663
    H   H10   0.451829  0.891279  0.754333  0.154090
    C   C29   0.441321  0.185198  0.163898  -0.010407
    C   C30   0.558358  0.814403  0.835983  -0.018749
    H   H11   0.480892  0.196631  0.097936  0.081035
    H   H12   0.519210  0.803564  0.902382  0.086629
    C   C31   0.353418  0.219152  0.163933  -0.154270
    C   C32   0.646359  0.779986  0.835547  -0.153460
    C   C33   0.469548  0.936191  0.418494  0.062514
    C   C34   0.530498  0.063333  0.581456  0.052423
    C   C35   0.501152  0.870663  0.499764  -0.092359
    C   C36   0.499089  0.128455  0.500164  -0.068191
    C   C37   0.531592  0.937058  0.581120  -0.059908
    C   C38   0.468362  0.062501  0.418724  -0.074424
    C   C39   0.565320  0.443710  0.795412  -0.346394
    C   C40   0.433283  0.556194  0.204713  -0.270651
    N   N1    0.500154  0.502306  0.746267  0.120499
    N   N2    0.500192  0.500870  0.253441  0.030689
    C   C41   0.434747  0.559075  0.795760  -0.125571
    C   C42   0.564206  0.440758  0.203757  -0.096035
    C   C43   0.433738  0.557457  0.897838  0.117797
    C   C44   0.566318  0.441363  0.102184  0.139422
    C   C45   0.500542  0.499864  0.949279  -0.034757
    C   C46   0.500090  0.500386  0.051122  -0.063299
    C   C47   0.567169  0.441569  0.898086  0.279113
    C   C48   0.432607  0.557856  0.102335  0.271137
    C   C49   0.366795  0.615192  0.948399  -0.143396
    C   C50   0.634415  0.383847  0.052330  -0.177002
    C   C51   0.365905  0.616491  0.049970  -0.080063
    C   C52   0.634964  0.383142  0.950402  -0.062374
    H   H13   0.614983  0.398914  0.752434  0.268197
    H   H14   0.381427  0.599074  0.247103  0.244586
    H   H15   0.381493  0.605479  0.756322  0.146340
    H   H16   0.614944  0.390928  0.242948  0.143040
    H   H17   0.314439  0.661327  0.908801  0.114568
    H   H18   0.686308  0.336940  0.093037  0.124026
    Cl  Cl1   0.754839  0.684163  0.366982  -0.014752
    Cl  Cl2   0.244180  0.316397  0.633763  -0.014723
    Cl  Cl3   0.422644  0.865107  0.315295  -0.057963
    Cl  Cl4   0.577604  0.134884  0.684868  -0.057429
    Cl  Cl5   0.277728  0.691768  0.108202  -0.045329
    Cl  Cl6   0.723086  0.308064  0.891563  -0.045015
    Cl  Cl7   0.755902  0.306020  0.622074  -0.071413
    Cl  Cl8   0.244278  0.695150  0.378213  -0.068239
    Cl  Cl9   0.274709  0.126115  0.435553  -0.100898
    Cl  Cl10  0.725380  0.873643  0.564585  -0.100692
