# Generated by REPEAT Assigner based on pymatgen
data_DB0-m2_o2_o10_f0_pcu.sym.38
_audit_creation_date              2022-05-24
_audit_creation_method            REPEAT_Assigner
_cell_length_a                    8.801014
_cell_length_b                    15.095458
_cell_length_c                    13.736139
_cell_angle_alpha                 89.996783
_cell_angle_beta                  97.732942
_cell_angle_gamma                 89.997889
_cell_volume                      1808.323674
_symmetry_space_group_name_H-M    P1
_symmetry_Int_Tables_number       1
loop_
    _symmetry_equiv_pos_site_id
    _symmetry_equiv_pos_as_xyz
    1  x,y,z
loop_
    _atom_site_type_symbol
    _atom_site_label
    _atom_site_fract_x
    _atom_site_fract_y
    _atom_site_fract_z
    _atom_type_partial_charge
    O   O1   0.506161  0.370380  0.579442  -0.505887
    O   O2   0.495852  0.631015  0.420895  -0.588579
    O   O3   0.490067  0.373724  0.410873  -0.611632
    O   O4   0.498193  0.627626  0.588233  -0.580902
    C   C1   0.498555  0.330578  0.494417  0.640219
    C   C2   0.496522  0.670908  0.505317  0.664022
    O   O5   0.274165  0.500047  0.562954  -0.575337
    O   O6   0.720767  0.497048  0.437291  -0.609253
    O   O7   0.275339  0.501196  0.395380  -0.700578
    O   O8   0.719650  0.503805  0.604376  -0.682839
    C   C3   0.203217  0.500583  0.473293  0.856900
    C   C4   0.791838  0.500380  0.526714  0.847514
    Cu  Cu1  0.496499  0.498421  0.597289  0.811301
    Cu  Cu2  0.498702  0.502843  0.402647  0.952950
    C   C5   0.035398  0.500265  0.460722  -0.273980
    C   C6   0.959647  0.500899  0.539259  -0.239157
    H   H1   0.974367  0.499552  0.386768  0.156825
    H   H2   0.020651  0.502136  0.613211  0.146348
    C   C7   0.545369  0.097355  0.582802  -0.135418
    C   C8   0.517179  0.904304  0.418930  -0.160283
    H   H3   0.588560  0.064310  0.650597  0.102244
    H   H4   0.540211  0.937131  0.352659  0.115574
    C   C9   0.546319  0.188567  0.580722  -0.055265
    C   C10  0.516707  0.813154  0.420750  -0.110858
    H   H5   0.587245  0.224129  0.647374  0.083602
    H   H6   0.535148  0.777870  0.355055  0.121178
    C   C11  0.499295  0.233588  0.494384  -0.060637
    C   C12  0.495893  0.768023  0.505411  -0.034745
    C   C13  0.450449  0.186450  0.409976  -0.087103
    C   C14  0.473360  0.815287  0.588257  -0.095514
    H   H7   0.411173  0.220631  0.342102  0.110411
    H   H8   0.454856  0.781253  0.654883  0.099135
    C   C15  0.446584  0.095036  0.412385  -0.147566
    C   C16  0.471012  0.906800  0.586008  -0.165467
    H   H9   0.401777  0.060089  0.346144  0.106138
    H   H10  0.447789  0.941957  0.650837  0.117781
    C   C17  0.494500  0.049660  0.498845  0.045504
    C   C18  0.493625  0.952111  0.501329  0.115645
    C   C19  0.584462  0.563323  0.111103  -0.262037
    C   C20  0.449256  0.424877  0.892321  -0.258178
    H   H11  0.661717  0.606833  0.079926  0.140781
    H   H12  0.410347  0.366977  0.927514  0.142122
    C   C21  0.582930  0.567881  0.211162  0.253779
    C   C22  0.441140  0.424276  0.791137  0.184081
    N   N1   0.501964  0.507579  0.257152  -0.164201
    N   N2   0.494212  0.494018  0.742929  -0.104662
    C   C23  0.409720  0.450038  0.202183  0.019726
    C   C24  0.555310  0.563872  0.795410  0.048822
    H   H13  0.338547  0.405091  0.237345  0.164488
    H   H14  0.602091  0.618962  0.759263  0.147501
    C   C25  0.403888  0.447252  0.101068  -0.205424
    C   C26  0.552476  0.569232  0.895320  -0.246166
    H   H15  0.324753  0.401524  0.061004  0.124522
    H   H16  0.590171  0.630558  0.930579  0.142116
    C   C27  0.496045  0.502671  0.053924  0.147760
    C   C28  0.499351  0.498958  0.946088  0.168930
    C   C29  0.671441  0.641554  0.261386  0.474419
    O   O9   0.743980  0.633049  0.342532  -0.388275
    O   O10  0.685772  0.720070  0.210265  -0.541480
    H   H17  0.755829  0.762503  0.252009  0.390095
    C   C30  0.364644  0.347918  0.739717  0.533001
    O   O11  0.268728  0.358678  0.668107  -0.429976
    O   O12  0.386410  0.263746  0.780514  -0.537563
    H   H18  0.320053  0.219290  0.739216  0.383526
