# Generated by REPEAT Assigner based on pymatgen
data_DB0-m2_o12_o18_f0_pcu.sym.13_sqe
_audit_creation_date              2022-05-24
_audit_creation_method            REPEAT_Assigner
_cell_length_a                    9.771917
_cell_length_b                    11.147846
_cell_length_c                    15.942618
_cell_angle_alpha                 93.601755
_cell_angle_beta                  81.968988
_cell_angle_gamma                 111.166123
_cell_volume                      1603.530841
_symmetry_space_group_name_H-M    P1
_symmetry_Int_Tables_number       1
loop_
    _symmetry_equiv_pos_site_id
    _symmetry_equiv_pos_as_xyz
    1  x,y,z
loop_
    _atom_site_type_symbol
    _atom_site_label
    _atom_site_fract_x
    _atom_site_fract_y
    _atom_site_fract_z
    _atom_type_partial_charge
    O   O1   0.422759  0.665902  0.493211  -0.489559
    O   O2   0.578163  0.332159  0.502752  -0.694408
    O   O3   0.661042  0.700615  0.516524  -0.602996
    O   O4   0.339287  0.297348  0.480293  -0.643697
    C   C1   0.554817  0.742459  0.507698  0.640173
    C   C2   0.444397  0.254922  0.491626  0.847538
    O   O5   0.319020  0.473340  0.611135  -0.614282
    O   O6   0.679125  0.524968  0.390896  -0.393030
    O   O7   0.554969  0.499148  0.633556  -0.562811
    O   O8   0.442181  0.497873  0.368334  -0.515224
    C   C3   0.416908  0.482180  0.661742  0.618788
    C   C4   0.580926  0.515835  0.340341  0.426523
    Cu  Cu1  0.359981  0.478436  0.487688  0.981463
    Cu  Cu2  0.637939  0.519050  0.514220  0.907997
    C   C5   0.369568  0.472775  0.753427  -0.013502
    C   C6   0.630121  0.528834  0.248926  0.106946
    C   C7   0.177151  0.428418  0.868724  -0.252636
    C   C8   0.824131  0.569317  0.134097  -0.173445
    C   C9   0.221552  0.438884  0.783337  -0.076161
    C   C10  0.778522  0.562249  0.219463  -0.211844
    C   C11  0.472059  0.494879  0.809891  -0.204108
    C   C12  0.528838  0.507516  0.192056  -0.213188
    C   C13  0.428304  0.484780  0.897296  0.036861
    C   C14  0.573382  0.513707  0.104699  0.081605
    C   C15  0.278931  0.451818  0.924947  0.245317
    C   C16  0.722677  0.544961  0.077392  0.179895
    C   C17  0.527910  0.505723  0.957566  0.080852
    C   C18  0.474410  0.492340  0.044111  0.026337
    C   C19  0.322833  0.459347  0.068173  -0.162030
    C   C20  0.679754  0.539857  0.933644  -0.210539
    C   C21  0.227843  0.440463  0.009367  -0.249941
    C   C22  0.774167  0.557672  0.992915  -0.218327
    H   H1   0.110868  0.415154  0.030459  0.131045
    H   H2   0.891355  0.585052  0.972528  0.123693
    H   H3   0.416121  0.487162  0.218966  0.117540
    H   H4   0.585249  0.520149  0.782784  0.125128
    H   H5   0.860860  0.584806  0.262303  0.149965
    H   H6   0.138557  0.418603  0.741046  0.098495
    H   H7   0.060753  0.400388  0.891512  0.126763
    H   H8   0.940854  0.596707  0.111801  0.119939
    H   H9   0.270265  0.445736  0.132244  0.142133
    H   H10  0.732584  0.556231  0.869384  0.154300
    H   H11  0.628767  0.131788  0.505125  0.107007
    H   H12  0.370951  0.864838  0.493847  0.185566
    C   C23  0.589019  0.881883  0.506770  -0.245780
    C   C24  0.412493  0.115516  0.489076  -0.404806
    C   C25  0.483157  0.928851  0.499231  -0.145026
    C   C26  0.517606  0.068142  0.497643  0.069328
    H   H13  0.301261  0.050050  0.481592  0.170912
    H   H14  0.702325  0.945693  0.510944  0.141198
    N   N1   0.845837  0.549206  0.533947  -0.377708
    N   N2   0.152270  0.448400  0.468106  -0.475808
    C   C27  0.927950  0.496446  0.487405  0.315758
    C   C28  0.078736  0.515577  0.507028  0.363982
    H   H15  0.101987  0.381413  0.423996  0.258810
    H   H16  0.882094  0.590529  0.590276  0.220018
    O   O9   0.142427  0.609086  0.564172  -0.428748
    H   H17  0.104074  0.569140  0.620492  0.345965
    O   O10  0.878967  0.427191  0.416516  -0.413835
    H   H18  0.851134  0.335787  0.431438  0.345603
