# Generated by REPEAT Assigner based on pymatgen
data_DB0-m9_o6_o19_f0_sra.sym.18_sqe
_audit_creation_date              2022-05-24
_audit_creation_method            REPEAT_Assigner
_cell_length_a                    6.704878
_cell_length_b                    17.994452
_cell_length_c                    20.934101
_cell_angle_alpha                 107.791243
_cell_angle_beta                  90.694221
_cell_angle_gamma                 90.796647
_cell_volume                      2404.334812
_symmetry_space_group_name_H-M    P1
_symmetry_Int_Tables_number       1
loop_
    _symmetry_equiv_pos_site_id
    _symmetry_equiv_pos_as_xyz
    1  x,y,z
loop_
    _atom_site_type_symbol
    _atom_site_label
    _atom_site_fract_x
    _atom_site_fract_y
    _atom_site_fract_z
    _atom_type_partial_charge
    O  O1   0.538614  0.458163  0.571777  -0.548809
    O  O2   0.191029  0.419287  0.429488  -0.550766
    O  O3   0.037870  0.563452  0.447266  -0.538495
    C  C1   0.364145  0.403176  0.401846  0.820218
    O  O4   0.196854  0.440945  0.565020  -0.539304
    O  O5   0.044083  0.586355  0.591106  -0.535944
    C  C2   0.371655  0.433368  0.589340  0.761795
    O  O6   0.532396  0.435163  0.427955  -0.561318
    O  O7   0.365793  0.559372  0.516852  -0.424077
    V  V1   0.089348  0.500869  0.507962  1.316947
    O  O8   0.703748  0.602213  0.589447  -0.522706
    C  C3   0.879400  0.618026  0.617266  0.741775
    O  O9   0.697918  0.580603  0.453963  -0.528648
    C  C4   0.871637  0.588479  0.429813  0.758097
    V  V2   0.590190  0.520670  0.511018  1.315473
    O  O10  0.861778  0.462168  0.502124  -0.411990
    C  C5   0.083354  0.777516  0.231935  0.258446
    C  C6   0.912664  0.812538  0.218676  -0.035931
    C  C7   0.735702  0.802360  0.248105  -0.114514
    H  H1   0.601821  0.829650  0.237615  0.141796
    C  C8   0.729203  0.757227  0.290739  -0.127883
    H  H2   0.590291  0.749221  0.313692  0.130086
    C  C9   0.899665  0.722160  0.304005  0.010398
    C  C10  0.076857  0.732331  0.274627  0.105304
    C  C11  0.917698  0.858927  0.173745  0.036010
    C  C12  0.891814  0.674938  0.348229  0.062182
    C  C13  0.883389  0.635395  0.385408  -0.252089
    C  C14  0.918357  0.897654  0.135831  -0.245615
    C  C15  0.916389  0.845792  0.844980  -0.299598
    C  C16  0.907818  0.793178  0.793032  0.130476
    C  C17  0.900546  0.732086  0.731791  0.020146
    C  C18  0.893194  0.680083  0.679431  -0.189689
    C  C19  0.374204  0.339328  0.340972  -0.256149
    C  C20  0.386799  0.285812  0.289939  0.084212
    C  C21  0.402179  0.223193  0.230112  0.048396
    C  C22  0.411714  0.169776  0.178885  -0.192351
    H  H3   0.712219  0.318380  0.734385  0.133651
    C  C23  0.582006  0.253674  0.793991  -0.162745
    H  H4   0.723564  0.243195  0.814666  0.133614
    C  C24  0.407982  0.224507  0.812367  0.232829
    C  C25  0.227504  0.237494  0.785710  -0.168044
    H  H5   0.091138  0.214355  0.799868  0.147015
    C  C26  0.221203  0.279534  0.740595  -0.223444
    H  H6   0.079783  0.289569  0.719572  0.168943
    C  C27  0.395351  0.308467  0.722052  0.301369
    C  C28  0.575709  0.295696  0.748886  -0.182687
    C  C29  0.415852  0.178901  0.857843  -0.021912
    C  C30  0.388736  0.351964  0.674917  -0.117967
    C  C31  0.382042  0.388795  0.635589  -0.198158
    C  C32  0.425367  0.139543  0.895118  -0.304966
    O  O11  0.242842  0.066168  0.102191  -0.519836
    O  O12  0.604950  0.050084  0.933117  -0.556546
    O  O13  0.781011  0.920321  0.948003  -0.487933
    C  C33  0.441192  0.091096  0.938086  0.829024
    O  O14  0.558506  0.108668  0.074522  -0.512339
    O  O15  0.740640  0.977060  0.086507  -0.521879
    C  C34  0.414362  0.106230  0.117618  0.698067
    O  O16  0.289565  0.090730  0.978236  -0.477595
    O  O17  0.418780  0.959512  0.001903  -0.510722
    V  V3   0.696203  0.019939  0.011600  1.350859
    O  O18  0.049650  0.925910  0.041948  -0.479195
    C  C35  0.914416  0.943413  0.090387  0.705434
    O  O19  0.100732  0.950711  0.915491  -0.544592
    C  C36  0.933088  0.909272  0.906122  0.808873
    V  V4   0.195433  0.002453  0.008346  1.309862
    O  O20  0.923258  0.063177  0.019970  -0.520444
    O  O21  0.245856  0.697692  0.287830  -0.260238
    C  C37  0.232282  0.621507  0.244584  0.261146
    H  H7   0.206929  0.622715  0.192471  -0.011418
    H  H8   0.106785  0.590077  0.259668  -0.020036
    C  C38  0.424878  0.579942  0.248241  -0.215260
    H  H9   0.450727  0.578622  0.300305  0.071727
    H  H10  0.414340  0.519363  0.213774  0.056343
    H  H11  0.550649  0.611390  0.233327  0.043142
    O  O22  0.258704  0.787537  0.202773  -0.361818
    C  C39  0.245699  0.734430  0.138430  0.475672
    H  H12  0.217308  0.766138  0.101466  -0.044263
    H  H13  0.121511  0.692247  0.135985  -0.088222
    C  C40  0.439302  0.690773  0.122454  -0.333934
    H  H14  0.467375  0.659201  0.159535  0.089786
    H  H15  0.428650  0.648336  0.071356  0.057597
    H  H16  0.563740  0.732814  0.124757  0.105356
