# Generated by REPEAT Assigner based on pymatgen
data_DB0-m29_o97_o53_f0_pts.sym.51
_audit_creation_date              2022-05-24
_audit_creation_method            REPEAT_Assigner
_cell_length_a                    17.339371
_cell_length_b                    9.763377
_cell_length_c                    23.220361
_cell_angle_alpha                 83.535443
_cell_angle_beta                  77.027474
_cell_angle_gamma                 108.386195
_cell_volume                      3562.913566
_symmetry_space_group_name_H-M    P1
_symmetry_Int_Tables_number       1
loop_
    _symmetry_equiv_pos_site_id
    _symmetry_equiv_pos_as_xyz
    1  x,y,z
loop_
    _atom_site_type_symbol
    _atom_site_label
    _atom_site_fract_x
    _atom_site_fract_y
    _atom_site_fract_z
    _atom_type_partial_charge
    C   C1   0.241600  0.962879  0.086394  -0.292463
    C   C2   0.100803  0.955136  0.121124  -0.178572
    C   C3   0.313421  0.991018  0.040387  0.061503
    C   C4   0.311968  0.022782  0.981092  -0.033630
    C   C5   0.169586  0.974105  0.074138  0.225006
    C   C6   0.166149  0.003624  0.015529  -0.002847
    C   C7   0.236497  0.022432  0.968835  0.099448
    C   C8   0.229258  0.037210  0.910671  -0.113515
    C   C9   0.029309  0.970956  0.110201  -0.146711
    C   C10  0.024826  0.004394  0.051471  0.041908
    C   C11  0.092249  0.013048  0.003991  0.023179
    C   C12  0.086110  0.031069  0.945250  0.054298
    C   C13  0.155875  0.041859  0.899063  -0.141226
    C   C14  0.891270  0.043129  0.084298  -0.134919
    C   C15  0.953293  0.024743  0.039646  0.062610
    C   C16  0.944418  0.032294  0.981747  0.007556
    C   C17  0.010232  0.034179  0.934253  0.039117
    C   C18  0.998233  0.039613  0.876778  -0.137663
    C   C19  0.817850  0.050185  0.073553  -0.134113
    C   C20  0.802950  0.035925  0.018139  0.100098
    C   C21  0.868945  0.036706  0.971455  0.028356
    C   C22  0.859290  0.041860  0.914231  0.150201
    C   C23  0.724673  0.026399  0.008322  -0.039408
    C   C24  0.716106  0.028802  0.950077  -0.027625
    C   C25  0.923786  0.043874  0.867235  -0.151298
    C   C26  0.784688  0.042317  0.903438  -0.232977
    H   H1   0.243618  0.942156  0.132650  0.197495
    H   H2   0.102613  0.928715  0.167166  0.144986
    H   H3   0.278758  0.040570  0.872481  0.122048
    H   H4   0.977044  0.949416  0.149308  0.141476
    H   H5   0.157804  0.056310  0.852223  0.136332
    H   H6   0.898742  0.058924  0.128117  0.128047
    H   H7   0.043946  0.037776  0.837442  0.128479
    H   H8   0.774669  0.071788  0.109506  0.139335
    H   H9   0.916138  0.046897  0.822223  0.129368
    H   H10  0.778340  0.042893  0.858181  0.207757
    O   O1   0.593201  0.061430  0.054050  -0.535883
    C   C27  0.650828  0.003430  0.059438  0.531332
    O   O2   0.486245  0.711650  0.112486  -0.460981
    O   O3   0.639959  0.917018  0.110267  -0.486450
    O   O4   0.482937  0.827627  0.192185  -0.550369
    C   C28  0.482192  0.708659  0.169765  0.552851
    Fe  Fe1  0.497563  0.993423  0.128156  1.440562
    O   O5   0.391376  0.914261  0.102817  -0.555275
    O   O6   0.459146  0.123547  0.031290  -0.490104
    C   C29  0.392170  0.005111  0.056235  0.618317
    O   O7   0.518466  0.175166  0.163946  -0.625545
    O   O8   0.379021  0.063061  0.214526  -0.569400
    C   C30  0.448608  0.179121  0.199725  0.647809
    O   O9   0.489503  0.838035  0.826563  -0.588618
    O   O10  0.626507  0.865173  0.817708  -0.583093
    C   C31  0.553216  0.793803  0.809463  0.610402
    O   O11  0.638930  0.075239  0.881722  -0.605478
    O   O12  0.565081  0.909367  0.969298  -0.415294
    C   C32  0.635888  0.009263  0.935138  0.758052
    O   O13  0.411855  0.160853  0.886020  -0.396822
    O   O14  0.552704  0.189631  0.794690  -0.543049
    C   C33  0.585082  0.314539  0.810984  0.577378
    O   O15  0.437625  0.973473  0.935707  -0.504028
    C   C34  0.389587  0.053109  0.932458  0.469510
    O   O16  0.599168  0.312325  0.864191  -0.421912
    Fe  Fe2  0.528887  0.020653  0.859934  1.401457
    C   C35  0.449206  0.327032  0.407612  0.407149
    N   N1   0.431992  0.429805  0.373046  -0.126543
    C   C36  0.412440  0.537642  0.398677  0.370906
    C   C37  0.425441  0.559106  0.454110  -0.031351
    C   C38  0.438570  0.451831  0.489548  0.076882
    C   C39  0.443833  0.329554  0.467824  -0.072934
    C   C40  0.425804  0.687252  0.474343  -0.097237
    C   C41  0.446002  0.710552  0.527594  -0.098319
    C   C42  0.456944  0.599564  0.563848  -0.064463
    C   C43  0.448250  0.467982  0.545866  0.106246
    C   C44  0.450897  0.353517  0.584093  -0.097417
    C   C45  0.447772  0.223554  0.564692  -0.057343
    C   C46  0.448949  0.214618  0.505611  -0.092895
    C   C47  0.481516  0.621745  0.615917  0.384579
    N   N2   0.481471  0.506574  0.654894  -0.096310
    C   C48  0.457516  0.370283  0.641220  0.393711
    O   O17  0.476554  0.226252  0.383616  -0.456253
    O   O18  0.379271  0.624305  0.371113  -0.438132
    H   H11  0.416258  0.774497  0.447096  0.143475
    H   H12  0.451099  0.814962  0.540857  0.147800
    O   O19  0.509596  0.759985  0.625152  -0.472812
    O   O20  0.439298  0.249211  0.683022  -0.433724
    H   H13  0.450534  0.131744  0.593803  0.127424
    H   H14  0.451779  0.115499  0.490158  0.134698
    C   C49  0.554913  0.438830  0.726173  -0.231548
    H   H15  0.568931  0.359480  0.700845  0.190634
    C   C50  0.577370  0.445318  0.779316  -0.091490
    C   C51  0.575946  0.561238  0.807361  0.329454
    C   C52  0.542445  0.659700  0.785712  -0.034529
    C   C53  0.503423  0.635014  0.740037  -0.206319
    H   H16  0.469269  0.705125  0.729563  0.194184
    C   C54  0.512579  0.527117  0.707391  0.194925
    C   C55  0.467717  0.566333  0.269030  -0.256509
    H   H17  0.485757  0.669907  0.283610  0.190289
    C   C56  0.472929  0.570825  0.208671  0.133668
    C   C57  0.469648  0.445023  0.185536  -0.256712
    C   C58  0.448926  0.312272  0.224097  0.126173
    C   C59  0.425658  0.304330  0.285743  -0.288056
    H   H18  0.398927  0.196402  0.314323  0.197171
    C   C60  0.440555  0.432609  0.309294  0.251096
    H   H19  0.480613  0.448251  0.137629  0.149774
    O   O21  0.605533  0.575870  0.856117  -0.425990
    C   C61  0.558405  0.586426  0.909059  0.990114
    O   O22  0.484018  0.570322  0.916065  -0.572550
    C   C62  0.595890  0.606664  0.960625  -0.700573
    H   H20  0.650954  0.710979  0.948155  0.161461
    H   H21  0.617002  0.513343  0.971672  0.193527
    H   H22  0.547776  0.610017  0.000439  0.227666
