# Generated by REPEAT Assigner based on pymatgen
data_DB0-m2_o28_o28_f0_pcu.sym.1_sqe
_audit_creation_date              2022-05-24
_audit_creation_method            REPEAT_Assigner
_cell_length_a                    32.946845
_cell_length_b                    32.967180
_cell_length_c                    21.876293
_cell_angle_alpha                 90.000000
_cell_angle_beta                  90.000000
_cell_angle_gamma                 90.000000
_cell_volume                      23761.254911
_symmetry_space_group_name_H-M    P1
_symmetry_Int_Tables_number       1
loop_
    _symmetry_equiv_pos_site_id
    _symmetry_equiv_pos_as_xyz
    1  x,y,z
loop_
    _atom_site_type_symbol
    _atom_site_label
    _atom_site_fract_x
    _atom_site_fract_y
    _atom_site_fract_z
    _atom_type_partial_charge
    O   O1    0.040252  0.456925  0.552305  -0.617943
    O   O2    0.959717  0.542937  0.447742  -0.617820
    O   O3    0.957610  0.541018  0.552787  -0.592514
    O   O4    0.042793  0.459264  0.447392  -0.593275
    O   O5    0.959318  0.457654  0.447324  -0.607495
    O   O6    0.041076  0.542219  0.552787  -0.609258
    O   O7    0.043061  0.540659  0.447781  -0.583217
    O   O8    0.956875  0.459686  0.552287  -0.589472
    O   O9    0.540805  0.957603  0.552726  -0.602083
    O   O10   0.459091  0.042387  0.447376  -0.604782
    O   O11   0.456768  0.040298  0.552216  -0.581888
    O   O12   0.542840  0.959395  0.447644  -0.578584
    O   O13   0.459473  0.957018  0.447365  -0.625354
    O   O14   0.540131  0.042896  0.552524  -0.622639
    O   O15   0.542558  0.040703  0.447580  -0.603536
    O   O16   0.457328  0.958941  0.552440  -0.599180
    C   C1    0.000036  0.464839  0.316992  0.099466
    C   C2    0.000219  0.535188  0.682994  0.130562
    C   C3    0.000681  0.535834  0.317187  0.099943
    C   C4    0.999698  0.464179  0.683003  0.105729
    C   C5    0.499925  0.035526  0.316924  0.101209
    C   C6    0.499608  0.964676  0.682623  0.112247
    C   C7    0.500709  0.964528  0.317110  0.107776
    C   C8    0.498930  0.035678  0.683201  0.094595
    C   C9    0.054833  0.444540  0.499959  0.707148
    C   C10   0.945298  0.555541  0.500164  0.709057
    C   C11   0.944581  0.445282  0.499670  0.676111
    C   C12   0.055556  0.554849  0.500398  0.679039
    C   C13   0.555286  0.945067  0.500263  0.661733
    C   C14   0.444424  0.054708  0.499726  0.669100
    C   C15   0.445110  0.944351  0.499805  0.718567
    C   C16   0.554770  0.055275  0.500176  0.719061
    Cu  Cu1   0.999909  0.499927  0.561148  0.947956
    Cu  Cu2   0.000291  0.500127  0.438916  0.929984
    Cu  Cu3   0.499783  0.999945  0.561067  0.936743
    Cu  Cu4   0.500005  0.999927  0.438882  0.949575
    H   H1    0.999683  0.436451  0.341715  0.110264
    H   H2    0.000144  0.563521  0.658090  0.093427
    H   H3    0.000738  0.564075  0.342279  0.115773
    H   H4    0.999453  0.435885  0.658125  0.109305
    H   H5    0.499294  0.063934  0.341616  0.105638
    H   H6    0.499592  0.936485  0.657357  0.106240
    H   H7    0.500569  0.936322  0.342181  0.104964
    H   H8    0.498513  0.064083  0.658611  0.115344
    N   N1    0.000465  0.500290  0.347529  -0.144693
    N   N2    0.999734  0.499653  0.652572  -0.160732
    N   N3    0.500161  0.000029  0.347470  -0.149689
    N   N4    0.499632  0.000185  0.652492  -0.148386
    C   C17   0.166030  0.715240  0.498904  0.395384
    C   C18   0.833471  0.285116  0.490594  0.436952
    C   C19   0.834093  0.715501  0.484896  0.432210
    C   C20   0.166210  0.284733  0.516315  0.430712
    C   C21   0.665252  0.216010  0.509956  0.425789
    C   C22   0.334977  0.783572  0.499996  0.400249
    C   C23   0.332778  0.214144  0.483073  0.439636
    C   C24   0.667146  0.785633  0.515685  0.436873
    N   N5    0.176962  0.675920  0.500523  -0.104515
    N   N6    0.822973  0.324209  0.499553  -0.155979
    N   N7    0.824256  0.677084  0.499817  -0.148768
    N   N8    0.175861  0.323000  0.500137  -0.149848
    N   N9    0.675772  0.176942  0.501035  -0.140351
    N   N10   0.324047  0.822902  0.498967  -0.099112
    N   N11   0.323124  0.175924  0.499424  -0.160641
    N   N12   0.676963  0.824048  0.500588  -0.155268
    C   C25   0.216318  0.665005  0.501881  0.396338
    C   C26   0.783901  0.334694  0.508721  0.437906
    C   C27   0.785887  0.667163  0.515042  0.435693
    C   C28   0.214092  0.332683  0.483707  0.435085
    C   C29   0.714867  0.166443  0.491997  0.424800
    C   C30   0.284691  0.833844  0.498065  0.396700
    C   C31   0.284881  0.166204  0.515681  0.440143
    C   C32   0.715375  0.833944  0.485528  0.436654
    C   C33   0.246354  0.694269  0.501374  -0.037702
    C   C34   0.753892  0.305379  0.509235  -0.076990
    C   C35   0.755867  0.696423  0.515505  -0.080178
    C   C36   0.244103  0.303384  0.483245  -0.080248
    C   C37   0.744874  0.195747  0.491714  -0.067678
    C   C38   0.254637  0.804580  0.498028  -0.046347
    C   C39   0.254871  0.195481  0.515937  -0.079223
    C   C40   0.745402  0.804687  0.485336  -0.076871
    C   C41   0.235701  0.734632  0.499705  0.037243
    C   C42   0.764168  0.265359  0.500316  0.072260
    C   C43   0.765439  0.735783  0.500310  0.074561
    C   C44   0.234694  0.264216  0.499693  0.073129
    C   C45   0.734580  0.235755  0.500684  0.067032
    C   C46   0.265294  0.764209  0.499325  0.049868
    C   C47   0.264293  0.234653  0.499508  0.072874
    C   C48   0.735820  0.765333  0.500533  0.071791
    C   C49   0.195307  0.745267  0.498551  -0.030404
    C   C50   0.804170  0.255090  0.490929  -0.067302
    C   C51   0.804777  0.745468  0.485013  -0.069900
    C   C52   0.195537  0.254750  0.516279  -0.066326
    C   C53   0.694559  0.246025  0.509934  -0.063489
    C   C54   0.305690  0.753553  0.500324  -0.039393
    C   C55   0.303444  0.244107  0.482902  -0.071069
    C   C56   0.696485  0.755659  0.515833  -0.070477
    C   C57   0.286865  0.683499  0.502379  -0.090647
    C   C58   0.713712  0.315766  0.518489  -0.082517
    C   C59   0.716387  0.686608  0.530816  -0.079270
    C   C60   0.283426  0.312977  0.466654  -0.078488
    C   C61   0.785051  0.185328  0.482678  -0.084067
    C   C62   0.214097  0.815322  0.496771  -0.086976
    C   C63   0.215532  0.185849  0.532338  -0.080961
    C   C64   0.784902  0.814509  0.470182  -0.080844
    C   C65   0.814591  0.214887  0.482295  -0.084967
    C   C66   0.184530  0.785752  0.496958  -0.094257
    C   C67   0.185952  0.215369  0.532428  -0.081898
    C   C68   0.814521  0.785023  0.470179  -0.082228
    C   C69   0.316443  0.713041  0.501789  -0.091786
    C   C70   0.684145  0.286198  0.518795  -0.083097
    C   C71   0.686763  0.716109  0.530827  -0.081704
    C   C72   0.313013  0.283448  0.466564  -0.081533
    O   O17   0.126459  0.725011  0.497481  -0.499082
    O   O18   0.872719  0.275299  0.482735  -0.493691
    O   O19   0.872758  0.724707  0.471100  -0.491485
    O   O20   0.127705  0.275637  0.531237  -0.490794
    O   O21   0.625983  0.225737  0.517633  -0.491693
    O   O22   0.374541  0.773752  0.501192  -0.498789
    O   O23   0.371297  0.223194  0.468195  -0.492009
    O   O24   0.628471  0.776446  0.529402  -0.492023
    O   O25   0.226130  0.625467  0.503272  -0.489430
    O   O26   0.774148  0.373934  0.516430  -0.482655
    O   O27   0.776810  0.628491  0.528770  -0.481344
    O   O28   0.223081  0.371176  0.468789  -0.480194
    O   O29   0.724651  0.127204  0.484264  -0.481456
    O   O30   0.274881  0.873394  0.496971  -0.487594
    O   O31   0.275872  0.127708  0.530624  -0.481459
    O   O32   0.724491  0.872598  0.471721  -0.481330
    H   H9    0.296006  0.652045  0.503688  0.146941
    H   H10   0.704787  0.346941  0.525605  0.141608
    H   H11   0.708112  0.655972  0.543157  0.139833
    H   H12   0.291630  0.343442  0.453355  0.139439
    H   H13   0.794025  0.154147  0.475707  0.142141
    H   H14   0.204936  0.846776  0.495629  0.145514
    H   H15   0.207274  0.155312  0.545232  0.140635
    H   H16   0.793245  0.845175  0.458128  0.140370
    H   H17   0.845757  0.205898  0.475022  0.145316
    H   H18   0.153045  0.794873  0.496034  0.150411
    H   H19   0.155410  0.207012  0.545230  0.142902
    H   H20   0.845228  0.793510  0.458502  0.144078
    H   H21   0.347906  0.703860  0.502594  0.149378
    H   H22   0.652969  0.295105  0.526147  0.144358
    H   H23   0.656107  0.707634  0.542822  0.143454
    H   H24   0.343506  0.291698  0.453369  0.142725
    C   C73   0.861856  0.376260  0.552312  -0.177952
    C   C74   0.131318  0.631013  0.445873  -0.199401
    C   C75   0.133761  0.371664  0.445921  -0.202723
    C   C76   0.866153  0.628380  0.554057  -0.206609
    C   C77   0.366041  0.871278  0.553266  -0.208624
    C   C78   0.636649  0.125365  0.447907  -0.197564
    C   C79   0.634928  0.872901  0.446544  -0.187751
    C   C80   0.365235  0.127238  0.553501  -0.185938
    H   H25   0.845375  0.369729  0.593935  0.138855
    H   H26   0.142909  0.642734  0.403080  0.133812
    H   H27   0.147759  0.362399  0.403435  0.140667
    H   H28   0.851880  0.637520  0.596416  0.140901
    H   H29   0.352056  0.861870  0.595639  0.133156
    H   H30   0.653090  0.132027  0.406342  0.140007
    H   H31   0.648951  0.864033  0.403894  0.140813
    H   H32   0.351275  0.136264  0.596102  0.140479
    C   C81   0.891746  0.405551  0.552459  -0.060890
    C   C82   0.101787  0.601412  0.445784  -0.049710
    C   C83   0.104103  0.401150  0.445707  -0.012326
    C   C84   0.895745  0.598831  0.554325  -0.007419
    C   C85   0.395693  0.900750  0.553657  -0.011541
    C   C86   0.606981  0.095940  0.447534  -0.022543
    C   C87   0.605168  0.902237  0.446493  -0.051689
    C   C88   0.394904  0.097839  0.553571  -0.053847
    H   H33   0.898006  0.421820  0.594338  0.119260
    H   H34   0.090522  0.590372  0.402468  0.118249
    H   H35   0.095418  0.414763  0.402733  0.097902
    H   H36   0.903952  0.584906  0.597310  0.098425
    H   H37   0.404452  0.914120  0.596779  0.101097
    H   H38   0.600953  0.079730  0.405586  0.103405
    H   H39   0.596582  0.916034  0.403568  0.115895
    H   H40   0.403486  0.084123  0.596571  0.115816
    C   C89   0.913053  0.414031  0.499560  -0.048396
    C   C90   0.087071  0.586232  0.500440  -0.077700
    C   C91   0.086026  0.412992  0.499853  -0.110014
    C   C92   0.914049  0.587152  0.500225  -0.118359
    C   C93   0.413812  0.912738  0.499555  -0.116412
    C   C94   0.585976  0.086889  0.500464  -0.101058
    C   C95   0.586866  0.913815  0.500542  -0.058666
    C   C96   0.413071  0.086158  0.499475  -0.057532
    C   C97   0.904511  0.392661  0.446749  -0.090662
    C   C98   0.102393  0.600828  0.555035  -0.045260
    C   C99   0.097569  0.394778  0.554028  -0.024798
    C   C100  0.902428  0.605316  0.445976  -0.016940
    C   C101  0.402270  0.894556  0.445217  -0.023690
    C   C102  0.594780  0.107769  0.553701  -0.042649
    C   C103  0.598596  0.895634  0.554780  -0.068756
    C   C104  0.401485  0.104409  0.445223  -0.074885
    H   H41   0.921086  0.398339  0.405010  0.128446
    H   H42   0.091702  0.589249  0.598313  0.122919
    H   H43   0.083650  0.403342  0.596844  0.104508
    H   H44   0.916042  0.596551  0.403042  0.100802
    H   H45   0.416371  0.902930  0.402440  0.109510
    H   H46   0.578869  0.101201  0.595760  0.107907
    H   H47   0.584809  0.904113  0.597701  0.123825
    H   H48   0.415335  0.095988  0.402318  0.127465
    C   C105  0.875037  0.363018  0.446944  -0.164277
    C   C106  0.132017  0.630307  0.554910  -0.212476
    C   C107  0.126967  0.365058  0.554038  -0.199467
    C   C108  0.873077  0.635066  0.445981  -0.201754
    C   C109  0.372817  0.864824  0.445159  -0.213215
    C   C110  0.624081  0.137623  0.553685  -0.186158
    C   C111  0.628104  0.866005  0.554636  -0.177585
    C   C112  0.371934  0.133994  0.445388  -0.175213
    H   H49   0.868790  0.346374  0.405501  0.136424
    H   H50   0.144096  0.641428  0.597637  0.136644
    H   H51   0.135815  0.351074  0.596683  0.141632
    H   H52   0.864081  0.648934  0.403337  0.141494
    H   H53   0.364062  0.850350  0.402845  0.134980
    H   H54   0.630940  0.153762  0.595456  0.137653
    H   H55   0.637142  0.851994  0.597192  0.139247
    H   H56   0.362809  0.148009  0.402908  0.138780
    C   C113  0.853520  0.354817  0.499608  0.228416
    C   C114  0.146428  0.645451  0.500411  0.284080
    C   C115  0.145273  0.353552  0.500048  0.241276
    C   C116  0.854863  0.646623  0.499976  0.244301
    C   C117  0.354544  0.853382  0.499106  0.272903
    C   C118  0.645174  0.146393  0.500855  0.237679
    C   C119  0.646372  0.854597  0.500573  0.234204
    C   C120  0.353695  0.145405  0.499453  0.234741
    C   C121  0.000395  0.500461  0.222132  0.327925
    C   C122  0.999992  0.499787  0.777956  0.320770
    C   C123  0.500181  0.000007  0.222056  0.315776
    C   C124  0.499532  0.999962  0.777871  0.324988
    C   C125  0.031646  0.516478  0.873475  0.415100
    C   C126  0.968644  0.484038  0.126492  0.423803
    C   C127  0.968821  0.483071  0.873778  0.409578
    C   C128  0.031499  0.517366  0.126330  0.418630
    C   C129  0.531007  0.983340  0.873409  0.419750
    C   C130  0.468533  0.016538  0.126466  0.420502
    C   C131  0.468206  0.016794  0.873714  0.408917
    C   C132  0.531343  0.983140  0.126222  0.411860
    N   N13   0.000163  0.499793  0.843122  -0.136075
    N   N14   0.000138  0.500656  0.156926  -0.149352
    N   N15   0.499502  0.999918  0.843053  -0.141558
    N   N16   0.500000  0.999873  0.156863  -0.141144
    C   C133  0.968455  0.482981  0.936949  -0.084346
    C   C134  0.031982  0.517378  0.063141  -0.092287
    C   C135  0.032140  0.516877  0.936688  -0.089660
    C   C136  0.968303  0.483530  0.063298  -0.094111
    C   C137  0.467913  0.017069  0.936918  -0.083727
    C   C138  0.531644  0.982838  0.063003  -0.086718
    C   C139  0.531527  0.983045  0.936590  -0.092105
    C   C140  0.468044  0.016821  0.063298  -0.092403
    C   C141  0.000286  0.500040  0.968491  0.084455
    C   C142  0.000174  0.500346  0.031539  0.092448
    C   C143  0.499740  0.999958  0.968421  0.086480
    C   C144  0.499789  0.999826  0.031466  0.088686
    C   C145  0.936384  0.466175  0.968731  -0.080040
    C   C146  0.064232  0.533928  0.031380  -0.078497
    C   C147  0.064255  0.533844  0.968367  -0.076404
    C   C148  0.936372  0.466295  0.031662  -0.075778
    C   C149  0.435903  0.033994  0.968826  -0.079319
    C   C150  0.563654  0.965883  0.031135  -0.079435
    C   C151  0.563608  0.966004  0.968144  -0.075853
    C   C152  0.435960  0.033840  0.031782  -0.076860
    O   O33   0.063058  0.531989  0.842058  -0.491198
    O   O34   0.937181  0.468532  0.157840  -0.494908
    O   O35   0.937429  0.467246  0.842638  -0.487494
    O   O36   0.062903  0.533073  0.157544  -0.489314
    O   O37   0.562355  0.967750  0.841939  -0.493154
    O   O38   0.437134  0.032149  0.157830  -0.493153
    O   O39   0.436719  0.032497  0.842636  -0.486766
    O   O40   0.562810  0.967518  0.157405  -0.487127
    H   H57   0.910859  0.452856  0.945144  0.137046
    H   H58   0.089801  0.547130  0.055048  0.137303
    H   H59   0.089607  0.547412  0.944625  0.137391
    H   H60   0.911087  0.452638  0.055445  0.137773
    H   H61   0.410453  0.047514  0.945324  0.136615
    H   H62   0.589088  0.952331  0.054665  0.136761
    H   H63   0.588946  0.952487  0.944314  0.137571
    H   H64   0.410632  0.047303  0.055719  0.138226
    C   C153  0.999995  0.464355  0.253998  -0.270812
    C   C154  0.000382  0.535781  0.745954  -0.278291
    C   C155  0.000694  0.536412  0.254227  -0.272452
    C   C156  0.999754  0.463707  0.746045  -0.272953
    C   C157  0.499858  0.036056  0.253909  -0.264662
    C   C158  0.499839  0.963974  0.745622  -0.274386
    C   C159  0.500558  0.963989  0.254137  -0.268218
    C   C160  0.499029  0.036035  0.746200  -0.271502
    H   H65   0.999642  0.435710  0.229958  0.160631
    H   H66   0.000438  0.564445  0.770020  0.161028
    H   H67   0.000242  0.565073  0.230189  0.160097
    H   H68   0.000038  0.435079  0.770023  0.160772
    H   H69   0.499882  0.064682  0.229645  0.159827
    H   H70   0.499778  0.935253  0.769438  0.161252
    H   H71   0.500334  0.935320  0.230317  0.159040
    H   H72   0.498968  0.064597  0.770507  0.160288
