# Generated by REPEAT Assigner based on pymatgen
data_DB0-m2_o13_o20_f0_pcu.sym.91_sqe
_audit_creation_date              2022-05-24
_audit_creation_method            REPEAT_Assigner
_cell_length_a                    14.416791
_cell_length_b                    12.966829
_cell_length_c                    11.486436
_cell_angle_alpha                 99.741591
_cell_angle_beta                  93.941925
_cell_angle_gamma                 89.994389
_cell_volume                      2111.161336
_symmetry_space_group_name_H-M    P1
_symmetry_Int_Tables_number       1
loop_
    _symmetry_equiv_pos_site_id
    _symmetry_equiv_pos_as_xyz
    1  x,y,z
loop_
    _atom_site_type_symbol
    _atom_site_label
    _atom_site_fract_x
    _atom_site_fract_y
    _atom_site_fract_z
    _atom_type_partial_charge
    O   O1   0.514542  0.358848  0.589591  -0.619581
    O   O2   0.486591  0.641931  0.406795  -0.584034
    O   O3   0.506088  0.340559  0.386566  -0.472949
    O   O4   0.495475  0.660249  0.609841  -0.465439
    C   C1   0.515364  0.300936  0.484150  0.580683
    C   C2   0.485677  0.699809  0.512250  0.516036
    O   O5   0.374433  0.496103  0.604206  -0.584450
    O   O6   0.626918  0.504980  0.392202  -0.616447
    O   O7   0.358724  0.484185  0.401825  -0.544635
    O   O8   0.642651  0.516454  0.594537  -0.596991
    C   C3   0.323445  0.487596  0.504150  0.863926
    C   C4   0.677907  0.513656  0.492290  0.975169
    Cu  Cu1  0.509728  0.511615  0.616441  0.807937
    Cu  Cu2  0.491643  0.489182  0.379950  0.750624
    C   C5   0.224031  0.488515  0.506310  -0.314308
    C   C6   0.777337  0.513277  0.490193  -0.357510
    C   C7   0.140430  0.492111  0.504719  0.117263
    C   C8   0.860951  0.509989  0.491833  0.148060
    C   C9   0.042478  0.498284  0.500435  -0.033801
    C   C10  0.958908  0.503993  0.496145  -0.063421
    C   C11  0.477200  0.814040  0.521997  0.133165
    C   C12  0.523419  0.186624  0.474375  0.094323
    C   C13  0.559345  0.017348  0.367849  -0.192138
    C   C14  0.439715  0.983202  0.627557  -0.166422
    C   C15  0.563998  0.124999  0.379986  -0.140198
    C   C16  0.436101  0.875296  0.616225  -0.126779
    C   C17  0.483440  0.138259  0.557345  -0.306128
    C   C18  0.516509  0.862402  0.438597  -0.313015
    C   C19  0.481251  0.030483  0.545481  0.179139
    C   C20  0.518363  0.970075  0.450282  0.200248
    H   H1   0.548910  0.815911  0.365564  0.163657
    H   H2   0.451034  0.184862  0.630291  0.167901
    H   H3   0.591007  0.969776  0.294917  0.125912
    H   H4   0.407058  0.031521  0.699002  0.105182
    N   N1   0.523715  0.529184  0.793547  0.067253
    N   N2   0.477646  0.471594  0.202843  0.054076
    C   C21  0.403075  0.417153  0.010775  -0.187124
    C   C22  0.598239  0.583619  0.985641  -0.166569
    C   C23  0.408292  0.417212  0.131494  -0.015457
    C   C24  0.593079  0.583503  0.864917  -0.028809
    C   C25  0.537978  0.529286  0.154792  -0.134201
    C   C26  0.463324  0.471528  0.841570  -0.174870
    C   C27  0.534313  0.528519  0.034402  0.123606
    C   C28  0.466978  0.472280  0.961970  0.171220
    H   H5   0.410961  0.423823  0.785719  0.166445
    H   H6   0.590343  0.577000  0.210620  0.160315
    H   H7   0.349569  0.371969  0.953793  0.102230
    H   H8   0.651703  0.628831  0.042686  0.101177
    C   C29  0.382550  0.829488  0.699703  0.184273
    C   C30  0.378172  0.871574  0.817445  -0.152349
    C   C31  0.318605  0.808581  0.860284  -0.243953
    C   C32  0.290129  0.732979  0.765852  -0.027406
    O   O9   0.328409  0.745495  0.667517  -0.085607
    H   H9   0.414630  0.939780  0.866749  0.130702
    H   H10  0.297742  0.816447  0.949946  0.145678
    H   H11  0.241692  0.670322  0.770127  0.120031
    C   C33  0.617071  0.168617  0.294861  0.227538
    C   C34  0.685153  0.244532  0.324752  -0.126334
    C   C35  0.721380  0.255011  0.221371  -0.234082
    C   C36  0.673914  0.183829  0.135829  -0.057975
    O   O10  0.611029  0.129903  0.180197  -0.113771
    H   H12  0.707547  0.284827  0.412344  0.105918
    H   H13  0.777215  0.306965  0.209234  0.155132
    H   H14  0.686896  0.171357  0.042941  0.113354
    C   C37  0.664089  0.645078  0.820469  0.188934
    C   C38  0.756716  0.646706  0.858630  -0.182301
    C   C39  0.797467  0.717292  0.803027  -0.168408
    C   C40  0.726951  0.754727  0.735818  -0.077056
    O   O11  0.645394  0.711617  0.746754  -0.061283
    H   H15  0.790580  0.601466  0.919826  0.135416
    H   H16  0.870110  0.739827  0.810648  0.133875
    H   H17  0.736006  0.813229  0.680620  0.116826
    C   C41  0.337390  0.355517  0.176000  0.181385
    C   C42  0.244671  0.354030  0.138263  -0.199537
    C   C43  0.204050  0.283499  0.194076  -0.154616
    C   C44  0.274728  0.245946  0.260946  -0.092861
    O   O12  0.356251  0.288948  0.249637  -0.027355
    H   H18  0.210663  0.399334  0.077229  0.142868
    H   H19  0.131372  0.261098  0.186848  0.130918
    H   H20  0.265784  0.187447  0.316187  0.121774
