# Generated by REPEAT Assigner based on pymatgen
data_DB0-m29_o91_o108_f0_pts.sym.40
_audit_creation_date              2022-05-24
_audit_creation_method            REPEAT_Assigner
_cell_length_a                    14.474760
_cell_length_b                    20.815371
_cell_length_c                    11.065020
_cell_angle_alpha                 111.739098
_cell_angle_beta                  95.405863
_cell_angle_gamma                 101.115776
_cell_volume                      2988.077471
_symmetry_space_group_name_H-M    P1
_symmetry_Int_Tables_number       1
loop_
    _symmetry_equiv_pos_site_id
    _symmetry_equiv_pos_as_xyz
    1  x,y,z
loop_
    _atom_site_type_symbol
    _atom_site_label
    _atom_site_fract_x
    _atom_site_fract_y
    _atom_site_fract_z
    _atom_type_partial_charge
    C   C1   0.328598  0.027722  0.144273  0.089397
    C   C2   0.308254  0.002590  0.007360  -0.047530
    C   C3   0.211761  0.981551  0.945989  0.034623
    C   C4   0.185080  0.946354  0.809614  -0.092260
    C   C5   0.091531  0.930023  0.749876  -0.080677
    C   C6   0.256983  0.034161  0.217098  -0.151543
    C   C7   0.161682  0.015877  0.158138  -0.034834
    C   C8   0.139740  0.992505  0.021871  0.102569
    C   C9   0.045485  0.979189  0.961061  -0.027629
    C   C10  0.105325  0.030464  0.365768  -0.165338
    C   C11  0.088230  0.019049  0.232456  0.137443
    C   C12  0.995264  0.009801  0.172247  -0.029170
    C   C13  0.033432  0.037172  0.438216  -0.043504
    C   C14  0.942764  0.031003  0.380042  -0.128998
    C   C15  0.022544  0.947806  0.823751  -0.045314
    C   C16  0.975166  0.994662  0.038303  0.132022
    C   C17  0.884744  0.995348  0.984429  -0.277929
    C   C18  0.922010  0.015294  0.245919  0.090980
    C   C19  0.829282  0.007136  0.185846  -0.000087
    C   C20  0.812732  0.001496  0.057315  0.053494
    H   H1   0.234271  0.926713  0.746364  0.133130
    H   H2   0.280946  0.056402  0.322323  0.133938
    H   H3   0.173107  0.032936  0.418312  0.153114
    H   H4   0.048544  0.047559  0.542199  0.109501
    H   H5   0.950315  0.930704  0.769759  0.089576
    H   H6   0.866895  0.991553  0.884950  0.205871
    H   H7   0.890401  0.039909  0.443573  0.135180
    H   H8   0.071728  0.901933  0.643644  0.116799
    O   O1   0.687027  0.043312  0.250909  -0.554581
    C   C21  0.748601  0.005315  0.256414  0.530533
    O   O2   0.520234  0.880771  0.227983  -0.429588
    O   O3   0.735639  0.963423  0.320602  -0.464433
    O   O4   0.575143  0.961981  0.439097  -0.496525
    C   C22  0.540350  0.895230  0.354769  0.493373
    Fe  Fe1  0.585587  0.031146  0.354162  1.449777
    O   O5   0.460238  0.993401  0.227747  -0.527021
    O   O6   0.468397  0.111940  0.293372  -0.445416
    C   C23  0.424849  0.045274  0.218837  0.546947
    O   O7   0.615403  0.128891  0.499891  -0.658748
    O   O8   0.484295  0.073812  0.552464  -0.533424
    C   C24  0.553176  0.130949  0.579075  0.759765
    O   O9   0.519770  0.928303  0.708785  -0.595900
    O   O10  0.671700  0.958618  0.673361  -0.564303
    C   C25  0.586562  0.914438  0.637294  0.779995
    O   O11  0.698877  0.050037  0.967989  -0.613597
    O   O12  0.649586  0.937424  0.958204  -0.533101
    C   C26  0.717144  0.996191  0.992477  0.658936
    O   O13  0.374465  0.015212  0.820999  -0.477884
    O   O14  0.572778  0.097499  0.793552  -0.569705
    C   C27  0.526493  0.146042  0.849576  0.600633
    O   O15  0.475971  0.010405  0.982932  -0.542766
    C   C28  0.387967  0.006192  0.932023  0.611694
    O   O16  0.493385  0.148543  0.957145  -0.518139
    Fe  Fe2  0.565777  0.022460  0.864160  1.456380
    C   C29  0.536961  0.595259  0.414139  0.418483
    N   N1   0.529404  0.658617  0.503240  -0.163449
    C   C30  0.523358  0.665736  0.628962  0.493069
    C   C31  0.542738  0.614259  0.673160  -0.284501
    C   C32  0.536093  0.547130  0.578823  0.152172
    C   C33  0.529875  0.537194  0.448140  -0.077917
    C   C34  0.563820  0.626154  0.807240  0.347380
    C   C35  0.564559  0.568382  0.840663  -0.236754
    C   C36  0.549306  0.500340  0.744622  -0.047647
    C   C37  0.535274  0.490053  0.614113  0.023103
    C   C38  0.518685  0.422110  0.518970  -0.023569
    C   C39  0.509708  0.411754  0.387198  -0.106054
    C   C40  0.519113  0.469464  0.352419  -0.091354
    C   C41  0.552508  0.443116  0.778958  0.444803
    N   N2   0.529520  0.375550  0.685176  -0.178983
    C   C42  0.509507  0.364800  0.555828  0.395921
    O   O17  0.551762  0.587933  0.292163  -0.472456
    O   O18  0.487847  0.718512  0.706168  -0.461086
    H   H9   0.576624  0.577054  0.943833  0.185403
    O   O19  0.581613  0.455598  0.906352  -0.467129
    O   O20  0.477249  0.298380  0.461813  -0.458627
    H   H10  0.498050  0.359077  0.310056  0.150155
    H   H11  0.513735  0.460169  0.248949  0.153446
    C   C43  0.560054  0.258148  0.651089  -0.249868
    H   H12  0.590913  0.256728  0.565359  0.227629
    C   C44  0.549077  0.198833  0.681803  -0.023616
    C   C45  0.520165  0.201845  0.799498  -0.007737
    C   C46  0.487080  0.259690  0.872502  -0.109267
    H   H13  0.460010  0.262253  0.961473  0.144453
    C   C47  0.485412  0.314350  0.831041  -0.176884
    H   H14  0.452560  0.355998  0.885520  0.143644
    C   C48  0.526137  0.316133  0.723460  0.263565
    C   C49  0.571222  0.787393  0.557156  -0.188585
    H   H15  0.606461  0.797945  0.655399  0.137060
    C   C50  0.567532  0.845404  0.526662  -0.066365
    C   C51  0.532534  0.835599  0.398327  0.058926
    C   C52  0.489861  0.766851  0.307676  -0.146441
    H   H16  0.457484  0.757210  0.208530  0.135744
    C   C53  0.483660  0.709400  0.343339  -0.160926
    H   H17  0.442894  0.657705  0.272285  0.146597
    C   C54  0.528640  0.718415  0.466905  0.226500
    C   C55  0.596226  0.699225  0.918601  -0.544942
    C   C56  0.696778  0.711471  0.993029  0.615510
    C   C57  0.767721  0.700976  0.898644  -0.364535
    C   C58  0.727689  0.787165  0.097915  -0.491006
    H   H18  0.545231  0.704110  0.988399  0.134087
    H   H19  0.600446  0.743162  0.885247  0.221706
    H   H20  0.698089  0.674788  0.044077  -0.089320
    H   H21  0.760453  0.732036  0.837186  0.054578
    H   H22  0.755562  0.643720  0.833636  0.059220
    H   H23  0.841640  0.719604  0.956224  0.070446
    H   H24  0.734571  0.826065  0.050723  0.102193
    H   H25  0.797738  0.795000  0.158398  0.082663
    H   H26  0.674017  0.796429  0.163620  0.144833
