# Generated by REPEAT Assigner based on pymatgen
data_DB0-m3_o7_o20_f0_pcu.sym.56
_audit_creation_date              2022-05-24
_audit_creation_method            REPEAT_Assigner
_cell_length_a                    17.878538
_cell_length_b                    16.580043
_cell_length_c                    14.534622
_cell_angle_alpha                 90.000000
_cell_angle_beta                  90.001727
_cell_angle_gamma                 90.000000
_cell_volume                      4308.453481
_symmetry_space_group_name_H-M    P1
_symmetry_Int_Tables_number       1
loop_
    _symmetry_equiv_pos_site_id
    _symmetry_equiv_pos_as_xyz
    1  x,y,z
loop_
    _atom_site_type_symbol
    _atom_site_label
    _atom_site_fract_x
    _atom_site_fract_y
    _atom_site_fract_z
    _atom_type_partial_charge
    O   O1   0.388578  0.559265  0.497293  -0.646830
    O   O2   0.611439  0.420770  0.502878  -0.700080
    O   O3   0.611422  0.559265  0.502707  -0.646657
    O   O4   0.388560  0.420770  0.497122  -0.700116
    C   C1   0.352794  0.490048  0.496313  0.833452
    C   C2   0.647206  0.490048  0.503687  0.833288
    O   O5   0.502248  0.559495  0.362934  -0.613739
    O   O6   0.497614  0.420575  0.637057  -0.622589
    O   O7   0.497752  0.559495  0.637066  -0.613601
    O   O8   0.502386  0.420575  0.362943  -0.622603
    C   C3   0.502863  0.490032  0.320139  0.780761
    C   C4   0.497137  0.490032  0.679861  0.780668
    Zn  Zn1  0.500000  0.581556  0.500000  0.993520
    Zn  Zn2  0.500000  0.398484  0.500000  1.034223
    C   C5   0.502545  0.490018  0.221451  -0.237099
    C   C6   0.497455  0.490018  0.778549  -0.237084
    C   C7   0.501756  0.489994  0.138565  0.091053
    C   C8   0.498244  0.489994  0.861434  0.091044
    C   C9   0.500546  0.489971  0.041445  -0.035140
    C   C10  0.499454  0.489971  0.958555  -0.035121
    C   C11  0.847536  0.562363  0.502904  -0.493843
    C   C12  0.151951  0.419206  0.497978  -0.499556
    C   C13  0.152464  0.562363  0.497096  -0.493819
    C   C14  0.848049  0.419206  0.502022  -0.499544
    H   H1   0.879061  0.617950  0.505263  0.201620
    H   H2   0.119696  0.364246  0.502414  0.215837
    H   H3   0.120938  0.617950  0.494737  0.201614
    H   H4   0.880304  0.364246  0.497586  0.215809
    C   C15  0.770119  0.562975  0.502253  0.474093
    C   C16  0.229425  0.417779  0.494455  0.461348
    C   C17  0.229881  0.562975  0.497747  0.474111
    C   C18  0.770575  0.417779  0.505545  0.461332
    C   C19  0.730440  0.490247  0.504389  -0.400876
    C   C20  0.269560  0.490247  0.495611  -0.400944
    C   C21  0.886086  0.490962  0.501873  0.439747
    C   C22  0.113914  0.490962  0.498127  0.439739
    C   C23  0.966311  0.491228  0.500536  -0.153603
    C   C24  0.033688  0.491228  0.499464  -0.153656
    C   C25  0.456970  0.825479  0.437733  -0.341854
    C   C26  0.540552  0.154439  0.564679  -0.339085
    C   C27  0.543030  0.825479  0.562267  -0.341937
    C   C28  0.459448  0.154439  0.435321  -0.339097
    H   H5   0.421406  0.859136  0.391514  0.188733
    H   H6   0.574143  0.120709  0.612996  0.194342
    H   H7   0.578594  0.859136  0.608486  0.188750
    H   H8   0.425856  0.120709  0.387004  0.194344
    C   C29  0.458348  0.741961  0.437336  0.360309
    C   C30  0.539456  0.237969  0.564785  0.344870
    C   C31  0.541652  0.741961  0.562664  0.360658
    C   C32  0.460544  0.237969  0.435215  0.344854
    N   N1   0.500000  0.702196  0.500000  -0.211439
    N   N2   0.500000  0.277819  0.500000  -0.200484
    C   C33  0.500000  0.867119  0.500000  0.323694
    C   C34  0.500000  0.112805  0.500000  0.333554
    C   C35  0.500000  0.953633  0.500000  -0.114555
    C   C36  0.500000  0.026292  0.500000  -0.146331
    O   O9   0.734040  0.634424  0.503243  -0.353971
    C   C37  0.756833  0.698430  0.453012  0.780543
    O   O10  0.793745  0.688626  0.383323  -0.526962
    C   C38  0.733141  0.781239  0.479664  -0.541786
    H   H9   0.704308  0.779079  0.547016  0.105734
    H   H10  0.694900  0.805993  0.426632  0.171131
    H   H11  0.783174  0.820416  0.485628  0.163188
    O   O11  0.265532  0.346228  0.494684  -0.328380
    C   C39  0.238859  0.278875  0.453783  0.738162
    O   O12  0.195266  0.283467  0.389428  -0.532719
    C   C40  0.266912  0.198419  0.483168  -0.490830
    H   H12  0.309216  0.206107  0.538275  0.115052
    H   H13  0.292384  0.167270  0.423428  0.132418
    H   H14  0.219597  0.161874  0.509528  0.162349
    O   O13  0.265960  0.634424  0.496757  -0.353952
    C   C41  0.243167  0.698430  0.546988  0.780514
    O   O14  0.206255  0.688626  0.616677  -0.526954
    C   C42  0.266859  0.781239  0.520336  -0.541789
    H   H15  0.295692  0.779079  0.452984  0.105707
    H   H16  0.305100  0.805993  0.573368  0.171141
    H   H17  0.216826  0.820416  0.514372  0.163195
    O   O15  0.734468  0.346228  0.505316  -0.328351
    C   C43  0.761141  0.278875  0.546217  0.738064
    O   O16  0.804734  0.283467  0.610572  -0.532696
    C   C44  0.733088  0.198419  0.516832  -0.490718
    H   H18  0.690784  0.206107  0.461725  0.115022
    H   H19  0.707616  0.167270  0.576571  0.132387
    H   H20  0.780403  0.161874  0.490472  0.162336
    O   O17  0.415728  0.699011  0.378419  -0.210453
    C   C45  0.399139  0.721456  0.291436  0.698532
    O   O18  0.436216  0.772485  0.251792  -0.514200
    C   C46  0.339507  0.677548  0.240491  -0.450917
    H   H21  0.313947  0.631727  0.286362  0.091405
    H   H22  0.364218  0.647239  0.179637  0.173880
    H   H23  0.296019  0.720881  0.217775  0.145049
    O   O19  0.580233  0.280782  0.625769  -0.189465
    C   C47  0.593114  0.258750  0.713854  0.691741
    O   O20  0.554694  0.207557  0.751219  -0.519455
    C   C48  0.649949  0.303443  0.768608  -0.455274
    H   H24  0.676447  0.350111  0.724714  0.120913
    H   H25  0.693234  0.260802  0.793509  0.154397
    H   H26  0.622388  0.332852  0.828169  0.162048
    O   O21  0.584272  0.699011  0.621581  -0.210940
    C   C49  0.600861  0.721456  0.708564  0.698729
    O   O22  0.563784  0.772485  0.748208  -0.514229
    C   C50  0.660493  0.677548  0.759509  -0.450981
    H   H27  0.686053  0.631727  0.713638  0.091461
    H   H28  0.635782  0.647239  0.820363  0.173882
    H   H29  0.703981  0.720880  0.782225  0.145053
    O   O23  0.419767  0.280782  0.374231  -0.189443
    C   C51  0.406886  0.258750  0.286146  0.691727
    O   O24  0.445306  0.207557  0.248780  -0.519436
    C   C52  0.350051  0.303443  0.231392  -0.455411
    H   H30  0.323553  0.350111  0.275286  0.120940
    H   H31  0.306766  0.260802  0.206491  0.154427
    H   H32  0.377612  0.332852  0.171831  0.162099
