# Generated by REPEAT Assigner based on pymatgen
data_DB0-m29_o92_o45_f0_pts.sym.29
_audit_creation_date              2022-05-24
_audit_creation_method            REPEAT_Assigner
_cell_length_a                    9.584412
_cell_length_b                    23.406946
_cell_length_c                    17.443055
_cell_angle_alpha                 113.151580
_cell_angle_beta                  89.042315
_cell_angle_gamma                 88.502968
_cell_volume                      3595.289245
_symmetry_space_group_name_H-M    P1
_symmetry_Int_Tables_number       1
loop_
    _symmetry_equiv_pos_site_id
    _symmetry_equiv_pos_as_xyz
    1  x,y,z
loop_
    _atom_site_type_symbol
    _atom_site_label
    _atom_site_fract_x
    _atom_site_fract_y
    _atom_site_fract_z
    _atom_type_partial_charge
    C   C1   0.104216  0.996698  0.768476  0.237380
    C   C2   0.118182  0.995062  0.846233  -0.423492
    H   H1   0.220256  0.996686  0.872020  0.188657
    C   C3   0.003688  0.992236  0.893355  0.538122
    C   C4   0.870618  0.990129  0.860752  -0.419334
    C   C5   0.857154  0.992086  0.783060  0.188017
    C   C6   0.972742  0.993815  0.735792  -0.216050
    N   N1   0.029304  0.990975  0.972627  -0.196602
    N   N2   0.927692  0.009512  0.022432  -0.218080
    C   C7   0.839405  0.000964  0.146465  -0.457074
    H   H2   0.735772  0.002993  0.124059  0.243729
    C   C8   0.857937  0.993298  0.220080  0.159486
    C   C9   0.992711  0.989888  0.246614  -0.223483
    C   C10  0.106918  0.996306  0.201022  0.160506
    C   C11  0.086568  0.004010  0.127481  -0.364950
    H   H3   0.176775  0.009498  0.093289  0.156889
    C   C12  0.952605  0.005055  0.099383  0.581399
    H   H4   0.009393  0.984837  0.304775  0.158069
    O   O1   0.607345  0.991093  0.243321  -0.511910
    C   C13  0.735131  0.990338  0.270199  0.583188
    O   O2   0.586502  0.872077  0.256783  -0.511510
    O   O3   0.752491  0.988333  0.343573  -0.488156
    O   O4   0.491425  0.930776  0.384156  -0.500145
    C   C14  0.557576  0.879433  0.333951  0.586299
    Fe  Fe1  0.470403  0.989679  0.328708  1.409513
    O   O5   0.287857  0.964310  0.272446  -0.568307
    O   O6   0.334819  0.039665  0.225306  -0.513600
    C   C15  0.248807  0.999378  0.232895  0.570602
    O   O7   0.487370  0.075442  0.417080  -0.566434
    O   O8   0.305388  0.041879  0.471351  -0.443456
    C   C16  0.393169  0.085343  0.476842  0.592390
    O   O9   0.491820  0.907128  0.574996  -0.563974
    O   O10  0.651104  0.947663  0.514666  -0.371014
    C   C17  0.578172  0.900490  0.512789  0.584898
    O   O11  0.666838  0.026863  0.723325  -0.517607
    O   O12  0.654365  0.932557  0.730881  -0.515535
    C   C18  0.720569  0.984090  0.745937  0.566355
    O   O13  0.220117  0.019465  0.659997  -0.401662
    O   O14  0.465303  0.050844  0.602825  -0.466238
    C   C19  0.430639  0.107393  0.656026  0.612598
    O   O15  0.353354  0.989892  0.744069  -0.444247
    C   C20  0.229456  0.001613  0.722204  0.411227
    O   O16  0.425991  0.118917  0.736008  -0.506813
    Fe  Fe2  0.492214  0.994395  0.661593  1.346770
    C   C21  0.303894  0.356568  0.583511  0.432708
    O   O17  0.427353  0.364244  0.621060  -0.494994
    N   N3   0.241246  0.301751  0.561450  -0.152511
    C   C22  0.118365  0.293039  0.522670  0.451603
    C   C23  0.331935  0.195391  0.522704  -0.264864
    C   C24  0.375162  0.146960  0.544161  0.136171
    C   C25  0.364547  0.216657  0.687851  -0.077532
    C   C26  0.319832  0.264389  0.665790  -0.186177
    C   C27  0.300968  0.253779  0.583246  0.293356
    C   C28  0.116532  0.396818  0.527924  0.111546
    C   C29  0.242424  0.404609  0.567009  -0.114678
    C   C30  0.306861  0.460331  0.589106  -0.034963
    C   C31  0.055007  0.340278  0.505294  -0.137749
    C   C32  0.390433  0.157219  0.627904  -0.090120
    H   H5   0.375977  0.226487  0.753286  0.143996
    H   H6   0.294768  0.309699  0.714022  0.150220
    H   H7   0.407217  0.467466  0.618106  0.122854
    C   C33  0.598365  0.829701  0.361889  -0.085461
    C   C34  0.046118  0.551896  0.526259  0.056233
    C   C35  0.865876  0.483472  0.451913  0.065621
    C   C36  0.924337  0.541628  0.481336  0.016036
    C   C37  0.095915  0.611963  0.558954  -0.181875
    C   C38  0.031327  0.659235  0.543562  -0.012258
    C   C39  0.914790  0.648288  0.495764  -0.099836
    C   C40  0.860844  0.589909  0.465360  0.101955
    C   C41  0.743331  0.580314  0.418225  -0.106094
    C   C42  0.683199  0.628359  0.401132  0.419413
    N   N4   0.738748  0.685024  0.430685  -0.116753
    C   C43  0.852762  0.695552  0.477921  0.393633
    C   C44  0.642265  0.790495  0.467789  -0.318770
    C   C45  0.603006  0.839152  0.445742  0.167042
    C   C46  0.634612  0.771394  0.302011  -0.069907
    C   C47  0.676895  0.723626  0.324625  -0.196518
    C   C48  0.682380  0.733016  0.407629  0.284515
    O   O18  0.909790  0.751662  0.505056  -0.463029
    C   C49  0.114347  0.502414  0.538126  0.052594
    C   C50  0.052473  0.445094  0.512188  0.025712
    C   C51  0.926917  0.435681  0.470948  0.041579
    C   C52  0.244392  0.508481  0.574693  -0.178769
    H   H8   0.647608  0.798483  0.533052  0.192705
    H   H9   0.074471  0.704886  0.569897  0.116944
    H   H10  0.183557  0.625318  0.599014  0.146705
    H   H11  0.304457  0.549533  0.591644  0.132551
    O   O19  0.054820  0.238827  0.503413  -0.480258
    C   C53  0.928511  0.331597  0.467186  -0.005709
    H   H12  0.317085  0.186638  0.457794  0.155716
    H   H13  0.876195  0.288161  0.450095  0.120457
    C   C54  0.747882  0.474599  0.403338  -0.187432
    C   C55  0.687764  0.522369  0.387011  -0.032345
    O   O20  0.567950  0.618771  0.355495  -0.497421
    C   C56  0.865068  0.378459  0.450329  -0.168708
    H   H14  0.699857  0.430590  0.374047  0.134663
    H   H15  0.632020  0.762515  0.236419  0.139385
    H   H16  0.596950  0.513027  0.348668  0.122378
    H   H17  0.709886  0.679256  0.276711  0.154694
    H   H18  0.764600  0.368009  0.422821  0.136463
    C   C57  0.742021  0.982514  0.902414  0.786201
    O   O21  0.729845  0.937004  0.919362  -0.486517
    O   O22  0.638480  0.026496  0.922764  -0.461264
    C   C58  0.519579  0.022158  0.964648  0.449764
    C   C59  0.426967  0.079713  0.983177  -0.337658
    H   H19  0.547273  0.019039  0.024391  -0.047060
    H   H20  0.463001  0.980336  0.925796  -0.044710
    H   H21  0.482849  0.121347  0.023297  0.079940
    H   H22  0.329652  0.076078  0.016000  0.093279
    H   H23  0.400918  0.084056  0.923959  0.112807
    C   C60  0.956412  0.982978  0.647446  0.628706
    O   O23  0.889641  0.020121  0.628163  -0.422281
    O   O24  0.026345  0.934546  0.588002  -0.466103
    C   C61  0.026885  0.926971  0.505901  0.661447
    C   C62  0.120524  0.871397  0.454851  -0.456699
    H   H24  0.067485  0.968995  0.499840  -0.028392
    H   H25  0.919651  0.919033  0.482137  -0.098464
    H   H26  0.228258  0.879198  0.478085  0.100161
    H   H27  0.120945  0.865222  0.388472  0.087032
    H   H28  0.081141  0.829088  0.460511  0.118674
