# Generated by REPEAT Assigner based on pymatgen
data_DB0-m29_o89_o43_f0_pts.sym.12
_audit_creation_date              2022-05-24
_audit_creation_method            REPEAT_Assigner
_cell_length_a                    14.651582
_cell_length_b                    9.456616
_cell_length_c                    19.203611
_cell_angle_alpha                 85.615000
_cell_angle_beta                  90.431579
_cell_angle_gamma                 110.535952
_cell_volume                      2483.836585
_symmetry_space_group_name_H-M    P1
_symmetry_Int_Tables_number       1
loop_
    _symmetry_equiv_pos_site_id
    _symmetry_equiv_pos_as_xyz
    1  x,y,z
loop_
    _atom_site_type_symbol
    _atom_site_label
    _atom_site_fract_x
    _atom_site_fract_y
    _atom_site_fract_z
    _atom_type_partial_charge
    C   C1   0.850329  0.055418  0.070655  -0.344910
    C   C2   0.762807  0.038303  0.038227  0.124249
    C   C3   0.751933  0.000295  0.969324  -0.229670
    C   C4   0.826774  0.975127  0.935398  0.439937
    C   C5   0.912876  0.987839  0.968931  -0.226178
    C   C6   0.924942  0.026913  0.037090  0.320163
    C   C7   0.986658  0.960660  0.934347  -0.027872
    C   C8   0.072118  0.970863  0.967560  0.003758
    C   C9   0.084818  0.008082  0.035817  0.337138
    C   C10  0.011201  0.036710  0.070966  -0.335384
    C   C11  0.145359  0.945633  0.931437  -0.152455
    C   C12  0.232795  0.957666  0.962665  -0.035263
    C   C13  0.244501  0.990027  0.032254  0.154307
    C   C14  0.171132  0.015150  0.068080  -0.396909
    H   H1   0.858203  0.089009  0.123301  0.179951
    H   H2   0.978433  0.931266  0.880823  0.115762
    H   H3   0.134505  0.920064  0.877457  0.149770
    H   H4   0.184942  0.042238  0.121571  0.153739
    N   N1   0.090313  0.204245  0.164017  -0.241457
    C   C15  0.082108  0.199131  0.233962  -0.135142
    C   C16  0.010398  0.065549  0.258510  -0.155348
    C   C17  0.973684  0.986562  0.200949  -0.246954
    C   C18  0.024480  0.075525  0.143701  0.349230
    H   H5   0.138641  0.291636  0.131662  0.316321
    H   H6   0.125888  0.287435  0.265396  0.139662
    H   H7   0.987605  0.029663  0.312372  0.155844
    H   H8   0.916717  0.876658  0.200805  0.168328
    O   O1   0.596502  0.030352  0.054428  -0.509306
    C   C19  0.681171  0.042950  0.081367  0.561067
    O   O2   0.535721  0.737715  0.123392  -0.500267
    O   O3   0.689166  0.041632  0.149515  -0.536609
    O   O4   0.487915  0.843658  0.210959  -0.549447
    C   C20  0.510955  0.731610  0.189354  0.754817
    Fe  Fe1  0.499143  0.993816  0.130777  1.438997
    O   O5   0.367230  0.907739  0.088658  -0.690690
    O   O6   0.390286  0.158733  0.078831  -0.551962
    C   C21  0.337364  0.019183  0.067232  0.701910
    O   O7   0.540763  0.198633  0.168515  -0.543718
    O   O8   0.434809  0.070200  0.257039  -0.552939
    C   C22  0.493374  0.198357  0.226396  0.673646
    O   O9   0.456357  0.785452  0.832655  -0.578017
    O   O10  0.566648  0.916883  0.747030  -0.536692
    C   C23  0.507166  0.787774  0.776210  0.674402
    O   O11  0.625533  0.077531  0.914929  -0.645451
    O   O12  0.611702  0.830550  0.916799  -0.588025
    C   C24  0.659693  0.968931  0.932936  0.782414
    O   O13  0.307012  0.965089  0.850448  -0.541361
    O   O14  0.507215  0.140165  0.790694  -0.541688
    C   C25  0.488378  0.254465  0.813753  0.680200
    O   O15  0.395288  0.950126  0.945865  -0.501476
    C   C26  0.313359  0.952447  0.918690  0.571317
    O   O16  0.467266  0.249733  0.880350  -0.491709
    Fe  Fe2  0.495035  0.989636  0.870858  1.434863
    C   C27  0.492300  0.386674  0.766395  -0.277867
    C   C28  0.497082  0.380023  0.694825  -0.042466
    H   H9   0.496132  0.276805  0.673774  0.146518
    C   C29  0.505122  0.505840  0.650005  -0.032676
    C   C30  0.509873  0.639399  0.677053  -0.101383
    H   H10  0.515077  0.737897  0.642621  0.139910
    C   C31  0.501741  0.645535  0.748066  -0.171851
    C   C32  0.492602  0.519458  0.792777  0.415355
    C   C33  0.567944  0.617431  0.531635  -0.160161
    H   H11  0.619035  0.714860  0.554124  0.125566
    C   C34  0.566830  0.612169  0.460070  -0.224215
    H   H12  0.618252  0.704521  0.428263  0.157601
    C   C35  0.503004  0.488264  0.429855  0.278575
    C   C36  0.442480  0.367761  0.472379  -0.249845
    H   H13  0.391313  0.270305  0.449957  0.128084
    C   C37  0.444453  0.372248  0.544010  -0.114368
    H   H14  0.394444  0.278707  0.576098  0.117165
    C   C38  0.506596  0.497705  0.574038  0.109621
    C   C39  0.497350  0.348591  0.325996  0.001668
    H   H15  0.494449  0.250658  0.360054  0.151775
    C   C40  0.501396  0.341683  0.254821  -0.289447
    C   C41  0.508072  0.467368  0.210500  0.488888
    C   C42  0.508465  0.600103  0.237315  -0.518844
    C   C43  0.505607  0.606359  0.309299  0.546499
    C   C44  0.502058  0.481483  0.353635  -0.337370
    O   O17  0.491225  0.530636  0.863239  -0.342799
    H   H16  0.559781  0.552375  0.876974  0.335495
    O   O18  0.505910  0.455235  0.140025  -0.343893
    H   H17  0.436474  0.431296  0.128246  0.307994
    O   O19  0.503326  0.734109  0.336869  -0.429571
    H   H18  0.433416  0.712630  0.347157  0.330598
    O   O20  0.813936  0.934148  0.868280  -0.477046
    H   H19  0.789523  0.822004  0.873013  0.337599
