# Generated by REPEAT Assigner based on pymatgen
data_DB0-m3_o23_o26_f0_pcu.sym.106
_audit_creation_date              2022-05-24
_audit_creation_method            REPEAT_Assigner
_cell_length_a                    14.817356
_cell_length_b                    15.958965
_cell_length_c                    17.485183
_cell_angle_alpha                 90.006742
_cell_angle_beta                  86.388468
_cell_angle_gamma                 90.044020
_cell_volume                      4126.502970
_symmetry_space_group_name_H-M    P1
_symmetry_Int_Tables_number       1
loop_
    _symmetry_equiv_pos_site_id
    _symmetry_equiv_pos_as_xyz
    1  x,y,z
loop_
    _atom_site_type_symbol
    _atom_site_label
    _atom_site_fract_x
    _atom_site_fract_y
    _atom_site_fract_z
    _atom_type_partial_charge
    O   O1   0.419848  0.624242  0.501301  -0.707691
    O   O2   0.575891  0.624589  0.499303  -0.716871
    C   C1   0.497822  0.663322  0.500014  0.944387
    O   O3   0.412432  0.500749  0.616282  -0.647976
    O   O4   0.568256  0.500764  0.614770  -0.641665
    C   C2   0.488176  0.501196  0.651409  0.666915
    Zn  Zn1  0.396049  0.499208  0.502120  1.085783
    Zn  Zn2  0.601561  0.499946  0.500605  1.116782
    O   O5   0.421736  0.374560  0.503394  -0.717266
    O   O6   0.577746  0.374922  0.501393  -0.719018
    O   O7   0.429351  0.498388  0.387958  -0.648733
    O   O8   0.585176  0.498406  0.386443  -0.639136
    C   C3   0.499802  0.335829  0.502690  0.925138
    C   C4   0.509426  0.497961  0.351319  0.661427
    C   C5   0.483320  0.502885  0.735451  -0.037831
    C   C6   0.561626  0.505164  0.774368  -0.089022
    C   C7   0.557441  0.507470  0.853343  -0.212114
    C   C8   0.474508  0.506905  0.894670  0.260231
    C   C9   0.396466  0.505847  0.855502  -0.244130
    C   C10  0.400595  0.503454  0.776548  -0.064151
    C   C11  0.440103  0.491465  0.149409  -0.169172
    C   C12  0.435932  0.493809  0.228385  -0.166438
    C   C13  0.596970  0.495745  0.226170  -0.090599
    C   C14  0.601080  0.493304  0.147220  -0.223043
    C   C15  0.523028  0.492119  0.108071  0.242401
    C   C16  0.465513  0.510449  0.979095  -0.228286
    C   C17  0.532012  0.488538  0.023650  -0.224863
    C   C18  0.514255  0.496230  0.267281  0.010653
    H   H1   0.627260  0.505983  0.743736  0.104057
    H   H2   0.370301  0.492895  0.259032  0.141536
    H   H3   0.659360  0.497088  0.254973  0.103036
    H   H4   0.596431  0.467571  0.998243  0.130675
    H   H5   0.331179  0.506243  0.886780  0.123409
    H   H6   0.377323  0.486929  0.121662  0.111471
    H   H7   0.338212  0.502217  0.747733  0.099320
    H   H8   0.401099  0.531422  0.004512  0.138082
    H   H9   0.620227  0.511900  0.881092  0.128088
    H   H10  0.666360  0.492978  0.115929  0.121367
    C   C19  0.417868  0.952647  0.460342  -0.110869
    C   C20  0.585122  0.950807  0.456347  -0.127776
    C   C21  0.585999  0.045921  0.455517  0.069579
    H   H11  0.404226  0.076015  0.410518  0.029344
    H   H12  0.422884  0.934082  0.399124  0.010860
    H   H13  0.644519  0.928158  0.485866  0.007142
    H   H14  0.589245  0.924843  0.397474  0.019731
    H   H15  0.644760  0.066380  0.487071  -0.060683
    C   C22  0.500001  0.245939  0.502215  -0.173723
    C   C23  0.499372  0.920328  0.499428  0.554633
    C   C24  0.414444  0.047201  0.466877  -0.083154
    C   C25  0.500688  0.078762  0.499777  0.830081
    C   C26  0.501464  0.046962  0.581453  -0.236822
    C   C27  0.496408  0.952115  0.581336  -0.085063
    C   C28  0.500300  0.170448  0.501259  -0.478286
    C   C29  0.498296  0.828704  0.499570  -0.304923
    C   C30  0.497830  0.753217  0.499708  -0.261106
    H   H16  0.432465  0.931713  0.612177  0.015371
    H   H17  0.554289  0.926218  0.610878  0.021521
    H   H18  0.442709  0.072603  0.616262  0.047125
    H   H19  0.355210  0.925594  0.488296  0.017256
    H   H20  0.355872  0.064859  0.506149  -0.022934
    H   H21  0.564335  0.067280  0.607281  0.031694
    C   C31  0.947419  0.585328  0.517188  -0.293217
    C   C32  0.954258  0.467741  0.423583  -0.323083
    C   C33  0.054527  0.486715  0.419716  0.119321
    H   H22  0.083163  0.633041  0.495408  0.040453
    H   H23  0.934677  0.627404  0.468549  0.071697
    H   H24  0.942315  0.399545  0.417576  0.041130
    H   H25  0.922539  0.501378  0.376712  0.102231
    H   H26  0.064187  0.547963  0.390395  0.048350
    N   N1   0.260965  0.499736  0.503872  -0.081571
    C   C34  0.913279  0.497792  0.500461  0.647358
    C   C35  0.048163  0.581971  0.528525  0.047545
    C   C36  0.084267  0.497266  0.501625  0.086647
    C   C37  0.043326  0.432544  0.559078  0.261549
    C   C38  0.940927  0.438794  0.562556  -0.330577
    C   C39  0.182959  0.498811  0.503061  -0.107366
    C   C40  0.814681  0.498750  0.499334  -0.102009
    N   N2   0.736651  0.499373  0.498825  -0.122943
    H   H27  0.916504  0.463764  0.619318  0.075205
    H   H28  0.909709  0.376461  0.554917  0.114549
    H   H29  0.065517  0.449587  0.616432  -0.002675
    H   H30  0.911318  0.610124  0.569876  0.089895
    H   H31  0.059754  0.591105  0.589999  0.029997
    C   C41  0.602087  0.079868  0.373841  0.124445
    O   O9   0.538862  0.048895  0.325222  -0.579133
    H   H32  0.670364  0.059650  0.351604  -0.004489
    H   H33  0.601063  0.149265  0.372927  0.017982
    H   H34  0.575368  0.030302  0.278967  0.372227
    C   C42  0.108682  0.424090  0.369289  0.371648
    O   O10  0.071637  0.419841  0.298050  -0.617425
    H   H35  0.108088  0.360682  0.394169  -0.096985
    H   H36  0.179886  0.445048  0.360121  -0.016071
    H   H37  0.058356  0.359625  0.291017  0.384047
    C   C43  0.073200  0.342139  0.545116  0.158845
    O   O11  0.055918  0.296424  0.612388  -0.608990
    H   H38  0.146607  0.338700  0.529008  -0.005591
    H   H39  0.035522  0.312821  0.499403  0.061561
    H   H40  0.116380  0.286346  0.631639  0.389690
