# Generated by REPEAT Assigner based on pymatgen
data_DB0-m3_o6_o14_f0_nbo.sym.76
_audit_creation_date              2022-05-24
_audit_creation_method            REPEAT_Assigner
_cell_length_a                    38.394535
_cell_length_b                    32.253895
_cell_length_c                    21.785630
_cell_angle_alpha                 90.000000
_cell_angle_beta                  122.756181
_cell_angle_gamma                 90.000000
_cell_volume                      22688.600058
_symmetry_space_group_name_H-M    P1
_symmetry_Int_Tables_number       1
loop_
    _symmetry_equiv_pos_site_id
    _symmetry_equiv_pos_as_xyz
    1  x,y,z
loop_
    _atom_site_type_symbol
    _atom_site_label
    _atom_site_fract_x
    _atom_site_fract_y
    _atom_site_fract_z
    _atom_type_partial_charge
    O   O1    0.938477  0.034573  0.438245  -0.698829
    O   O2    0.061651  0.036375  0.568575  -0.682653
    O   O3    0.438477  0.534573  0.438245  -0.698822
    O   O4    0.561651  0.536375  0.568575  -0.682645
    O   O5    0.938420  0.963122  0.430731  -0.686972
    O   O6    0.061588  0.964921  0.561101  -0.701206
    O   O7    0.438420  0.463122  0.430731  -0.686965
    O   O8    0.561588  0.464921  0.561101  -0.701199
    C   C1    0.919210  0.998933  0.414298  0.809563
    C   C2    0.080857  0.000556  0.585031  0.809227
    C   C3    0.419210  0.498933  0.414298  0.809554
    C   C4    0.580857  0.500556  0.585031  0.809217
    O   O9    0.996609  0.033985  0.590136  -0.671208
    O   O10   0.005333  0.036982  0.416050  -0.668262
    O   O11   0.496609  0.533985  0.590136  -0.671207
    O   O12   0.505333  0.536982  0.416050  -0.668259
    O   O13   0.994766  0.962517  0.583270  -0.674299
    O   O14   0.003438  0.965511  0.409207  -0.674793
    O   O15   0.494766  0.462517  0.583270  -0.674296
    O   O16   0.503438  0.465511  0.409207  -0.674789
    C   C5    0.993607  0.997410  0.613133  0.617363
    C   C6    0.006472  0.002082  0.386209  0.613762
    C   C7    0.493607  0.497410  0.613133  0.617365
    C   C8    0.506472  0.502082  0.386209  0.613758
    Zn  Zn1   0.999952  0.046676  0.502429  1.317572
    Zn  Zn2   0.499952  0.546676  0.502429  1.317562
    Zn  Zn3   0.000115  0.952821  0.496896  1.318527
    Zn  Zn4   0.500115  0.452821  0.496896  1.318517
    C   C9    0.999554  0.125537  0.990610  -0.073432
    C   C10   0.499554  0.625537  0.990610  -0.073430
    H   H1    0.039709  0.040496  0.732215  0.168680
    H   H2    0.960341  0.959184  0.266827  0.168275
    H   H3    0.539709  0.540496  0.732215  0.168678
    H   H4    0.460341  0.459184  0.266827  0.168270
    C   C11   0.934207  0.946839  0.623818  -0.186445
    C   C12   0.066071  0.052549  0.376048  -0.177202
    C   C13   0.434207  0.446839  0.623818  -0.186453
    C   C14   0.566071  0.552549  0.376048  -0.177207
    H   H5    0.929162  0.949905  0.570318  0.135914
    H   H6    0.071164  0.049249  0.429553  0.133774
    H   H7    0.429162  0.449905  0.570318  0.135919
    H   H8    0.571164  0.549249  0.429553  0.133778
    C   C15   0.908899  0.919803  0.630885  -0.089042
    C   C16   0.091415  0.079658  0.369217  -0.109134
    C   C17   0.408899  0.419803  0.630885  -0.089038
    C   C18   0.591415  0.579658  0.369217  -0.109131
    H   H9    0.885976  0.901943  0.584370  0.095943
    H   H10   0.114409  0.097351  0.415917  0.107505
    H   H11   0.385976  0.401943  0.584370  0.095941
    H   H12   0.614409  0.597351  0.415917  0.107504
    C   C19   0.913130  0.915040  0.697164  -0.073784
    C   C20   0.087126  0.084706  0.302940  -0.060475
    C   C21   0.413130  0.415040  0.697164  -0.073786
    C   C22   0.587126  0.584706  0.302940  -0.060478
    H   H13   0.893901  0.893045  0.703094  0.106449
    H   H14   0.106380  0.106763  0.297199  0.100434
    H   H15   0.393901  0.393045  0.703094  0.106450
    H   H16   0.606380  0.606763  0.297199  0.100434
    C   C23   0.941405  0.938653  0.755822  -0.268156
    C   C24   0.058763  0.061297  0.244040  -0.267411
    C   C25   0.441405  0.438653  0.755822  -0.268148
    C   C26   0.558763  0.561297  0.244040  -0.267401
    H   H17   0.943960  0.933217  0.806919  0.174115
    H   H18   0.056163  0.066954  0.192960  0.174072
    H   H19   0.443960  0.433217  0.806919  0.174113
    H   H20   0.556163  0.566954  0.192960  0.174070
    C   C27   0.966051  0.967374  0.748829  0.131605
    C   C28   0.034086  0.032498  0.250784  0.128021
    C   C29   0.466051  0.467374  0.748829  0.131591
    C   C30   0.534086  0.532498  0.250784  0.128004
    C   C31   0.964114  0.969706  0.683341  0.098276
    C   C32   0.036078  0.029890  0.316293  0.096069
    C   C33   0.464114  0.469706  0.683341  0.098285
    C   C34   0.536078  0.529890  0.316293  0.096078
    C   C35   0.991326  0.995723  0.677926  0.046154
    C   C36   0.008827  0.003815  0.321497  0.049052
    C   C37   0.491326  0.495723  0.677926  0.046145
    C   C38   0.508827  0.503815  0.321497  0.049044
    C   C39   0.018489  0.020327  0.736078  -0.211748
    C   C40   0.981594  0.979386  0.263123  -0.207318
    C   C41   0.518489  0.520327  0.736078  -0.211741
    C   C42   0.481594  0.479386  0.263123  -0.207307
    H   H21   0.040870  0.038788  0.844715  0.159849
    H   H22   0.959118  0.961315  0.154269  0.163602
    H   H23   0.540870  0.538788  0.844715  0.159848
    H   H24   0.459118  0.461315  0.154269  0.163602
    C   C43   0.019634  0.018843  0.799998  -0.174331
    C   C44   0.980404  0.981128  0.199171  -0.180483
    C   C45   0.519634  0.518843  0.799998  -0.174331
    C   C46   0.480404  0.481128  0.199171  -0.180486
    C   C47   0.993432  0.992948  0.806793  0.016052
    C   C48   0.006615  0.007125  0.192562  0.014894
    C   C49   0.493432  0.492948  0.806793  0.016062
    C   C50   0.506615  0.507125  0.192562  0.014907
    H   H25   0.789197  0.965430  0.200224  0.156030
    H   H26   0.210711  0.961386  0.794340  0.158526
    H   H27   0.289197  0.465430  0.200224  0.156031
    H   H28   0.710711  0.461386  0.794340  0.158527
    C   C51   0.729309  0.980410  0.178428  -0.237697
    C   C52   0.270664  0.978304  0.818430  -0.236324
    C   C53   0.229309  0.480410  0.178428  -0.237698
    C   C54   0.770664  0.478304  0.818430  -0.236326
    H   H29   0.713011  0.965583  0.125525  0.163337
    H   H30   0.286896  0.961245  0.869188  0.161191
    H   H31   0.213011  0.465583  0.125525  0.163338
    H   H32   0.786896  0.461245  0.869188  0.161193
    C   C55   0.707368  0.999394  0.204004  0.354567
    C   C56   0.292688  0.999973  0.795671  0.350844
    C   C57   0.207368  0.499394  0.204004  0.354573
    C   C58   0.792688  0.499973  0.795671  0.350858
    C   C59   0.728226  0.018315  0.271500  -0.220801
    C   C60   0.271914  0.021740  0.730913  -0.214167
    C   C61   0.228226  0.518315  0.271500  -0.220801
    C   C62   0.771914  0.521740  0.730913  -0.214169
    H   H33   0.711077  0.033201  0.291615  0.156939
    H   H34   0.289128  0.038732  0.713009  0.156205
    H   H35   0.211077  0.533201  0.291615  0.156936
    H   H36   0.789128  0.538732  0.713009  0.156205
    C   C63   0.770947  0.018271  0.313351  -0.189337
    C   C64   0.229194  0.021856  0.688983  -0.201602
    C   C65   0.270947  0.518271  0.313351  -0.189331
    C   C66   0.729194  0.521856  0.688983  -0.201600
    H   H37   0.787243  0.033096  0.366257  0.154843
    H   H38   0.212963  0.038916  0.638223  0.156930
    H   H39   0.287243  0.533096  0.366257  0.154842
    H   H40   0.712963  0.538916  0.638223  0.156930
    C   C67   0.792900  0.999302  0.287801  0.309146
    C   C68   0.207159  0.000203  0.711717  0.312406
    C   C69   0.292900  0.499302  0.287801  0.309137
    C   C70   0.707159  0.500203  0.711717  0.312404
    C   C71   0.772047  0.980347  0.220309  -0.197391
    C   C72   0.227927  0.978404  0.776468  -0.195309
    C   C73   0.272047  0.480347  0.220309  -0.197392
    C   C74   0.727927  0.478404  0.776468  -0.195313
    C   C75   0.662873  0.999543  0.160441  -0.212477
    C   C76   0.337182  0.999956  0.839320  -0.212683
    C   C77   0.162873  0.499543  0.160441  -0.212485
    C   C78   0.837182  0.499956  0.839320  -0.212709
    C   C79   0.837401  0.999167  0.331679  -0.175283
    C   C80   0.162661  0.000263  0.667757  -0.176936
    C   C81   0.337401  0.499167  0.331679  -0.175275
    C   C82   0.662661  0.500263  0.667757  -0.176931
    C   C83   0.874743  0.999076  0.369031  -0.118208
    C   C84   0.125321  0.000379  0.630347  -0.119344
    C   C85   0.374743  0.499076  0.369031  -0.118211
    C   C86   0.625321  0.500379  0.630347  -0.119345
    C   C87   0.625523  0.999694  0.123964  -0.060906
    C   C88   0.374532  0.999988  0.875848  -0.061816
    C   C89   0.125523  0.499694  0.123964  -0.060891
    C   C90   0.874532  0.499988  0.875848  -0.061787
    C   C91   0.500197  0.874746  0.993612  0.111804
    C   C92   0.000197  0.374746  0.993612  0.111819
    O   O17   0.036599  0.938258  0.038461  -0.620242
    O   O18   0.965038  0.938676  0.972687  -0.640471
    O   O19   0.536599  0.438258  0.038461  -0.620233
    O   O20   0.465038  0.438676  0.972687  -0.640458
    C   C93   0.000741  0.919256  0.007014  0.612987
    C   C94   0.500741  0.419256  0.007014  0.612980
    O   O21   0.031685  0.995551  0.936347  -0.691336
    O   O22   0.968355  0.004758  0.062984  -0.695545
    O   O23   0.531685  0.495551  0.936347  -0.691327
    O   O24   0.468355  0.504758  0.062984  -0.695537
    O   O25   0.960287  0.997666  0.873015  -0.653094
    O   O26   0.039753  0.002698  0.126309  -0.657769
    O   O27   0.460287  0.497666  0.873015  -0.653092
    O   O28   0.539753  0.502698  0.126309  -0.657767
    C   C95   0.995074  0.994757  0.875368  0.650653
    C   C96   0.004966  0.005542  0.123967  0.659204
    C   C97   0.495074  0.494757  0.875368  0.650638
    C   C98   0.504966  0.505542  0.123967  0.659190
    Zn  Zn5   0.046895  0.000003  0.040815  1.294606
    Zn  Zn6   0.953146  0.000328  0.958514  1.295544
    Zn  Zn7   0.546895  0.500003  0.040815  1.294599
    Zn  Zn8   0.453146  0.500328  0.958514  1.295535
    O   O29   0.034999  0.061653  0.026677  -0.683346
    O   O30   0.963445  0.062074  0.960838  -0.662970
    O   O31   0.534999  0.561653  0.026677  -0.683343
    O   O32   0.463445  0.562074  0.960838  -0.662969
    C   C99   0.999304  0.081084  0.992326  0.748568
    C   C100  0.499304  0.581084  0.992326  0.748563
    O   O33   0.500418  0.937400  0.049268  -0.720623
    O   O34   0.499718  0.939239  0.942525  -0.704771
    O   O35   0.000418  0.437400  0.049268  -0.720660
    O   O36   0.999718  0.439239  0.942525  -0.704781
    C   C101  0.500104  0.919120  0.995183  0.755880
    C   C102  0.000104  0.419120  0.995183  0.755920
    O   O37   0.561244  0.999836  0.114321  -0.670467
    O   O38   0.438808  0.000122  0.885509  -0.670251
    O   O39   0.061244  0.499836  0.114321  -0.670446
    O   O40   0.938808  0.500122  0.885509  -0.670262
    O   O41   0.562270  0.999998  0.009226  -0.699278
    O   O42   0.437787  0.999926  0.990606  -0.699503
    O   O43   0.062270  0.499998  0.009226  -0.699263
    O   O44   0.937787  0.499926  0.990606  -0.699508
    C   C103  0.581027  0.999889  0.080575  0.752409
    C   C104  0.419028  0.000065  0.919255  0.752920
    C   C105  0.081027  0.499889  0.080575  0.752366
    C   C106  0.919028  0.500065  0.919255  0.752917
    Zn  Zn9   0.499175  0.998676  0.068659  1.337068
    Zn  Zn10  0.500878  0.001496  0.931241  1.336247
    Zn  Zn11  0.999175  0.498676  0.068659  1.337063
    Zn  Zn12  0.000878  0.501496  0.931241  1.336254
    O   O45   0.500359  0.060905  0.057369  -0.680688
    O   O46   0.499623  0.062742  0.950651  -0.695893
    O   O47   0.000359  0.560905  0.057369  -0.680665
    O   O48   0.999623  0.562742  0.950651  -0.695886
    C   C107  0.499953  0.081066  0.004724  0.733192
    C   C108  0.999953  0.581066  0.004724  0.733158
    C   C109  0.468357  0.228533  0.005967  -0.176739
    C   C110  0.532511  0.228675  0.012960  -0.164460
    C   C111  0.968357  0.728533  0.005967  -0.176749
    C   C112  0.032511  0.728675  0.012960  -0.164468
    H   H41   0.442941  0.211407  0.001721  0.126391
    H   H42   0.557763  0.211665  0.016388  0.123309
    H   H43   0.942941  0.711407  0.001721  0.126395
    H   H44   0.057763  0.711665  0.016388  0.123312
    C   C113  0.500366  0.207314  0.009078  0.283617
    C   C114  0.000366  0.707314  0.009078  0.283628
    C   C115  0.032719  0.771485  0.013222  -0.172492
    C   C116  0.968319  0.771365  0.006855  -0.165833
    C   C117  0.532719  0.271485  0.013222  -0.172499
    C   C118  0.468319  0.271365  0.006855  -0.165836
    C   C119  0.000557  0.792914  0.010247  0.339362
    C   C120  0.500557  0.292914  0.010247  0.339362
    C   C121  0.500129  0.162859  0.007749  -0.202873
    C   C122  0.000129  0.662859  0.007749  -0.202885
    C   C123  0.000489  0.837470  0.009787  -0.323338
    C   C124  0.500489  0.337470  0.009787  -0.323335
    C   C125  0.000545  0.874823  0.008867  0.112972
    C   C126  0.500545  0.374823  0.008867  0.112966
    C   C127  0.500011  0.125521  0.006441  -0.033707
    C   C128  0.000011  0.625521  0.006441  -0.033691
    H   H45   0.948570  0.212169  0.880513  0.194624
    H   H46   0.051811  0.211217  0.099966  0.195820
    H   H47   0.448570  0.712169  0.880513  0.194627
    H   H48   0.551811  0.711217  0.099966  0.195821
    C   C129  0.470585  0.771659  0.929730  -0.128141
    C   C130  0.530227  0.771131  0.052486  -0.106165
    C   C131  0.970585  0.271659  0.929730  -0.128157
    C   C132  0.030227  0.271131  0.052486  -0.106177
    C   C133  0.500419  0.792912  0.991483  0.386371
    C   C134  0.000419  0.292912  0.991483  0.386389
    C   C135  0.029215  0.228397  0.052095  -0.321941
    C   C136  0.971403  0.228921  0.928762  -0.304919
    C   C137  0.529215  0.728397  0.052095  -0.321948
    C   C138  0.471403  0.728921  0.928762  -0.304932
    C   C139  0.000242  0.207353  0.990136  0.422883
    C   C140  0.500242  0.707353  0.990136  0.422891
    C   C141  0.500293  0.837426  0.992506  -0.394996
    C   C142  0.000293  0.337426  0.992506  -0.395016
    C   C143  0.999836  0.162883  0.990002  -0.223603
    C   C144  0.499836  0.662883  0.990002  -0.223605
    C   C145  0.933142  0.793485  0.001021  0.562465
    O   O49   0.915501  0.820417  0.954852  -0.473014
    C   C146  0.917247  0.782163  0.046931  -0.020101
    C   C147  0.877065  0.792430  0.024493  -0.112237
    C   C148  0.861866  0.782436  0.067252  -0.092378
    C   C149  0.886775  0.762499  0.132974  -0.065462
    C   C150  0.927016  0.752743  0.156176  -0.130233
    C   C151  0.942326  0.762629  0.113547  -0.094786
    H   H49   0.856964  0.807912  0.972961  0.116599
    H   H50   0.830336  0.790271  0.049158  0.103248
    H   H51   0.874837  0.754744  0.166499  0.102704
    H   H52   0.946715  0.737491  0.208112  0.114508
    H   H53   0.974258  0.755460  0.133713  0.094823
    C   C152  0.067812  0.793764  0.019063  0.564470
    O   O50   0.085836  0.820173  0.066125  -0.470053
    C   C153  0.083087  0.783285  0.971887  -0.019297
    C   C154  0.123112  0.793755  0.993605  -0.111549
    C   C155  0.137720  0.784574  0.949649  -0.090846
    C   C156  0.112373  0.765250  0.883457  -0.064120
    C   C157  0.072286  0.755291  0.860994  -0.127545
    C   C158  0.057565  0.764366  0.904816  -0.101758
    H   H54   0.143549  0.808772  0.045476  0.115719
    H   H55   0.169129  0.792567  0.967170  0.104675
    H   H56   0.123847  0.758132  0.848995  0.101552
    H   H57   0.052242  0.740522  0.808705  0.113309
    H   H58   0.025736  0.757062  0.885220  0.096154
    C   C159  0.433142  0.293485  0.001021  0.562469
    O   O51   0.415501  0.320417  0.954852  -0.473015
    C   C160  0.417247  0.282163  0.046931  -0.020101
    C   C161  0.377065  0.292430  0.024493  -0.112240
    C   C162  0.361866  0.282436  0.067252  -0.092376
    C   C163  0.386775  0.262499  0.132974  -0.065460
    C   C164  0.427016  0.252743  0.156176  -0.130233
    C   C165  0.442326  0.262629  0.113547  -0.094788
    H   H59   0.356964  0.307912  0.972961  0.116600
    H   H60   0.330336  0.290271  0.049158  0.103247
    H   H61   0.374837  0.254744  0.166499  0.102703
    H   H62   0.446715  0.237491  0.208112  0.114508
    H   H63   0.474258  0.255460  0.133713  0.094824
    C   C166  0.567812  0.293764  0.019063  0.564476
    O   O52   0.585836  0.320173  0.066125  -0.470054
    C   C167  0.583087  0.283285  0.971887  -0.019297
    C   C168  0.623112  0.293755  0.993605  -0.111554
    C   C169  0.637720  0.284574  0.949649  -0.090843
    C   C170  0.612373  0.265250  0.883457  -0.064119
    C   C171  0.572286  0.255291  0.860994  -0.127545
    C   C172  0.557565  0.264366  0.904816  -0.101759
    H   H64   0.643549  0.308772  0.045476  0.115720
    H   H65   0.669129  0.292567  0.967170  0.104674
    H   H66   0.623847  0.258132  0.848995  0.101551
    H   H67   0.552242  0.240522  0.808705  0.113308
    H   H68   0.525736  0.257062  0.885220  0.096154
    C   C173  0.438893  0.793716  0.863734  0.553107
    O   O53   0.434322  0.784786  0.805419  -0.486557
    C   C174  0.411139  0.824574  0.865391  -0.007857
    C   C175  0.392503  0.854305  0.811202  -0.127582
    C   C176  0.366807  0.883650  0.812550  -0.047300
    C   C177  0.359185  0.883158  0.867478  -0.095769
    C   C178  0.377170  0.853242  0.921012  -0.092945
    C   C179  0.402978  0.823932  0.919988  -0.125426
    H   H69   0.398443  0.855324  0.768071  0.121524
    H   H70   0.352654  0.907115  0.770507  0.087517
    H   H71   0.338963  0.906085  0.868411  0.103843
    H   H72   0.370968  0.852694  0.963842  0.107842
    H   H73   0.416390  0.800476  0.962066  0.087855
    C   C180  0.561810  0.792588  0.119389  0.541639
    O   O54   0.566357  0.782607  0.177281  -0.484856
    C   C181  0.589482  0.824103  0.119102  -0.007437
    C   C182  0.608012  0.853112  0.174561  -0.123265
    C   C183  0.633654  0.883044  0.174560  -0.053361
    C   C184  0.641317  0.883871  0.119691  -0.086933
    C   C185  0.623439  0.854679  0.064880  -0.101951
    C   C186  0.597692  0.824779  0.064569  -0.119254
    H   H74   0.602037  0.853100  0.217673  0.120684
    H   H75   0.647727  0.905935  0.217616  0.086959
    H   H76   0.661486  0.907268  0.119796  0.098925
    H   H77   0.629677  0.855163  0.022093  0.111270
    H   H78   0.584371  0.801903  0.021500  0.083266
    C   C187  0.938893  0.293716  0.863734  0.553117
    O   O55   0.934322  0.284786  0.805419  -0.486555
    C   C188  0.911139  0.324574  0.865391  -0.007876
    C   C189  0.892503  0.354305  0.811202  -0.127579
    C   C190  0.866807  0.383650  0.812550  -0.047307
    C   C191  0.859185  0.383158  0.867478  -0.095767
    C   C192  0.877170  0.353242  0.921012  -0.092945
    C   C193  0.902978  0.323932  0.919988  -0.125411
    H   H79   0.898443  0.355324  0.768071  0.121525
    H   H80   0.852654  0.407115  0.770507  0.087521
    H   H81   0.838963  0.406085  0.868411  0.103842
    H   H82   0.870968  0.352694  0.963842  0.107844
    H   H83   0.916390  0.300476  0.962066  0.087850
    C   C194  0.061810  0.292588  0.119389  0.541660
    O   O56   0.066357  0.282607  0.177281  -0.484862
    C   C195  0.089482  0.324103  0.119102  -0.007457
    C   C196  0.108012  0.353112  0.174561  -0.123251
    C   C197  0.133654  0.383044  0.174560  -0.053363
    C   C198  0.141317  0.383871  0.119691  -0.086925
    C   C199  0.123439  0.354679  0.064880  -0.101957
    C   C200  0.097692  0.324779  0.064569  -0.119255
    H   H84   0.102037  0.353100  0.217673  0.120684
    H   H85   0.147727  0.405935  0.217616  0.086957
    H   H86   0.161486  0.407268  0.119796  0.098922
    H   H87   0.129677  0.355163  0.022093  0.111272
    H   H88   0.084371  0.301903  0.021500  0.083269
