data_DB0-m3_o6_o151_f0_fsc.sym.8_repeat
_audit_creation_date              2024-02-20
_audit_creation_method            'Materials Studio'
_symmetry_space_group_name_H-M    'P1'
_symmetry_Int_Tables_number       1
_symmetry_cell_setting            triclinic
loop_
_symmetry_equiv_pos_as_xyz
  x,y,z
_cell_length_a                    14.3875
_cell_length_b                    8.5537
_cell_length_c                    19.2601
_cell_angle_alpha                 90.0000
_cell_angle_beta                  91.0228
_cell_angle_gamma                 90.0000
loop_
_atom_site_label
_atom_site_type_symbol
_atom_site_fract_x
_atom_site_fract_y
_atom_site_fract_z
_atom_site_U_iso_or_equiv
_atom_site_adp_type
_atom_site_occupancy
H1     H     0.04337   0.00554   0.54739   0.00000  Uiso   1.00
H2     H     0.95663   0.00554   0.45261   0.00000  Uiso   1.00
C1     C     0.01965   0.14533   0.63626   0.00000  Uiso   1.00
C2     C     0.98101   0.86634   0.36366   0.00000  Uiso   1.00
C3     C     0.98035   0.14533   0.36374   0.00000  Uiso   1.00
C4     C     0.01899   0.86634   0.63634   0.00000  Uiso   1.00
C5     C     0.00645   0.14625   0.70694   0.00000  Uiso   1.00
C6     C     0.99579   0.86585   0.29307   0.00000  Uiso   1.00
C7     C     0.99355   0.14625   0.29306   0.00000  Uiso   1.00
C8     C     0.00421   0.86585   0.70693   0.00000  Uiso   1.00
H3     H     0.99831   0.25615   0.73386   0.00000  Uiso   1.00
H4     H     0.00145   0.75574   0.26600   0.00000  Uiso   1.00
H5     H     0.00169   0.25615   0.26614   0.00000  Uiso   1.00
H6     H     0.99855   0.75574   0.73400   0.00000  Uiso   1.00
C9     C     0.00262   0.00620   0.74287   0.00000  Uiso   1.00
C10    C     0.99738   0.00620   0.25713   0.00000  Uiso   1.00
C11    C     0.03128   0.00572   0.60235   0.00000  Uiso   1.00
C12    C     0.96872   0.00572   0.39765   0.00000  Uiso   1.00
C13    C     0.06246   0.91291   0.07474   0.00000  Uiso   1.00
C14    C     0.06152   0.09822   0.92744   0.00000  Uiso   1.00
C15    C     0.93754   0.91291   0.92526   0.00000  Uiso   1.00
C16    C     0.93848   0.09822   0.07256   0.00000  Uiso   1.00
H7     H     0.11137   0.84041   0.04748   0.00000  Uiso   1.00
H8     H     0.11047   0.16996   0.95635   0.00000  Uiso   1.00
H9     H     0.88863   0.84041   0.95252   0.00000  Uiso   1.00
H10    H     0.88953   0.16997   0.04365   0.00000  Uiso   1.00
C17    C     0.06218   0.91291   0.14640   0.00000  Uiso   1.00
C18    C     0.06083   0.10070   0.85591   0.00000  Uiso   1.00
C19    C     0.93782   0.91291   0.85360   0.00000  Uiso   1.00
C20    C     0.93917   0.10070   0.14409   0.00000  Uiso   1.00
C21    C     0.00061   0.00735   0.18128   0.00000  Uiso   1.00
C22    C     0.99939   0.00735   0.81872   0.00000  Uiso   1.00
C23    C     0.00007   0.00452   0.03785   0.00000  Uiso   1.00
C24    C     0.99993   0.00452   0.96215   0.00000  Uiso   1.00
O1     O     0.08892   0.67523   0.56425   0.00000  Uiso   1.00
O2     O     0.91102   0.33656   0.43573   0.00000  Uiso   1.00
O3     O     0.91108   0.67523   0.43575   0.00000  Uiso   1.00
O4     O     0.08898   0.33656   0.56427   0.00000  Uiso   1.00
O5     O     0.93023   0.66903   0.57950   0.00000  Uiso   1.00
O6     O     0.06975   0.34243   0.42057   0.00000  Uiso   1.00
O7     O     0.06977   0.66903   0.42050   0.00000  Uiso   1.00
O8     O     0.93025   0.34243   0.57943   0.00000  Uiso   1.00
C25    C     0.01328   0.72427   0.59449   0.00000  Uiso   1.00
C26    C     0.98659   0.28731   0.40559   0.00000  Uiso   1.00
C27    C     0.98672   0.72427   0.40551   0.00000  Uiso   1.00
C28    C     0.01341   0.28731   0.59441   0.00000  Uiso   1.00
Zn1    Zn    0.89709   0.50584   0.50763   0.00000  Uiso   1.00
Zn2    Zn    0.10292   0.50584   0.49237   0.00000  Uiso   1.00
C29    C     0.45780   0.50587   0.43507   0.00000  Uiso   1.00
C30    C     0.54220   0.50587   0.56493   0.00000  Uiso   1.00
C31    C     0.40435   0.50587   0.49374   0.00000  Uiso   1.00
C32    C     0.59565   0.50587   0.50626   0.00000  Uiso   1.00
C33    C     0.44657   0.50587   0.55864   0.00000  Uiso   1.00
C34    C     0.55343   0.50587   0.44136   0.00000  Uiso   1.00
C35    C     0.30477   0.50586   0.48784   0.00000  Uiso   1.00
C36    C     0.69523   0.50586   0.51216   0.00000  Uiso   1.00
N1     N     0.77562   0.50586   0.51508   0.00000  Uiso   1.00
N2     N     0.22438   0.50586   0.48492   0.00000  Uiso   1.00
O9     O     0.12520   0.82366   0.18251   0.00000  Uiso   1.00
H11    H     0.18003   0.89248   0.18884   0.00000  Uiso   1.00
O10    O     0.12419   0.19035   0.82202   0.00000  Uiso   1.00
H12    H     0.17879   0.12119   0.81679   0.00000  Uiso   1.00
O11    O     0.87480   0.82366   0.81749   0.00000  Uiso   1.00
H13    H     0.81997   0.89248   0.81116   0.00000  Uiso   1.00
O12    O     0.87582   0.19035   0.17798   0.00000  Uiso   1.00
H14    H     0.82122   0.12119   0.18321   0.00000  Uiso   1.00
O13    O     0.60647   0.50587   0.38323   0.00000  Uiso   1.00
H15    H     0.61611   0.39382   0.37268   0.00000  Uiso   1.00
O14    O     0.39353   0.50587   0.61677   0.00000  Uiso   1.00
H16    H     0.38389   0.39382   0.62732   0.00000  Uiso   1.00
O15    O     0.41611   0.50587   0.37079   0.00000  Uiso   1.00
H17    H     0.40855   0.39382   0.35912   0.00000  Uiso   1.00
O16    O     0.58388   0.50587   0.62921   0.00000  Uiso   1.00
H18    H     0.59145   0.39382   0.64088   0.00000  Uiso   1.00
