# Generated by REPEAT Assigner based on pymatgen
data_DB0-m3_o8_o27_f0_pcu.sym.127_sqe
_audit_creation_date              2022-05-24
_audit_creation_method            REPEAT_Assigner
_cell_length_a                    15.905734
_cell_length_b                    17.177058
_cell_length_c                    19.365469
_cell_angle_alpha                 89.998872
_cell_angle_beta                  92.701278
_cell_angle_gamma                 89.123862
_cell_volume                      5284.413181
_symmetry_space_group_name_H-M    P1
_symmetry_Int_Tables_number       1
loop_
    _symmetry_equiv_pos_site_id
    _symmetry_equiv_pos_as_xyz
    1  x,y,z
loop_
    _atom_site_type_symbol
    _atom_site_label
    _atom_site_fract_x
    _atom_site_fract_y
    _atom_site_fract_z
    _atom_type_partial_charge
    O   O1   0.411084  0.607127  0.508779  -0.692896
    O   O2   0.569473  0.380095  0.517706  -0.711002
    O   O3   0.555950  0.611926  0.516394  -0.700348
    O   O4   0.424709  0.375311  0.509359  -0.701947
    C   C1   0.481492  0.645950  0.512526  0.821211
    C   C2   0.499099  0.341239  0.513642  0.838297
    O   O5   0.416568  0.491356  0.611886  -0.568568
    O   O6   0.563879  0.495415  0.414247  -0.544783
    O   O7   0.561400  0.496227  0.619841  -0.661613
    O   O8   0.419359  0.491340  0.406234  -0.645108
    C   C3   0.488167  0.494373  0.648296  0.746770
    C   C4   0.492526  0.493557  0.377658  0.663527
    Zn  Zn1  0.394837  0.490388  0.507972  1.009519
    Zn  Zn2  0.585767  0.496835  0.518097  1.042070
    C   C5   0.414431  0.514385  0.758250  0.524456
    C   C6   0.568961  0.494196  0.267247  0.444539
    C   C7   0.414944  0.511454  0.829551  -0.042025
    C   C8   0.567123  0.491260  0.195893  -0.021480
    H   H1   0.357419  0.525509  0.854664  0.038487
    H   H2   0.626171  0.489415  0.170556  0.025568
    C   C9   0.488119  0.493316  0.867836  -0.470619
    C   C10  0.491533  0.492352  0.157749  -0.471827
    C   C11  0.560895  0.477203  0.833976  0.030228
    C   C12  0.417194  0.494643  0.191779  0.038613
    H   H3   0.619114  0.462779  0.862408  0.043227
    H   H4   0.357040  0.495290  0.163437  0.044367
    C   C13  0.560161  0.477999  0.762797  -0.041936
    C   C14  0.418464  0.494889  0.262986  -0.061034
    H   H5   0.617694  0.463583  0.737826  0.107271
    H   H6   0.359055  0.495648  0.287825  0.097755
    C   C15  0.486982  0.495577  0.724210  -0.302064
    C   C16  0.493965  0.494337  0.301584  -0.212607
    N   N1   0.561836  0.482869  0.980849  -0.362484
    N   N2   0.417351  0.500894  0.044714  -0.357682
    N   N3   0.562639  0.482732  0.049125  -0.319759
    N   N4   0.416578  0.501273  0.976423  -0.330440
    C   C17  0.490422  0.491737  0.081912  0.914568
    C   C18  0.488819  0.492276  0.943649  0.928010
    C   C19  0.476712  0.731212  0.511682  -0.165275
    C   C20  0.503809  0.255931  0.512852  -0.134210
    C   C21  0.548364  0.774168  0.504142  -0.234723
    C   C22  0.431722  0.213020  0.501742  -0.228580
    C   C23  0.544374  0.854559  0.500652  0.460118
    C   C24  0.435472  0.132626  0.498363  0.461637
    C   C25  0.467273  0.893110  0.508723  0.086507
    C   C26  0.512977  0.093994  0.510005  0.085913
    C   C27  0.396246  0.849376  0.516286  -0.230678
    C   C28  0.584459  0.137654  0.520903  -0.206792
    C   C29  0.400403  0.769276  0.517307  -0.025301
    C   C30  0.580418  0.217753  0.521926  -0.065299
    N   N5   0.456657  0.975329  0.508951  -0.075644
    N   N6   0.523564  0.011771  0.510643  -0.082150
    H   H7   0.371219  0.241894  0.493952  0.132142
    H   H8   0.608552  0.745300  0.498982  0.148261
    H   H9   0.336256  0.878599  0.521716  0.139241
    H   H10  0.644749  0.108362  0.528978  0.134752
    H   H11  0.343331  0.737187  0.523510  0.091958
    H   H12  0.637931  0.249723  0.530595  0.105194
    N   N7   0.711404  0.501325  0.523876  -0.154293
    N   N8   0.269200  0.485839  0.501972  -0.108207
    C   C31  0.755813  0.457812  0.480239  0.047008
    C   C32  0.224202  0.534708  0.540687  -0.114212
    C   C33  0.842467  0.461044  0.481746  -0.163793
    C   C34  0.137526  0.531780  0.538756  -0.128570
    C   C35  0.883916  0.509780  0.528678  0.486331
    C   C36  0.096609  0.478051  0.496214  0.503034
    C   C37  0.837033  0.553836  0.572679  -0.384486
    C   C38  0.144025  0.429129  0.456631  -0.361348
    C   C39  0.750535  0.549037  0.569688  0.145885
    C   C40  0.230561  0.433541  0.460164  0.110214
    N   N9   0.972582  0.516074  0.532771  -0.227895
    N   N10  0.007952  0.471674  0.492118  -0.233631
    H   H13  0.256158  0.576551  0.573759  0.246282
    H   H14  0.723360  0.420218  0.443390  0.141828
    H   H15  0.104447  0.572283  0.570921  0.065194
    H   H16  0.875087  0.425170  0.445421  0.074182
    H   H17  0.868158  0.592343  0.609519  0.157213
    H   H18  0.113317  0.386869  0.423090  0.143792
    H   H19  0.714037  0.584073  0.604070  0.114840
    H   H20  0.267470  0.394619  0.429361  0.149354
    O   O9   0.341543  0.535802  0.722361  -0.528904
    C   C41  0.344821  0.616745  0.715480  0.337005
    H   H21  0.360387  0.631656  0.661918  -0.044811
    H   H22  0.393742  0.640891  0.751738  -0.046052
    C   C42  0.259973  0.652202  0.730905  0.084155
    H   H23  0.210527  0.625991  0.696373  0.003221
    H   H24  0.246298  0.640270  0.785492  0.016235
    C   C43  0.260786  0.739377  0.719020  -0.319947
    H   H25  0.310390  0.765915  0.753181  0.075235
    H   H26  0.198676  0.764855  0.730998  0.081580
    H   H27  0.273343  0.751585  0.664242  0.067031
    O   O10  0.645547  0.493173  0.302723  -0.496191
    C   C44  0.671022  0.570742  0.306115  0.392745
    H   H28  0.673329  0.590312  0.360722  -0.040625
    H   H29  0.625973  0.608742  0.275844  -0.061764
    C   C45  0.757926  0.577066  0.277936  0.005344
    H   H30  0.802805  0.539727  0.309084  0.016201
    H   H31  0.756223  0.557433  0.223360  0.028699
    C   C46  0.786418  0.660780  0.281787  -0.268776
    H   H32  0.742206  0.698236  0.250141  0.077755
    H   H33  0.850283  0.664745  0.261563  0.063467
    H   H34  0.788198  0.680878  0.336252  0.073243
    O   O11  0.361853  0.093978  0.484382  -0.566032
    C   C47  0.352174  0.090828  0.412270  0.413620
    H   H35  0.353540  0.029131  0.395461  -0.049302
    H   H36  0.404112  0.121743  0.388302  -0.080652
    C   C48  0.268527  0.128019  0.389018  0.154254
    H   H37  0.216843  0.096830  0.413087  -0.004082
    H   H38  0.267113  0.189929  0.405152  -0.026372
    C   C49  0.256615  0.123403  0.311040  -0.329175
    H   H39  0.308013  0.154681  0.286657  0.067856
    H   H40  0.195332  0.150805  0.294606  0.083916
    H   H41  0.257200  0.061609  0.294463  0.063249
    O   O12  0.617395  0.893280  0.490111  -0.566368
    C   C50  0.623686  0.896755  0.418372  0.428419
    H   H42  0.620286  0.958478  0.401564  -0.055216
    H   H43  0.571280  0.864972  0.391894  -0.079399
    C   C51  0.707082  0.861083  0.398965  0.131573
    H   H44  0.759213  0.892655  0.426053  0.007535
    H   H45  0.710146  0.798942  0.414495  -0.035239
    C   C52  0.715871  0.867092  0.321586  -0.325441
    H   H46  0.664811  0.834362  0.294224  0.067474
    H   H47  0.777633  0.842039  0.308125  0.075703
    H   H48  0.712232  0.929051  0.305486  0.064779
