# Generated by REPEAT Assigner based on pymatgen
data_DB0-m9_o6_o23_f0_sra.sym.91
_audit_creation_date              2022-05-24
_audit_creation_method            REPEAT_Assigner
_cell_length_a                    6.703393
_cell_length_b                    20.403120
_cell_length_c                    23.860481
_cell_angle_alpha                 90.170925
_cell_angle_beta                  89.977689
_cell_angle_gamma                 90.012121
_cell_volume                      3263.386082
_symmetry_space_group_name_H-M    P1
_symmetry_Int_Tables_number       1
loop_
    _symmetry_equiv_pos_site_id
    _symmetry_equiv_pos_as_xyz
    1  x,y,z
loop_
    _atom_site_type_symbol
    _atom_site_label
    _atom_site_fract_x
    _atom_site_fract_y
    _atom_site_fract_z
    _atom_type_partial_charge
    O  O1   0.484216  0.449066  0.438274  -0.556302
    O  O2   0.824818  0.434797  0.556694  -0.534744
    O  O3   0.984073  0.557503  0.560735  -0.550082
    C  C1   0.650374  0.424602  0.578594  0.740528
    O  O4   0.825040  0.435031  0.441769  -0.549850
    O  O5   0.984267  0.557694  0.438718  -0.540514
    C  C2   0.650773  0.425031  0.419632  0.764422
    O  O6   0.483972  0.448790  0.560278  -0.540471
    O  O7   0.658702  0.544469  0.499677  -0.444415
    V  V1   0.932600  0.494879  0.499484  1.347770
    O  O8   0.325161  0.571717  0.442316  -0.546625
    C  C3   0.150915  0.581674  0.420311  0.781571
    O  O9   0.324904  0.571514  0.557253  -0.546907
    C  C4   0.150490  0.581688  0.579318  0.727731
    V  V2   0.432614  0.511656  0.499548  1.359352
    O  O10  0.158483  0.462064  0.499356  -0.441138
    C  C5   0.951540  0.698614  0.747469  -0.024632
    C  C6   0.314646  0.715963  0.739711  -0.162010
    C  C7   0.291079  0.757321  0.792098  -0.034103
    H  H1   0.906328  0.733885  0.831805  0.067023
    H  H2   0.990330  0.653044  0.770214  0.005620
    H  H3   0.433552  0.736969  0.712883  0.048692
    H  H4   0.354884  0.665146  0.751576  0.039438
    H  H5   0.277081  0.724985  0.829169  0.007751
    H  H6   0.423267  0.789505  0.797074  -0.010359
    C  C8   0.093980  0.885397  0.870834  -0.104626
    C  C9   0.119634  0.715949  0.707751  0.589641
    C  C10  0.923542  0.754206  0.789019  -0.270971
    C  C11  0.104402  0.798600  0.786816  0.705514
    C  C12  0.107661  0.833750  0.731020  -0.219600
    C  C13  0.083295  0.783820  0.684366  -0.033178
    C  C14  0.096965  0.846385  0.832749  -0.385707
    C  C15  0.129277  0.668014  0.661963  -0.392506
    C  C16  0.138491  0.628576  0.624278  -0.114029
    H  H7   0.929536  0.786423  0.667383  0.007812
    H  H8   0.192111  0.794257  0.650526  0.018347
    H  H9   0.983952  0.869756  0.729162  0.043101
    H  H10  0.811502  0.691090  0.723567  -0.003352
    H  H11  0.788685  0.782777  0.777812  0.065155
    H  H12  0.252323  0.859506  0.726195  0.031511
    H  H13  0.355188  0.841396  0.237283  0.129064
    C  C17  0.258409  0.759065  0.285172  -0.148853
    H  H14  0.371659  0.765360  0.316979  0.142800
    C  C18  0.122489  0.708606  0.289356  0.131611
    C  C19  0.978077  0.700436  0.248815  -0.168793
    H  H15  0.871731  0.660800  0.252143  0.099403
    C  C20  0.969072  0.742954  0.204127  0.144917
    C  C21  0.104672  0.793513  0.200014  0.112848
    C  C22  0.249393  0.801586  0.240483  -0.204403
    C  C23  0.131794  0.664368  0.335800  0.029112
    C  C24  0.092608  0.838576  0.154207  0.082138
    C  C25  0.080834  0.877012  0.116183  -0.382478
    C  C26  0.140048  0.626888  0.374590  -0.285069
    H  H16  0.303088  0.298479  0.713823  0.137439
    C  C27  0.428653  0.228336  0.769931  -0.234650
    H  H17  0.287328  0.216792  0.789382  0.168928
    C  C28  0.600475  0.197563  0.787612  0.280957
    C  C29  0.780910  0.212445  0.763011  -0.147673
    H  H18  0.915571  0.188434  0.777058  0.125074
    C  C30  0.789787  0.258234  0.720770  -0.228691
    H  H19  0.931324  0.270063  0.701567  0.160839
    C  C31  0.618219  0.289169  0.703185  0.287931
    C  C32  0.437534  0.274162  0.727647  -0.165173
    C  C33  0.593084  0.150989  0.832411  -0.109884
    C  C34  0.628323  0.337087  0.659475  -0.118847
    C  C35  0.638023  0.377193  0.622664  -0.199818
    C  C36  0.590484  0.112386  0.870468  -0.186588
    H  H20  0.304198  0.302752  0.281362  0.138721
    C  C37  0.429720  0.237543  0.220685  -0.205378
    H  H21  0.287053  0.225294  0.202324  0.157431
    C  C38  0.601889  0.209550  0.199882  0.264450
    C  C39  0.783755  0.225061  0.223477  -0.174104
    H  H22  0.918765  0.203034  0.207317  0.136872
    C  C40  0.793339  0.268461  0.267860  -0.221199
    H  H23  0.935915  0.280513  0.286372  0.163454
    C  C41  0.621078  0.296341  0.288733  0.299475
    C  C42  0.439299  0.280931  0.265058  -0.181365
    C  C43  0.591058  0.163528  0.154297  -0.057728
    C  C44  0.630975  0.341411  0.335026  -0.127358
    C  C45  0.639603  0.379405  0.373764  -0.197015
    C  C46  0.580149  0.124416  0.116426  -0.276379
    O  O11  0.766821  0.037580  0.924850  -0.511613
    O  O12  0.398440  0.042273  0.069987  -0.576146
    O  O13  0.217775  0.928321  0.036652  -0.462525
    C  C47  0.564403  0.077095  0.071939  0.802084
    O  O14  0.453706  0.077031  0.955744  -0.476243
    O  O15  0.267609  0.962271  0.924773  -0.532693
    C  C48  0.592263  0.067231  0.916360  0.661049
    O  O16  0.717518  0.072353  0.036755  -0.470336
    O  O17  0.584459  0.956366  0.996097  -0.523152
    V  V3   0.309546  0.007457  0.996847  1.330740
    O  O18  0.954025  0.922748  0.955646  -0.507816
    C  C49  0.094618  0.931390  0.916582  0.669081
    O  O19  0.898900  0.958530  0.069904  -0.556210
    C  C50  0.064401  0.923630  0.071643  0.841795
    V  V4   0.809670  0.992594  0.996734  1.335626
    O  O20  0.084415  0.043914  0.995887  -0.526373
    S  S1   0.781097  0.732823  0.151784  -0.161437
    C  C51  0.608187  0.785162  0.189567  -0.211259
    H  H24  0.460528  0.783486  0.168668  0.170969
    H  H25  0.664269  0.836300  0.189570  0.091309
    H  H26  0.591981  0.767324  0.233190  0.096277
