# Generated by REPEAT Assigner based on pymatgen
data_DB0-m3_o8_o25_f0_pcu.sym.25_sqe
_audit_creation_date              2022-05-24
_audit_creation_method            REPEAT_Assigner
_cell_length_a                    15.914964
_cell_length_b                    15.984555
_cell_length_c                    17.091565
_cell_angle_alpha                 89.999816
_cell_angle_beta                  89.118968
_cell_angle_gamma                 92.722974
_cell_volume                      4342.561275
_symmetry_space_group_name_H-M    P1
_symmetry_Int_Tables_number       1
loop_
    _symmetry_equiv_pos_site_id
    _symmetry_equiv_pos_as_xyz
    1  x,y,z
loop_
    _atom_site_type_symbol
    _atom_site_label
    _atom_site_fract_x
    _atom_site_fract_y
    _atom_site_fract_z
    _atom_type_partial_charge
    O   O1   0.582362  0.504265  0.387045  -0.728702
    O   O2   0.417637  0.495740  0.612954  -0.728671
    O   O3   0.437578  0.495965  0.380306  -0.647920
    O   O4   0.562422  0.504040  0.619693  -0.647907
    C   C1   0.512480  0.500050  0.347084  0.818271
    C   C2   0.487519  0.499954  0.652915  0.818226
    O   O5   0.575342  0.379923  0.503625  -0.679781
    O   O6   0.424657  0.620082  0.496374  -0.679763
    O   O7   0.430279  0.371159  0.497523  -0.607051
    O   O8   0.569720  0.628845  0.502476  -0.607035
    C   C3   0.503275  0.336746  0.500766  0.789792
    C   C4   0.496724  0.663258  0.499233  0.789789
    Zn  Zn1  0.595552  0.506021  0.504782  1.038980
    Zn  Zn2  0.404447  0.493983  0.495217  1.038948
    C   C5   0.533771  0.973945  0.433814  -0.167004
    C   C6   0.466229  0.026059  0.566185  -0.167052
    C   C7   0.456725  0.026455  0.440277  -0.195636
    C   C8   0.543275  0.973550  0.559722  -0.195586
    H   H1   0.420916  0.050881  0.390752  0.079110
    H   H2   0.579083  0.949123  0.609247  0.079104
    H   H3   0.561686  0.949932  0.378885  0.066335
    H   H4   0.438313  0.050073  0.621114  0.066340
    H   H5   0.355660  0.944063  0.511189  0.061189
    H   H6   0.644340  0.055941  0.488810  0.061204
    C   C9   0.503975  0.247059  0.500767  -0.115862
    C   C10  0.496024  0.752946  0.499232  -0.115878
    C   C11  0.578877  0.029288  0.493871  -0.163650
    C   C12  0.421123  0.970717  0.506128  -0.163582
    C   C13  0.501806  0.080157  0.500327  0.739896
    C   C14  0.498194  0.919848  0.499672  0.739814
    C   C15  0.503419  0.171683  0.500613  -0.434967
    C   C16  0.496580  0.828321  0.499386  -0.434930
    C   C17  0.517853  0.499965  0.261357  -0.249823
    C   C18  0.482146  0.500040  0.738642  -0.249799
    C   C19  0.445241  0.494931  0.217866  -0.003465
    C   C20  0.554759  0.505074  0.782133  -0.003473
    C   C21  0.449426  0.495345  0.137245  -0.166511
    C   C22  0.550573  0.504659  0.862754  -0.166511
    C   C23  0.527051  0.500845  0.099063  0.460907
    C   C24  0.472948  0.499160  0.900936  0.460901
    C   C25  0.599371  0.505533  0.142607  -0.369333
    C   C26  0.400628  0.494471  0.857392  -0.369323
    C   C27  0.595093  0.505107  0.223237  0.068755
    C   C28  0.404906  0.494898  0.776762  0.068739
    N   N1   0.534612  0.501904  0.016468  -0.236727
    N   N2   0.465387  0.498100  0.983531  -0.236729
    H   H7   0.615992  0.509262  0.753897  0.093825
    H   H8   0.384008  0.490743  0.246102  0.093825
    H   H9   0.609397  0.508663  0.893616  0.062137
    H   H10  0.390603  0.491341  0.106383  0.062135
    H   H11  0.660032  0.509757  0.113188  0.135691
    H   H12  0.339967  0.490248  0.886811  0.135690
    H   H13  0.652866  0.509038  0.255711  0.095000
    H   H14  0.347133  0.490967  0.744288  0.095004
    N   N3   0.278998  0.485284  0.487759  -0.140969
    N   N4   0.721002  0.514721  0.512240  -0.141025
    C   C29  0.234083  0.521864  0.544627  -0.053758
    C   C30  0.765917  0.478140  0.455372  -0.053675
    C   C31  0.147455  0.521344  0.542085  -0.231945
    C   C32  0.852544  0.478661  0.457914  -0.232010
    C   C33  0.106210  0.483668  0.479622  0.585653
    C   C34  0.893789  0.516337  0.520377  0.585726
    C   C35  0.153142  0.447002  0.422033  -0.560618
    C   C36  0.846858  0.553002  0.577967  -0.560615
    C   C37  0.239593  0.447005  0.427116  0.458318
    C   C38  0.760406  0.552999  0.572883  0.458327
    N   N5   0.017721  0.482149  0.472443  -0.230949
    N   N6   0.982278  0.517856  0.527556  -0.231098
    H   H15  0.733939  0.447100  0.407376  0.193238
    H   H16  0.266061  0.552904  0.592623  0.193246
    H   H17  0.885282  0.448304  0.410729  0.095931
    H   H18  0.114718  0.551701  0.589270  0.095950
    H   H19  0.121776  0.418557  0.372349  0.196185
    H   H20  0.878223  0.581448  0.627650  0.196193
    O   O9   0.285102  0.412163  0.367975  -0.275013
    C   C39  0.277363  0.325709  0.380147  0.427527
    H   H21  0.215208  0.300715  0.360024  -0.056424
    H   H22  0.284136  0.311548  0.443153  -0.081060
    C   C40  0.345280  0.283950  0.333398  -0.304282
    H   H23  0.407887  0.311876  0.348836  0.103198
    H   H24  0.342723  0.215921  0.346528  0.071923
    H   H25  0.334980  0.293562  0.270074  0.059614
    O   O10  0.714897  0.587842  0.632024  -0.275023
    C   C41  0.722637  0.674295  0.619852  0.427516
    H   H26  0.715863  0.688456  0.556846  -0.081080
    H   H27  0.784792  0.699289  0.639975  -0.056418
    C   C42  0.654719  0.716055  0.666601  -0.304140
    H   H28  0.665020  0.706442  0.729925  0.059575
    H   H29  0.657277  0.784084  0.653471  0.071877
    H   H30  0.592113  0.688129  0.651163  0.103167
