# Generated by REPEAT Assigner based on pymatgen
data_DB0-m3_o10_o23_f0_pcu.sym.107_sqe
_audit_creation_date              2022-05-24
_audit_creation_method            REPEAT_Assigner
_cell_length_a                    7.752885
_cell_length_b                    8.892297
_cell_length_c                    15.970204
_cell_angle_alpha                 89.995682
_cell_angle_beta                  83.878005
_cell_angle_gamma                 91.447686
_cell_volume                      1094.368557
_symmetry_space_group_name_H-M    P1
_symmetry_Int_Tables_number       1
loop_
    _symmetry_equiv_pos_site_id
    _symmetry_equiv_pos_as_xyz
    1  x,y,z
loop_
    _atom_site_type_symbol
    _atom_site_label
    _atom_site_fract_x
    _atom_site_fract_y
    _atom_site_fract_z
    _atom_type_partial_charge
    O   O1   0.387652  0.736171  0.503088  -0.628391
    O   O2   0.685265  0.709309  0.488721  -0.690781
    C   C1   0.546794  0.792185  0.495488  0.789309
    O   O3   0.349047  0.513278  0.629130  -0.699300
    O   O4   0.646624  0.485775  0.615017  -0.693051
    C   C2   0.497234  0.499276  0.660952  0.905386
    Zn  Zn1  0.306665  0.517642  0.506120  1.018228
    Zn  Zn2  0.698768  0.482061  0.488034  1.020044
    O   O5   0.320298  0.290391  0.505318  -0.564573
    O   O6   0.617716  0.263569  0.491520  -0.607813
    O   O7   0.359447  0.514923  0.379186  -0.630111
    O   O8   0.656231  0.486262  0.365018  -0.658017
    C   C3   0.458735  0.207509  0.499019  0.676053
    C   C4   0.508303  0.500871  0.333087  0.790972
    C   C5   0.332137  0.563583  0.958009  -0.224185
    C   C6   0.650970  0.598420  0.941209  -0.205299
    C   C7   0.654850  0.595915  0.035975  -0.075782
    H   H1   0.341471  0.690511  0.070029  0.018169
    H   H2   0.318435  0.679131  0.933866  0.050486
    H   H3   0.774456  0.554896  0.910147  0.036083
    H   H4   0.634919  0.715543  0.920046  0.054223
    H   H5   0.646448  0.712366  0.060654  0.005207
    H   H6   0.777915  0.546828  0.051144  0.021962
    C   C8   0.507979  0.501443  0.243085  -0.152118
    C   C9   0.500557  0.500679  0.917721  0.618268
    C   C10  0.336377  0.570225  0.052494  -0.039958
    C   C11  0.502766  0.501357  0.076032  0.600030
    C   C12  0.523265  0.342137  0.043392  -0.091850
    C   C13  0.520679  0.341552  0.948579  -0.148880
    C   C14  0.505268  0.501708  0.167683  -0.358852
    C   C15  0.498749  0.500103  0.826197  -0.280702
    C   C16  0.496986  0.499689  0.750832  -0.240383
    H   H7   0.412886  0.268415  0.930649  0.026036
    H   H8   0.645013  0.297541  0.918795  0.031744
    H   H9   0.420990  0.266352  0.074878  -0.013317
    H   H10  0.220894  0.493380  0.941427  0.029591
    H   H11  0.650474  0.301099  0.058188  0.044762
    C   C17  0.571314  0.955743  0.493850  -0.256711
    H   H12  0.701433  0.004842  0.485951  0.130748
    C   C18  0.434514  0.043957  0.501422  -0.127309
    H   H13  0.304627  0.994719  0.509988  0.090691
    N   N1   0.955978  0.458011  0.477058  0.050651
    N   N2   0.049267  0.541576  0.517064  -0.142401
    H   H14  0.980854  0.615767  0.556452  0.279151
    C   C19  0.175339  0.498582  0.097357  0.187202
    C   C20  0.078829  0.577611  0.159906  -0.007790
    Cl  Cl1  0.148759  0.755887  0.191278  -0.143481
    C   C21  0.924737  0.517169  0.198222  -0.074688
    C   C22  0.866824  0.376967  0.175475  -0.119644
    C   C23  0.961528  0.298054  0.113132  -0.134236
    C   C24  0.114145  0.358911  0.073558  -0.190855
    H   H15  0.849301  0.580150  0.246384  0.113470
    H   H16  0.746529  0.329471  0.205935  0.105403
    H   H17  0.914896  0.188912  0.094302  0.100889
    H   H18  0.180907  0.296387  0.022825  0.137123
    C   C25  0.043150  0.356567  0.420641  0.180314
    C   C26  0.054818  0.207802  0.443398  -0.108194
    Cl  Cl2  0.977519  0.148664  0.545420  -0.011630
    C   C27  0.124174  0.105014  0.385316  0.110771
    C   C28  0.181762  0.150795  0.304465  -0.435601
    C   C29  0.167318  0.298857  0.281291  0.159749
    C   C30  0.095463  0.400975  0.339010  -0.110105
    H   H19  0.131460  0.988095  0.402724  0.070179
    H   H20  0.236243  0.070259  0.258994  0.225671
    H   H21  0.210715  0.334508  0.217666  0.051686
    H   H22  0.082549  0.516808  0.320808  0.135755
