# Generated by REPEAT Assigner based on pymatgen
data_DB0-m2_o17_o28_f0_nbo.sym.21_sqe
_audit_creation_date              2022-05-24
_audit_creation_method            REPEAT_Assigner
_cell_length_a                    29.812713
_cell_length_b                    29.812713
_cell_length_c                    46.554816
_cell_angle_alpha                 90.000000
_cell_angle_beta                  90.000000
_cell_angle_gamma                 90.000000
_cell_volume                      41377.820467
_symmetry_space_group_name_H-M    P1
_symmetry_Int_Tables_number       1
loop_
    _symmetry_equiv_pos_site_id
    _symmetry_equiv_pos_as_xyz
    1  x,y,z
loop_
    _atom_site_type_symbol
    _atom_site_label
    _atom_site_fract_x
    _atom_site_fract_y
    _atom_site_fract_z
    _atom_type_partial_charge
    O   O1    0.936073  0.463064  0.507988  -0.583143
    O   O2    0.536936  0.936073  0.507988  -0.583065
    O   O3    0.063927  0.536936  0.507988  -0.583134
    O   O4    0.463064  0.063927  0.507988  -0.583015
    O   O5    0.936073  0.536936  0.492012  -0.583032
    O   O6    0.536936  0.063927  0.492012  -0.583078
    O   O7    0.063927  0.463064  0.492012  -0.583000
    O   O8    0.463064  0.936073  0.492012  -0.583064
    O   O9    0.436073  0.963064  0.007988  -0.583211
    O   O10   0.036936  0.436073  0.007988  -0.583151
    O   O11   0.563927  0.036936  0.007988  -0.583151
    O   O12   0.963064  0.563927  0.007988  -0.583184
    O   O13   0.436073  0.036936  0.992012  -0.583065
    O   O14   0.036936  0.563927  0.992012  -0.583073
    O   O15   0.563927  0.963064  0.992012  -0.583124
    O   O16   0.963064  0.436073  0.992012  -0.583043
    C   C1    0.915011  0.500000  0.500000  0.604987
    C   C2    0.500000  0.915011  0.500000  0.604998
    C   C3    0.084989  0.500000  0.500000  0.605044
    C   C4    0.500000  0.084988  0.500000  0.605193
    C   C5    0.415011  0.000000  0.000000  0.605084
    C   C6    0.000000  0.415012  0.000000  0.605061
    C   C7    0.584988  0.000000  0.000000  0.605131
    C   C8    0.000000  0.584989  0.000000  0.605122
    O   O17   0.012506  0.463072  0.540930  -0.581847
    O   O18   0.536928  0.012506  0.540930  -0.581816
    O   O19   0.987494  0.536928  0.540930  -0.581814
    O   O20   0.463072  0.987494  0.540930  -0.581774
    O   O21   0.012506  0.536928  0.459070  -0.581830
    O   O22   0.536928  0.987494  0.459070  -0.581815
    O   O23   0.987494  0.463072  0.459070  -0.581827
    O   O24   0.463072  0.012506  0.459070  -0.581858
    O   O25   0.512506  0.963072  0.040930  -0.581865
    O   O26   0.036928  0.512506  0.040930  -0.581861
    O   O27   0.487494  0.036928  0.040930  -0.581872
    O   O28   0.963072  0.487494  0.040930  -0.581854
    O   O29   0.512506  0.036928  0.959070  -0.581883
    O   O30   0.036928  0.487494  0.959070  -0.581835
    O   O31   0.487494  0.963072  0.959070  -0.581882
    O   O32   0.963072  0.512506  0.959070  -0.581837
    C   C9    0.000000  0.500000  0.554447  0.824759
    C   C10   0.500000  0.000000  0.554447  0.824639
    C   C11   0.000000  0.500000  0.445553  0.824644
    C   C12   0.500000  0.000000  0.445553  0.824693
    C   C13   0.500000  0.000000  0.054447  0.824959
    C   C14   0.000000  0.500000  0.054447  0.824823
    C   C15   0.500000  0.000000  0.945553  0.824829
    C   C16   0.000000  0.500000  0.945553  0.824753
    Cu  Cu1   0.000000  0.456238  0.500000  0.984802
    Cu  Cu2   0.543762  0.000000  0.500000  0.984793
    Cu  Cu3   0.000000  0.543762  0.500000  0.984778
    Cu  Cu4   0.456238  0.000000  0.500000  0.984763
    Cu  Cu5   0.500000  0.956238  0.000000  0.984851
    Cu  Cu6   0.043762  0.500000  0.000000  0.984819
    Cu  Cu7   0.500000  0.043762  0.000000  0.984830
    Cu  Cu8   0.956238  0.500000  0.000000  0.984794
    C   C17   0.972692  0.528293  0.809392  0.406862
    C   C18   0.471707  0.972692  0.809392  0.407316
    C   C19   0.027308  0.471707  0.809392  0.406810
    C   C20   0.528293  0.027308  0.809392  0.407256
    C   C21   0.972692  0.471707  0.190608  0.407242
    C   C22   0.471707  0.027308  0.190608  0.407225
    C   C23   0.027308  0.528293  0.190608  0.407217
    C   C24   0.528293  0.972692  0.190608  0.407218
    C   C25   0.472692  0.028293  0.309392  0.407276
    C   C26   0.971707  0.472692  0.309392  0.406843
    C   C27   0.527308  0.971707  0.309392  0.407256
    C   C28   0.028293  0.527308  0.309392  0.406843
    C   C29   0.472692  0.971707  0.690608  0.407217
    C   C30   0.971707  0.527308  0.690608  0.407250
    C   C31   0.527308  0.028293  0.690608  0.407186
    C   C32   0.028293  0.472692  0.690608  0.407252
    N   N1    0.000000  0.500000  0.823781  -0.044109
    N   N2    0.500000  0.000000  0.823781  -0.044495
    N   N3    0.000000  0.500000  0.176219  -0.044345
    N   N4    0.500000  0.000000  0.176219  -0.044366
    N   N5    0.500000  0.000000  0.323781  -0.044485
    N   N6    0.000000  0.500000  0.323781  -0.044078
    N   N7    0.500000  0.000000  0.676219  -0.044338
    N   N8    0.000000  0.500000  0.676219  -0.044331
    C   C33   0.028009  0.471667  0.779700  -0.108898
    C   C34   0.528333  0.028009  0.779700  -0.109060
    C   C35   0.971991  0.528333  0.779700  -0.108983
    C   C36   0.471667  0.971991  0.779700  -0.108993
    C   C37   0.028009  0.528333  0.220300  -0.109093
    C   C38   0.528333  0.971991  0.220300  -0.109120
    C   C39   0.971991  0.471667  0.220300  -0.109001
    C   C40   0.471667  0.028009  0.220300  -0.109081
    C   C41   0.528009  0.971667  0.279700  -0.108894
    C   C42   0.028333  0.528009  0.279700  -0.109034
    C   C43   0.471991  0.028333  0.279700  -0.109110
    C   C44   0.971667  0.471991  0.279700  -0.108894
    C   C45   0.528009  0.028333  0.720300  -0.109100
    C   C46   0.028333  0.471991  0.720300  -0.109220
    C   C47   0.471991  0.971667  0.720300  -0.109095
    C   C48   0.971667  0.528009  0.720300  -0.109217
    C   C49   0.000000  0.500000  0.764813  0.083779
    C   C50   0.500000  0.000000  0.764813  0.083686
    C   C51   0.000000  0.500000  0.235187  0.083469
    C   C52   0.500000  0.000000  0.235187  0.083741
    C   C53   0.500000  0.000000  0.264813  0.083668
    C   C54   0.000000  0.500000  0.264814  0.083928
    C   C55   0.500000  0.000000  0.735187  0.083752
    C   C56   0.000000  0.500000  0.735187  0.083800
    C   C57   0.056350  0.443317  0.764794  -0.041112
    C   C58   0.556683  0.056350  0.764794  -0.040845
    C   C59   0.943650  0.556683  0.764794  -0.041082
    C   C60   0.443317  0.943650  0.764794  -0.041069
    C   C61   0.056350  0.556683  0.235206  -0.040781
    C   C62   0.556683  0.943650  0.235206  -0.040735
    C   C63   0.943650  0.443317  0.235206  -0.040901
    C   C64   0.443317  0.056350  0.235206  -0.040843
    C   C65   0.556350  0.943317  0.264794  -0.041105
    C   C66   0.056683  0.556350  0.264794  -0.040896
    C   C67   0.443650  0.056683  0.264794  -0.040832
    C   C68   0.943317  0.443650  0.264794  -0.041027
    C   C69   0.556350  0.056683  0.735206  -0.040840
    C   C70   0.056683  0.443650  0.735206  -0.040648
    C   C71   0.443650  0.943317  0.735206  -0.040731
    C   C72   0.943317  0.556350  0.735206  -0.040637
    O   O33   0.946803  0.557303  0.823997  -0.483202
    O   O34   0.442697  0.946803  0.823996  -0.483406
    O   O35   0.053197  0.442697  0.823997  -0.483224
    O   O36   0.557303  0.053197  0.823996  -0.483390
    O   O37   0.946803  0.442697  0.176004  -0.483409
    O   O38   0.442697  0.053197  0.176004  -0.483384
    O   O39   0.053197  0.557303  0.176004  -0.483382
    O   O40   0.557303  0.946803  0.176004  -0.483358
    O   O41   0.446803  0.057303  0.323996  -0.483367
    O   O42   0.942697  0.446803  0.323997  -0.483233
    O   O43   0.553197  0.942697  0.323996  -0.483425
    O   O44   0.057303  0.553197  0.323997  -0.483190
    O   O45   0.446803  0.942697  0.676004  -0.483385
    O   O46   0.942697  0.553197  0.676004  -0.483382
    O   O47   0.553197  0.057303  0.676004  -0.483348
    O   O48   0.057303  0.446803  0.676004  -0.483376
    H   H1    0.078741  0.420737  0.775917  0.129296
    H   H2    0.579263  0.078741  0.775917  0.129264
    H   H3    0.921259  0.579263  0.775917  0.129269
    H   H4    0.420737  0.921259  0.775917  0.129350
    H   H5    0.078741  0.579263  0.224083  0.129264
    H   H6    0.579263  0.921259  0.224083  0.129219
    H   H7    0.921259  0.420737  0.224083  0.129328
    H   H8    0.420737  0.078741  0.224083  0.129261
    H   H9    0.578741  0.920737  0.275917  0.129374
    H   H10   0.079263  0.578741  0.275917  0.129191
    H   H11   0.421259  0.079263  0.275917  0.129242
    H   H12   0.920737  0.421259  0.275917  0.129267
    H   H13   0.578741  0.079263  0.724083  0.129242
    H   H14   0.079263  0.421259  0.724083  0.129217
    H   H15   0.421259  0.920737  0.724083  0.129223
    H   H16   0.920737  0.578741  0.724083  0.129221
    O   O49   0.513156  0.563852  0.523535  -0.637789
    O   O50   0.436148  0.513156  0.523535  -0.637765
    O   O51   0.486844  0.436148  0.523535  -0.637770
    O   O52   0.563852  0.486844  0.523535  -0.637776
    O   O53   0.513156  0.436148  0.476465  -0.637732
    O   O54   0.436148  0.486844  0.476465  -0.637767
    O   O55   0.486844  0.563852  0.476465  -0.637743
    O   O56   0.563852  0.513156  0.476465  -0.637767
    O   O57   0.013156  0.063852  0.023535  -0.637749
    O   O58   0.936148  0.013156  0.023535  -0.637739
    O   O59   0.986844  0.936148  0.023535  -0.637760
    O   O60   0.063852  0.986844  0.023535  -0.637734
    O   O61   0.013156  0.936148  0.976465  -0.637725
    O   O62   0.936148  0.986844  0.976465  -0.637708
    O   O63   0.986844  0.063852  0.976465  -0.637719
    O   O64   0.063852  0.013156  0.976465  -0.637697
    C   C73   0.007710  0.539221  0.630585  -0.436514
    C   C74   0.460779  0.007710  0.630585  -0.436743
    C   C75   0.992290  0.460779  0.630585  -0.436549
    C   C76   0.539221  0.992290  0.630585  -0.436577
    C   C77   0.007710  0.460779  0.369416  -0.436571
    C   C78   0.460779  0.992290  0.369416  -0.436372
    C   C79   0.992290  0.539221  0.369416  -0.436401
    C   C80   0.539221  0.007710  0.369416  -0.436654
    C   C81   0.507710  0.039221  0.130585  -0.436839
    C   C82   0.960779  0.507710  0.130585  -0.436607
    C   C83   0.492290  0.960779  0.130585  -0.436710
    C   C84   0.039221  0.492290  0.130585  -0.436591
    C   C85   0.507710  0.960779  0.869416  -0.436274
    C   C86   0.960779  0.492290  0.869416  -0.436276
    C   C87   0.492290  0.039221  0.869416  -0.436409
    C   C88   0.039221  0.507710  0.869416  -0.436554
    H   H17   0.014561  0.570030  0.642015  0.209942
    H   H18   0.429970  0.014561  0.642015  0.209998
    H   H19   0.985439  0.429970  0.642015  0.209952
    H   H20   0.570030  0.985439  0.642014  0.209943
    H   H21   0.014561  0.429970  0.357986  0.209895
    H   H22   0.429970  0.985439  0.357986  0.209854
    H   H23   0.985439  0.570030  0.357986  0.209859
    H   H24   0.570030  0.014561  0.357985  0.209940
    H   H25   0.514561  0.070030  0.142015  0.210001
    H   H26   0.929970  0.514561  0.142015  0.209961
    H   H27   0.485439  0.929970  0.142015  0.209982
    H   H28   0.070030  0.485439  0.142015  0.209958
    H   H29   0.514561  0.929970  0.857986  0.209841
    H   H30   0.929970  0.485439  0.857985  0.209848
    H   H31   0.485439  0.070030  0.857986  0.209865
    H   H32   0.070030  0.514561  0.857986  0.209895
    C   C89   0.007329  0.539404  0.600983  0.584124
    C   C90   0.460596  0.007329  0.600983  0.584519
    C   C91   0.992671  0.460596  0.600983  0.584164
    C   C92   0.539404  0.992671  0.600983  0.584152
    C   C93   0.007329  0.460596  0.399017  0.584650
    C   C94   0.460596  0.992671  0.399017  0.584180
    C   C95   0.992671  0.539404  0.399017  0.584240
    C   C96   0.539404  0.007329  0.399017  0.584609
    C   C97   0.507329  0.039404  0.100983  0.584624
    C   C98   0.960596  0.507329  0.100983  0.584201
    C   C99   0.492671  0.960596  0.100983  0.584258
    C   C100  0.039404  0.492671  0.100983  0.584184
    C   C101  0.507329  0.960596  0.899017  0.584113
    C   C102  0.960596  0.492671  0.899017  0.584115
    C   C103  0.492671  0.039404  0.899017  0.584482
    C   C104  0.039404  0.507329  0.899017  0.584596
    C   C105  0.000000  0.500000  0.585959  -0.544546
    C   C106  0.500000  0.000000  0.585959  -0.544602
    C   C107  0.000000  0.500000  0.414041  -0.544691
    C   C108  0.500000  0.000000  0.414041  -0.544626
    C   C109  0.500000  0.000000  0.085959  -0.544830
    C   C110  0.000000  0.500000  0.085959  -0.544617
    C   C111  0.500000  0.000000  0.914041  -0.544622
    C   C112  0.000000  0.500000  0.914041  -0.544677
    C   C113  0.000000  0.500000  0.645540  0.259993
    C   C114  0.500000  0.000000  0.645540  0.260092
    C   C115  0.000000  0.500000  0.354460  0.259897
    C   C116  0.500000  0.000000  0.354460  0.259874
    C   C117  0.500000  0.000000  0.145540  0.260228
    C   C118  0.000000  0.500000  0.145540  0.260096
    C   C119  0.500000  0.000000  0.854460  0.259720
    C   C120  0.000000  0.500000  0.854460  0.259893
    C   C121  0.657334  0.532545  0.484992  0.375852
    C   C122  0.467455  0.657334  0.484992  0.375865
    C   C123  0.342666  0.467455  0.484992  0.375881
    C   C124  0.532545  0.342666  0.484992  0.375841
    C   C125  0.657334  0.467455  0.515008  0.375872
    C   C126  0.467455  0.342666  0.515008  0.375870
    C   C127  0.342666  0.532545  0.515008  0.375881
    C   C128  0.532545  0.657334  0.515008  0.375867
    C   C129  0.157334  0.032545  0.984992  0.375825
    C   C130  0.967455  0.157334  0.984992  0.375867
    C   C131  0.842666  0.967455  0.984992  0.375838
    C   C132  0.032545  0.842666  0.984992  0.375868
    C   C133  0.157334  0.967455  0.015008  0.375830
    C   C134  0.967455  0.842666  0.015008  0.375874
    C   C135  0.842666  0.032545  0.015008  0.375844
    C   C136  0.032545  0.157334  0.015008  0.375858
    C   C137  0.634054  0.500000  0.500000  -0.458932
    C   C138  0.500000  0.634054  0.500000  -0.458919
    C   C139  0.365946  0.500000  0.500000  -0.458960
    C   C140  0.500000  0.365946  0.500000  -0.458899
    C   C141  0.134054  0.000000  0.000000  -0.458871
    C   C142  0.000000  0.134054  0.000000  -0.458920
    C   C143  0.865946  0.000000  0.000000  -0.458867
    C   C144  0.000000  0.865946  0.000000  -0.458916
    C   C145  0.703674  0.467194  0.514749  -0.148392
    C   C146  0.532806  0.703674  0.514749  -0.148416
    C   C147  0.296326  0.532806  0.514749  -0.148393
    C   C148  0.467194  0.296326  0.514749  -0.148438
    C   C149  0.703674  0.532806  0.485251  -0.148397
    C   C150  0.532806  0.296326  0.485251  -0.148393
    C   C151  0.296326  0.467194  0.485251  -0.148433
    C   C152  0.467194  0.703674  0.485251  -0.148401
    C   C153  0.203674  0.967194  0.014749  -0.148368
    C   C154  0.032806  0.203674  0.014749  -0.148382
    C   C155  0.796326  0.032806  0.014749  -0.148393
    C   C156  0.967194  0.796326  0.014749  -0.148410
    C   C157  0.203674  0.032806  0.985251  -0.148383
    C   C158  0.032806  0.796326  0.985251  -0.148424
    C   C159  0.796326  0.967194  0.985251  -0.148401
    C   C160  0.967194  0.203674  0.985251  -0.148418
    C   C161  0.726805  0.500000  0.500000  0.173947
    C   C162  0.500000  0.726805  0.500000  0.173951
    C   C163  0.273195  0.500000  0.500000  0.173957
    C   C164  0.500000  0.273195  0.500000  0.173960
    C   C165  0.226805  0.000000  0.000000  0.173927
    C   C166  0.000000  0.226805  0.000000  0.173935
    C   C167  0.773195  0.000000  0.000000  0.173934
    C   C168  0.000000  0.773195  0.000000  0.173951
    C   C169  0.727017  0.434095  0.529171  -0.066896
    C   C170  0.565905  0.727017  0.529171  -0.066887
    C   C171  0.272983  0.565905  0.529171  -0.066887
    C   C172  0.434095  0.272983  0.529171  -0.066842
    C   C173  0.727017  0.565905  0.470829  -0.066884
    C   C174  0.565905  0.272983  0.470829  -0.066809
    C   C175  0.272983  0.434095  0.470829  -0.066834
    C   C176  0.434095  0.727017  0.470829  -0.066838
    C   C177  0.227017  0.934095  0.029171  -0.066898
    C   C178  0.065905  0.227017  0.029171  -0.066897
    C   C179  0.772983  0.065905  0.029171  -0.066870
    C   C180  0.934095  0.772983  0.029171  -0.066858
    C   C181  0.227017  0.065905  0.970829  -0.066862
    C   C182  0.065905  0.772983  0.970829  -0.066822
    C   C183  0.772983  0.934095  0.970829  -0.066823
    C   C184  0.934095  0.227017  0.970829  -0.066835
    C   C185  0.773197  0.433829  0.528814  -0.296128
    C   C186  0.566171  0.773197  0.528814  -0.296206
    C   C187  0.226803  0.566171  0.528814  -0.296137
    C   C188  0.433829  0.226803  0.528814  -0.296278
    C   C189  0.773197  0.566171  0.471186  -0.296146
    C   C190  0.566171  0.226803  0.471186  -0.296266
    C   C191  0.226803  0.433829  0.471186  -0.296212
    C   C192  0.433829  0.773197  0.471186  -0.296214
    C   C193  0.273197  0.933829  0.028814  -0.296131
    C   C194  0.066171  0.273197  0.028814  -0.296127
    C   C195  0.726803  0.066171  0.028814  -0.296145
    C   C196  0.933829  0.726803  0.028814  -0.296175
    C   C197  0.273197  0.066171  0.971186  -0.296166
    C   C198  0.066171  0.726803  0.971186  -0.296208
    C   C199  0.726803  0.933829  0.971186  -0.296231
    C   C200  0.933829  0.273197  0.971186  -0.296205
    C   C201  0.796300  0.466806  0.514277  0.280280
    C   C202  0.533194  0.796300  0.514277  0.280523
    C   C203  0.203700  0.533194  0.514277  0.280285
    C   C204  0.466806  0.203700  0.514277  0.280580
    C   C205  0.796300  0.533194  0.485723  0.280284
    C   C206  0.533194  0.203700  0.485723  0.280329
    C   C207  0.203700  0.466806  0.485723  0.280345
    C   C208  0.466806  0.796300  0.485723  0.280337
    C   C209  0.296300  0.966806  0.014277  0.280264
    C   C210  0.033194  0.296300  0.014277  0.280273
    C   C211  0.703700  0.033194  0.014277  0.280280
    C   C212  0.966806  0.703700  0.014277  0.280302
    C   C213  0.296300  0.033194  0.985723  0.280242
    C   C214  0.033194  0.703700  0.985723  0.280279
    C   C215  0.703700  0.966806  0.985723  0.280288
    C   C216  0.966806  0.296300  0.985723  0.280326
    C   C217  0.773119  0.500000  0.500000  -0.071620
    C   C218  0.500000  0.773119  0.500000  -0.071700
    C   C219  0.226881  0.500000  0.500000  -0.071638
    C   C220  0.500000  0.226881  0.500000  -0.071720
    C   C221  0.273119  0.000000  0.000000  -0.071594
    C   C222  0.000000  0.273119  0.000000  -0.071615
    C   C223  0.726881  0.000000  0.000000  -0.071607
    C   C224  0.000000  0.726881  0.000000  -0.071618
    C   C225  0.842567  0.466525  0.514067  -0.340307
    C   C226  0.533475  0.842567  0.514066  -0.340545
    C   C227  0.157433  0.533475  0.514067  -0.340284
    C   C228  0.466525  0.157433  0.514066  -0.340492
    C   C229  0.842567  0.533475  0.485934  -0.340269
    C   C230  0.533475  0.157433  0.485934  -0.340049
    C   C231  0.157433  0.466525  0.485934  -0.340296
    C   C232  0.466525  0.842567  0.485934  -0.340216
    C   C233  0.342567  0.966525  0.014067  -0.340284
    C   C234  0.033475  0.342567  0.014067  -0.340278
    C   C235  0.657433  0.033475  0.014067  -0.340293
    C   C236  0.966525  0.657433  0.014067  -0.340288
    C   C237  0.342567  0.033475  0.985934  -0.340165
    C   C238  0.033475  0.657433  0.985934  -0.340174
    C   C239  0.657433  0.966525  0.985934  -0.340145
    C   C240  0.966525  0.342567  0.985934  -0.340267
    C   C241  0.865894  0.500000  0.500000  0.118930
    C   C242  0.500000  0.865894  0.500000  0.118947
    C   C243  0.134106  0.500000  0.500000  0.118871
    C   C244  0.500000  0.134106  0.500000  0.118645
    C   C245  0.365894  0.000000  0.000000  0.118828
    C   C246  0.000000  0.365894  0.000000  0.118820
    C   C247  0.634106  0.000000  0.000000  0.118738
    C   C248  0.000000  0.634106  0.000000  0.118799
    H   H33   0.709553  0.408047  0.540796  0.121364
    H   H34   0.591953  0.709553  0.540796  0.121371
    H   H35   0.290447  0.591953  0.540796  0.121360
    H   H36   0.408047  0.290447  0.540796  0.121364
    H   H37   0.709553  0.591953  0.459204  0.121359
    H   H38   0.591953  0.290447  0.459204  0.121339
    H   H39   0.290447  0.408047  0.459204  0.121345
    H   H40   0.408047  0.709553  0.459204  0.121349
    H   H41   0.209553  0.908047  0.040796  0.121368
    H   H42   0.091953  0.209553  0.040796  0.121365
    H   H43   0.790447  0.091953  0.040796  0.121359
    H   H44   0.908047  0.790447  0.040796  0.121355
    H   H45   0.209553  0.091953  0.959204  0.121347
    H   H46   0.091953  0.790447  0.959204  0.121333
    H   H47   0.790447  0.908047  0.959204  0.121337
    H   H48   0.908047  0.209553  0.959204  0.121342
    H   H49   0.791135  0.407715  0.540098  0.158375
    H   H50   0.592285  0.791135  0.540098  0.158384
    H   H51   0.208865  0.592285  0.540098  0.158376
    H   H52   0.407715  0.208865  0.540098  0.158401
    H   H53   0.791135  0.592285  0.459902  0.158380
    H   H54   0.592285  0.208865  0.459902  0.158414
    H   H55   0.208865  0.407715  0.459902  0.158394
    H   H56   0.407715  0.791135  0.459902  0.158393
    H   H57   0.291135  0.907715  0.040098  0.158373
    H   H58   0.092285  0.291135  0.040098  0.158372
    H   H59   0.708865  0.092285  0.040098  0.158372
    H   H60   0.907715  0.708865  0.040098  0.158384
    H   H61   0.291135  0.092285  0.959902  0.158392
    H   H62   0.092285  0.708865  0.959902  0.158401
    H   H63   0.708865  0.907715  0.959902  0.158409
    H   H64   0.907715  0.291135  0.959902  0.158392
    H   H65   0.860287  0.440315  0.525382  0.176049
    H   H66   0.559685  0.860287  0.525382  0.176060
    H   H67   0.139713  0.559685  0.525382  0.176043
    H   H68   0.440315  0.139713  0.525382  0.176052
    H   H69   0.860287  0.559685  0.474618  0.175957
    H   H70   0.559685  0.139713  0.474618  0.175895
    H   H71   0.139713  0.440315  0.474618  0.175973
    H   H72   0.440315  0.860287  0.474618  0.175948
    H   H73   0.360287  0.940315  0.025382  0.176059
    H   H74   0.059685  0.360287  0.025382  0.176045
    H   H75   0.639713  0.059685  0.025382  0.176071
    H   H76   0.940315  0.639713  0.025382  0.176054
    H   H77   0.360287  0.059685  0.974618  0.175933
    H   H78   0.059685  0.639713  0.974618  0.175937
    H   H79   0.639713  0.940315  0.974618  0.175923
    H   H80   0.940315  0.360287  0.974618  0.175963
    C   C249  0.500000  0.584922  0.500000  0.945312
    C   C250  0.415078  0.500000  0.500000  0.945321
    C   C251  0.500000  0.415078  0.500000  0.945275
    C   C252  0.584922  0.500000  0.500000  0.945330
    C   C253  0.000000  0.084922  0.000000  0.945262
    C   C254  0.915078  0.000000  0.000000  0.945189
    C   C255  0.000000  0.915078  0.000000  0.945225
    C   C256  0.084922  0.000000  0.000000  0.945226
    Cu  Cu9   0.500000  0.500000  0.527934  0.965334
    Cu  Cu10  0.500000  0.500000  0.472067  0.965149
    Cu  Cu11  0.000000  0.000000  0.027934  0.965315
    Cu  Cu12  0.000000  0.000000  0.972067  0.965139
    F   F1    0.015920  0.578308  0.586964  -0.222716
    F   F2    0.421693  0.015920  0.586964  -0.222942
    F   F3    0.984080  0.421692  0.586964  -0.222725
    F   F4    0.578308  0.984080  0.586964  -0.222703
    F   F5    0.015920  0.421693  0.413036  -0.222927
    F   F6    0.421692  0.984080  0.413036  -0.222685
    F   F7    0.984080  0.578308  0.413036  -0.222693
    F   F8    0.578307  0.015920  0.413036  -0.222917
    F   F9    0.515920  0.078307  0.086964  -0.222947
    F   F10   0.921692  0.515920  0.086964  -0.222729
    F   F11   0.484080  0.921692  0.086964  -0.222734
    F   F12   0.078308  0.484080  0.086964  -0.222724
    F   F13   0.515920  0.921692  0.913036  -0.222671
    F   F14   0.921692  0.484080  0.913036  -0.222695
    F   F15   0.484080  0.078307  0.913036  -0.222888
    F   F16   0.078307  0.515920  0.913036  -0.222907
    F   F17   0.634745  0.565324  0.470913  -0.175311
    F   F18   0.434676  0.634745  0.470913  -0.175326
    F   F19   0.365255  0.434676  0.470913  -0.175304
    F   F20   0.565324  0.365255  0.470913  -0.175322
    F   F21   0.634745  0.434676  0.529087  -0.175320
    F   F22   0.434676  0.365255  0.529087  -0.175319
    F   F23   0.365255  0.565324  0.529087  -0.175321
    F   F24   0.565324  0.634745  0.529087  -0.175311
    F   F25   0.134745  0.065324  0.970913  -0.175313
    F   F26   0.934676  0.134745  0.970913  -0.175310
    F   F27   0.865255  0.934676  0.970913  -0.175308
    F   F28   0.065324  0.865255  0.970913  -0.175304
    F   F29   0.134745  0.934676  0.029087  -0.175314
    F   F30   0.934676  0.865255  0.029087  -0.175306
    F   F31   0.865255  0.065324  0.029087  -0.175314
    F   F32   0.065324  0.134745  0.029087  -0.175312
