# Generated by REPEAT Assigner based on pymatgen
data_DB0-m2_o2_o23_f0_nbo.sym.66
_audit_creation_date              2022-05-24
_audit_creation_method            REPEAT_Assigner
_cell_length_a                    43.514955
_cell_length_b                    30.082187
_cell_length_c                    29.855478
_cell_angle_alpha                 90.000000
_cell_angle_beta                  133.008711
_cell_angle_gamma                 90.000000
_cell_volume                      28578.396593
_symmetry_space_group_name_H-M    P1
_symmetry_Int_Tables_number       1
loop_
    _symmetry_equiv_pos_site_id
    _symmetry_equiv_pos_as_xyz
    1  x,y,z
loop_
    _atom_site_type_symbol
    _atom_site_label
    _atom_site_fract_x
    _atom_site_fract_y
    _atom_site_fract_z
    _atom_type_partial_charge
    O   O1    0.488289  0.963302  0.552184  -0.615545
    O   O2    0.511711  0.963302  0.447816  -0.615544
    O   O3    0.988289  0.463302  0.552184  -0.615495
    O   O4    0.011711  0.463302  0.447816  -0.615539
    O   O5    0.511814  0.036523  0.575574  -0.563412
    O   O6    0.488186  0.036523  0.424425  -0.563405
    O   O7    0.011814  0.536523  0.575574  -0.563487
    O   O8    0.988186  0.536523  0.424425  -0.563506
    C   C1    0.500084  0.999913  0.584778  0.626592
    C   C2    0.499916  0.999913  0.415222  0.626565
    C   C3    0.000084  0.499913  0.584778  0.626582
    C   C4    0.999916  0.499913  0.415222  0.626612
    O   O9    0.440043  0.963280  0.427932  -0.609502
    O   O10   0.559956  0.963280  0.572068  -0.609489
    O   O11   0.940043  0.463280  0.427932  -0.609493
    O   O12   0.059956  0.463280  0.572068  -0.609492
    O   O13   0.440059  0.036539  0.452995  -0.596799
    O   O14   0.559941  0.036539  0.547005  -0.596769
    O   O15   0.940059  0.536539  0.452995  -0.596843
    O   O16   0.059941  0.536539  0.547005  -0.596841
    C   C5    0.420276  0.999900  0.420811  0.799651
    C   C6    0.579724  0.999900  0.579189  0.799586
    C   C7    0.920276  0.499900  0.420811  0.799729
    C   C8    0.079724  0.499900  0.579189  0.799681
    Cu  Cu1   0.500000  0.956513  0.500000  1.004954
    Cu  Cu2   0.000000  0.456513  0.500000  1.005080
    Cu  Cu3   0.500000  0.043301  0.500000  0.953873
    Cu  Cu4   0.000000  0.543301  0.500000  0.953787
    C   C9    0.274075  0.964072  0.305554  -0.181424
    C   C10   0.725925  0.964072  0.694445  -0.181459
    C   C11   0.774075  0.464072  0.305554  -0.181392
    C   C12   0.225925  0.464072  0.694445  -0.181284
    C   C13   0.274236  0.044626  0.292766  0.019197
    C   C14   0.725764  0.044626  0.707233  0.019118
    C   C15   0.774236  0.544626  0.292766  0.019283
    C   C16   0.225764  0.544626  0.707233  0.017868
    C   C17   0.226577  0.046438  0.241594  -0.187192
    C   C18   0.773423  0.046438  0.758406  -0.187215
    C   C19   0.726577  0.546438  0.241594  -0.187178
    C   C20   0.273423  0.546438  0.758406  -0.187006
    H   H1    0.215410  0.973593  0.282259  0.024017
    H   H2    0.784590  0.973593  0.717741  0.024021
    H   H3    0.715410  0.473593  0.282259  0.024021
    H   H4    0.284590  0.473593  0.717741  0.024040
    H   H5    0.286340  0.968814  0.352182  0.030608
    H   H6    0.713660  0.968814  0.647817  0.030620
    H   H7    0.786340  0.468814  0.352182  0.030610
    H   H8    0.213660  0.468814  0.647817  0.030605
    H   H9    0.281276  0.045030  0.336088  -0.025211
    H   H10   0.718724  0.045030  0.663912  -0.025182
    H   H11   0.781276  0.545030  0.336088  -0.025186
    H   H12   0.218724  0.545030  0.663912  -0.024894
    H   H13   0.213336  0.054395  0.261829  0.033702
    H   H14   0.786664  0.054395  0.738171  0.033718
    H   H15   0.713336  0.554395  0.261829  0.033699
    H   H16   0.286664  0.554395  0.738171  0.033730
    H   H17   0.215734  0.072263  0.207110  0.022961
    H   H18   0.784266  0.072263  0.792890  0.022969
    H   H19   0.715734  0.572263  0.207110  0.022926
    H   H20   0.284266  0.572263  0.792890  0.022908
    C   C21   0.126223  0.001628  0.126224  -0.216736
    C   C22   0.873777  0.001628  0.873776  -0.216816
    C   C23   0.626223  0.501628  0.126224  -0.216757
    C   C24   0.373777  0.501628  0.873776  -0.216730
    C   C25   0.290593  0.000228  0.291290  0.809463
    C   C26   0.709407  0.000228  0.708710  0.809501
    C   C27   0.790593  0.500228  0.291290  0.809211
    C   C28   0.209407  0.500228  0.708710  0.809699
    C   C29   0.226318  0.965816  0.258711  -0.148259
    C   C30   0.773682  0.965816  0.741289  -0.148233
    C   C31   0.726318  0.465816  0.258711  -0.148287
    C   C32   0.273682  0.465816  0.741289  -0.148353
    C   C33   0.210536  0.001283  0.210837  0.610053
    C   C34   0.789463  0.001283  0.789163  0.610047
    C   C35   0.710536  0.501283  0.210837  0.610072
    C   C36   0.289463  0.501283  0.789163  0.610303
    C   C37   0.226946  0.991524  0.180480  -0.060117
    C   C38   0.773054  0.991524  0.819520  -0.060146
    C   C39   0.726946  0.491524  0.180480  -0.060147
    C   C40   0.273054  0.491524  0.819520  -0.060069
    C   C41   0.274618  0.989999  0.228544  -0.159377
    C   C42   0.725382  0.989999  0.771455  -0.159361
    C   C43   0.774618  0.489999  0.228544  -0.159287
    C   C44   0.225382  0.489999  0.771455  -0.159421
    C   C45   0.164263  0.001436  0.164396  -0.312648
    C   C46   0.835737  0.001436  0.835604  -0.312595
    C   C47   0.664263  0.501436  0.164396  -0.312638
    C   C48   0.335737  0.501436  0.835604  -0.312786
    C   C49   0.336869  0.999909  0.337617  -0.444243
    C   C50   0.663131  0.999909  0.662383  -0.444274
    C   C51   0.836869  0.499909  0.337617  -0.444090
    C   C52   0.163131  0.499909  0.662383  -0.444292
    C   C53   0.374904  0.999871  0.375604  -0.129658
    C   C54   0.625096  0.999871  0.624396  -0.129613
    C   C55   0.874904  0.499871  0.375604  -0.129739
    C   C56   0.125096  0.499871  0.624396  -0.129650
    H   H21   0.284883  0.956091  0.229167  0.010768
    H   H22   0.715117  0.956091  0.770833  0.010763
    H   H23   0.784883  0.456091  0.229167  0.010764
    H   H24   0.215117  0.456091  0.770833  0.010771
    H   H25   0.287959  0.013176  0.216852  0.017704
    H   H26   0.712041  0.013176  0.783148  0.017699
    H   H27   0.787959  0.513176  0.216852  0.017674
    H   H28   0.212041  0.513176  0.783148  0.017700
    H   H29   0.214651  0.958979  0.156760  0.014114
    H   H30   0.785349  0.958979  0.843240  0.014125
    H   H31   0.714651  0.458979  0.156760  0.014113
    H   H32   0.285349  0.458979  0.843240  0.014091
    H   H33   0.284453  0.931065  0.303599  0.035849
    H   H34   0.715546  0.931065  0.696401  0.035844
    H   H35   0.784453  0.431065  0.303599  0.035855
    H   H36   0.215546  0.431065  0.696401  0.035781
    H   H37   0.213618  0.932968  0.236050  0.039842
    H   H38   0.786382  0.932968  0.763950  0.039839
    H   H39   0.713618  0.432968  0.236050  0.039850
    H   H40   0.286382  0.432968  0.763950  0.039847
    H   H41   0.216244  0.017721  0.146353  0.003310
    H   H42   0.783755  0.017721  0.853646  0.003323
    H   H43   0.716244  0.517721  0.146353  0.003330
    H   H44   0.283755  0.517721  0.853646  0.003309
    C   C57   0.515143  0.036655  0.717471  -0.104049
    C   C58   0.484857  0.036655  0.282529  -0.104061
    C   C59   0.015143  0.536655  0.717471  -0.104044
    C   C60   0.984857  0.536655  0.282529  -0.104042
    H   H45   0.526182  0.065846  0.745952  0.097047
    H   H46   0.473818  0.065846  0.254048  0.097051
    H   H47   0.026182  0.565846  0.745952  0.097052
    H   H48   0.973818  0.565846  0.254048  0.097052
    C   C61   0.514968  0.036588  0.671308  -0.136946
    C   C62   0.485031  0.036588  0.328692  -0.136943
    C   C63   0.014968  0.536588  0.671308  -0.136972
    C   C64   0.985031  0.536588  0.328692  -0.137000
    H   H49   0.526590  0.065531  0.665388  0.129179
    H   H50   0.473410  0.065531  0.334612  0.129183
    H   H51   0.026590  0.565531  0.665388  0.129184
    H   H52   0.973410  0.565531  0.334612  0.129215
    C   C65   0.500164  0.999985  0.633606  0.017006
    C   C66   0.499835  0.999985  0.366394  0.017032
    C   C67   0.000164  0.499985  0.633606  0.017045
    C   C68   0.999835  0.499985  0.366394  0.017052
    C   C69   0.485430  0.963527  0.642218  -0.102616
    C   C70   0.514570  0.963527  0.357782  -0.102631
    C   C71   0.985430  0.463527  0.642218  -0.102633
    C   C72   0.014570  0.463527  0.357782  -0.102635
    H   H53   0.473772  0.934488  0.613344  0.125947
    H   H54   0.526228  0.934488  0.386656  0.125948
    H   H55   0.973772  0.434488  0.613344  0.125953
    H   H56   0.026228  0.434488  0.386656  0.125954
    C   C73   0.485334  0.963795  0.688128  -0.134153
    C   C74   0.514666  0.963795  0.311872  -0.134151
    C   C75   0.985334  0.463795  0.688128  -0.134134
    C   C76   0.014666  0.463795  0.311872  -0.134135
    H   H57   0.474287  0.934757  0.694903  0.108702
    H   H58   0.525712  0.934757  0.305097  0.108711
    H   H59   0.974287  0.434757  0.694903  0.108701
    H   H60   0.025712  0.434757  0.305097  0.108703
    C   C77   0.500252  0.000318  0.725924  0.065365
    C   C78   0.499748  0.000318  0.274076  0.065354
    C   C79   0.000252  0.500318  0.725924  0.065364
    C   C80   0.999748  0.500318  0.274076  0.065348
    C   C81   0.465870  0.984683  0.763692  -0.128152
    C   C82   0.534130  0.984683  0.236308  -0.128159
    C   C83   0.965870  0.484683  0.763692  -0.128130
    C   C84   0.034130  0.484683  0.236308  -0.128121
    H   H61   0.438471  0.972617  0.718863  0.106960
    H   H62   0.561528  0.972617  0.281137  0.106963
    H   H63   0.938471  0.472617  0.718863  0.106958
    H   H64   0.061528  0.472617  0.281137  0.106959
    C   C85   0.465692  0.985205  0.809510  -0.109605
    C   C86   0.534308  0.985205  0.190490  -0.109624
    C   C87   0.965692  0.485205  0.809510  -0.109650
    C   C88   0.034308  0.485205  0.190490  -0.109668
    H   H65   0.438356  0.972774  0.799755  0.117412
    H   H66   0.561644  0.972774  0.200245  0.117425
    H   H67   0.938356  0.472774  0.799755  0.117424
    H   H68   0.061644  0.472774  0.200245  0.117431
    C   C89   0.500051  0.001345  0.866733  -0.035214
    C   C90   0.499948  0.001345  0.133267  -0.035167
    C   C91   0.000051  0.501345  0.866733  -0.035171
    C   C92   0.999948  0.501345  0.133267  -0.035153
    C   C93   0.534502  0.017085  0.877802  -0.097491
    C   C94   0.465498  0.017085  0.122198  -0.097535
    C   C95   0.034502  0.517085  0.877802  -0.097514
    C   C96   0.965498  0.517085  0.122198  -0.097536
    H   H69   0.561780  0.029775  0.922254  0.126897
    H   H70   0.438220  0.029775  0.077745  0.126914
    H   H71   0.061780  0.529775  0.922254  0.126905
    H   H72   0.938220  0.529775  0.077745  0.126915
    C   C97   0.534489  0.016845  0.831792  -0.138060
    C   C98   0.465511  0.016845  0.168208  -0.138023
    C   C99   0.034489  0.516845  0.831792  -0.138047
    C   C100  0.965511  0.516845  0.168208  -0.138022
    H   H73   0.561945  0.028644  0.841415  0.105693
    H   H74   0.438055  0.028644  0.158585  0.105680
    H   H75   0.061945  0.528644  0.841415  0.105694
    H   H76   0.938055  0.528644  0.158585  0.105676
    C   C101  0.500219  0.000579  0.774671  0.090633
    C   C102  0.499781  0.000579  0.225329  0.090634
    C   C103  0.000219  0.500579  0.774671  0.090615
    C   C104  0.999781  0.500579  0.225329  0.090618
    O   O17   0.998456  0.937067  0.037090  -0.583892
    O   O18   0.001544  0.937067  0.962909  -0.583934
    O   O19   0.498456  0.437067  0.037090  -0.583939
    O   O20   0.501544  0.437067  0.962909  -0.583991
    C   C105  0.000000  0.916263  0.000000  0.666577
    C   C106  0.500000  0.416263  0.000000  0.666652
    O   O21   0.060833  0.000513  0.099247  -0.622881
    O   O22   0.939167  0.000513  0.900753  -0.622914
    O   O23   0.560833  0.500513  0.099247  -0.622885
    O   O24   0.439167  0.500513  0.900753  -0.622944
    O   O25   0.061415  0.999561  0.022676  -0.640136
    O   O26   0.938585  0.999561  0.977324  -0.640148
    O   O27   0.561415  0.499561  0.022676  -0.640172
    O   O28   0.438585  0.499561  0.977324  -0.640165
    C   C107  0.080833  0.002002  0.080695  0.874858
    C   C108  0.919167  0.002002  0.919305  0.874959
    C   C109  0.580833  0.502002  0.080695  0.874894
    C   C110  0.419167  0.502002  0.919305  0.874960
    Cu  Cu5   0.999678  0.001703  0.044300  0.998342
    Cu  Cu6   0.000322  0.001703  0.955700  0.998387
    Cu  Cu7   0.499678  0.501703  0.044300  0.998493
    Cu  Cu8   0.500322  0.501703  0.955700  0.998345
    O   O29   0.997529  0.066296  0.036021  -0.614580
    O   O30   0.002471  0.066296  0.963979  -0.614603
    O   O31   0.497529  0.566296  0.036021  -0.614601
    O   O32   0.502471  0.566296  0.963979  -0.614635
    C   C111  0.000000  0.087139  0.000000  0.628748
    C   C112  0.500000  0.587139  0.000000  0.628826
    O   O33   0.465489  0.065020  0.952785  -0.588636
    O   O34   0.534511  0.065020  0.047215  -0.588639
    O   O35   0.965489  0.565020  0.952785  -0.588610
    O   O36   0.034511  0.565020  0.047215  -0.588602
    C   C113  0.500000  0.085892  0.000000  0.668988
    C   C114  0.000000  0.585892  0.000000  0.668912
    O   O37   0.465469  0.988871  0.901977  -0.581646
    O   O38   0.534531  0.988871  0.098023  -0.581655
    O   O39   0.965469  0.488871  0.901977  -0.581656
    O   O40   0.034531  0.488871  0.098023  -0.581644
    O   O41   0.534488  0.014562  0.970564  -0.608712
    O   O42   0.465512  0.014562  0.029436  -0.608704
    O   O43   0.034488  0.514562  0.970564  -0.608685
    O   O44   0.965512  0.514562  0.029436  -0.608697
    C   C115  0.499993  0.001639  0.915421  0.683408
    C   C116  0.500007  0.001639  0.084579  0.683386
    C   C117  0.999993  0.501639  0.915421  0.683376
    C   C118  0.000007  0.501639  0.084579  0.683386
    Cu  Cu9   0.459045  0.001731  0.959313  0.949340
    Cu  Cu10  0.540955  0.001731  0.040687  0.949461
    Cu  Cu11  0.959045  0.501731  0.959313  0.949275
    Cu  Cu12  0.040955  0.501731  0.040687  0.949525
    O   O45   0.465510  0.938442  0.978665  -0.599717
    O   O46   0.534490  0.938442  0.021335  -0.599709
    O   O47   0.965510  0.438442  0.978665  -0.599719
    O   O48   0.034490  0.438442  0.021335  -0.599682
    C   C119  0.500000  0.917565  0.000000  0.681554
    C   C120  0.000000  0.417565  0.000000  0.681486
    C   C121  0.992567  0.798582  0.953460  -0.138115
    C   C122  0.007433  0.798582  0.046540  -0.138097
    C   C123  0.492567  0.298582  0.953460  -0.138113
    C   C124  0.507433  0.298582  0.046540  -0.138101
    H   H77   0.987292  0.781043  0.917130  0.112661
    H   H78   0.012708  0.781043  0.082870  0.112660
    H   H79   0.487292  0.281043  0.917130  0.112656
    H   H80   0.512708  0.281043  0.082870  0.112654
    C   C125  0.992997  0.844399  0.953769  -0.103610
    C   C126  0.007003  0.844399  0.046231  -0.103621
    C   C127  0.492997  0.344399  0.953769  -0.103594
    C   C128  0.507003  0.344399  0.046231  -0.103607
    H   H81   0.987329  0.861736  0.917022  0.117304
    H   H82   0.012670  0.861736  0.082978  0.117301
    H   H83   0.487329  0.361736  0.917022  0.117305
    H   H84   0.512670  0.361736  0.082978  0.117301
    C   C129  0.000000  0.867561  0.000000  -0.015507
    C   C130  0.500000  0.367561  0.000000  -0.015547
    C   C131  0.000000  0.775432  0.000000  0.073718
    C   C132  0.500000  0.275432  0.000000  0.073706
    C   C133  0.531108  0.203559  0.053205  -0.141284
    C   C134  0.468892  0.203559  0.946795  -0.141282
    C   C135  0.031108  0.703559  0.053205  -0.141278
    C   C136  0.968892  0.703559  0.946795  -0.141271
    H   H85   0.556044  0.221098  0.095072  0.108542
    H   H86   0.443956  0.221098  0.904928  0.108541
    H   H87   0.056044  0.721098  0.095072  0.108540
    H   H88   0.943956  0.721098  0.904928  0.108540
    C   C137  0.531375  0.157742  0.053090  -0.109785
    C   C138  0.468624  0.157742  0.946910  -0.109771
    C   C139  0.031375  0.657742  0.053090  -0.109788
    C   C140  0.968624  0.657742  0.946910  -0.109786
    H   H89   0.556175  0.140399  0.095227  0.121659
    H   H90   0.443825  0.140399  0.904773  0.121655
    H   H91   0.056175  0.640399  0.095227  0.121659
    H   H92   0.943825  0.640399  0.904773  0.121654
    C   C141  0.500000  0.134586  0.000000  -0.021602
    C   C142  0.000000  0.634586  0.000000  -0.021571
    C   C143  0.500000  0.226708  0.000000  0.102515
    C   C144  0.000000  0.726708  0.000000  0.102493
    C   C145  0.009786  0.204822  0.971172  -0.124125
    C   C146  0.990214  0.204822  0.028827  -0.124110
    C   C147  0.509786  0.704822  0.971172  -0.124137
    C   C148  0.490214  0.704822  0.028827  -0.124123
    H   H93   0.016884  0.222323  0.947538  0.116267
    H   H94   0.983116  0.222323  0.052462  0.116260
    H   H95   0.516884  0.722323  0.947538  0.116273
    H   H96   0.483116  0.722323  0.052462  0.116261
    C   C149  0.009438  0.159008  0.970700  -0.148084
    C   C150  0.990562  0.159008  0.029300  -0.148096
    C   C151  0.509438  0.659008  0.970700  -0.148060
    C   C152  0.490562  0.659008  0.029300  -0.148068
    H   H97   0.016985  0.141696  0.947534  0.138192
    H   H98   0.983015  0.141696  0.052466  0.138200
    H   H99   0.516985  0.641696  0.947534  0.138187
    H   H100  0.483015  0.641696  0.052466  0.138190
    C   C153  0.000000  0.135842  0.000000  0.054328
    C   C154  0.500000  0.635842  0.000000  0.054273
    C   C155  0.000000  0.227986  0.000000  0.054574
    C   C156  0.500000  0.727986  0.000000  0.054578
    C   C157  0.467981  0.799889  0.988923  -0.142479
    C   C158  0.532019  0.799889  0.011077  -0.142496
    C   C159  0.967981  0.299889  0.988923  -0.142486
    C   C160  0.032019  0.299889  0.011077  -0.142498
    H   H101  0.442303  0.782389  0.979213  0.114576
    H   H102  0.557697  0.782389  0.020786  0.114573
    H   H103  0.942303  0.282389  0.979213  0.114578
    H   H104  0.057697  0.282389  0.020786  0.114576
    C   C161  0.467768  0.845703  0.988388  -0.112633
    C   C162  0.532231  0.845703  0.011612  -0.112537
    C   C163  0.967768  0.345703  0.988388  -0.112649
    C   C164  0.032231  0.345703  0.011612  -0.112558
    H   H105  0.442243  0.863014  0.979296  0.129210
    H   H106  0.557757  0.863014  0.020704  0.129163
    H   H107  0.942243  0.363014  0.979296  0.129219
    H   H108  0.057757  0.363014  0.020704  0.129167
    C   C165  0.500000  0.868867  0.000000  -0.025775
    C   C166  0.000000  0.368867  0.000000  -0.025741
    C   C167  0.500000  0.776725  0.000000  0.095682
    C   C168  0.000000  0.276725  0.000000  0.095693
    C   C169  0.296092  0.084261  0.294364  0.003877
    C   C170  0.325785  0.106396  0.349299  -0.034871
    C   C171  0.346962  0.142467  0.353109  -0.373148
    C   C172  0.338732  0.157424  0.302228  0.490932
    O   O49   0.360379  0.192865  0.308300  -0.345783
    C   C173  0.355125  0.210814  0.261171  0.039774
    C   C174  0.308637  0.135790  0.246814  -0.251540
    C   C175  0.287515  0.099612  0.243038  -0.218930
    H   H109  0.333299  0.095316  0.390259  0.109046
    H   H110  0.370355  0.159151  0.396521  0.151891
    H   H111  0.376783  0.239421  0.278744  0.080241
    H   H112  0.322387  0.222847  0.224578  0.017582
    H   H113  0.362731  0.185673  0.242782  0.040467
    H   H114  0.300784  0.146333  0.205471  0.125971
    H   H115  0.263966  0.083973  0.198988  0.146786
    C   C176  0.703908  0.084261  0.705636  0.003930
    C   C177  0.674215  0.106396  0.650701  -0.034894
    C   C178  0.653038  0.142467  0.646891  -0.373122
    C   C179  0.661268  0.157424  0.697772  0.490893
    O   O50   0.639621  0.192865  0.691700  -0.345765
    C   C180  0.644875  0.210814  0.738829  0.039778
    C   C181  0.691363  0.135790  0.753186  -0.251492
    C   C182  0.712485  0.099612  0.756962  -0.218979
    H   H116  0.666701  0.095316  0.609741  0.109043
    H   H117  0.629645  0.159151  0.603479  0.151883
    H   H118  0.623217  0.239421  0.721256  0.080236
    H   H119  0.677613  0.222847  0.775422  0.017581
    H   H120  0.637268  0.185673  0.757218  0.040461
    H   H121  0.699216  0.146333  0.794529  0.125963
    H   H122  0.736034  0.083973  0.801011  0.146797
    C   C183  0.796092  0.584261  0.294364  0.003626
    C   C184  0.825785  0.606396  0.349299  -0.034904
    C   C185  0.846962  0.642467  0.353109  -0.372956
    C   C186  0.838732  0.657424  0.302228  0.490898
    O   O51   0.860379  0.692865  0.308300  -0.345654
    C   C187  0.855125  0.710814  0.261171  0.039303
    C   C188  0.808637  0.635790  0.246814  -0.251982
    C   C189  0.787515  0.599612  0.243038  -0.218340
    H   H123  0.833299  0.595316  0.390259  0.109050
    H   H124  0.870355  0.659151  0.396521  0.151823
    H   H125  0.876783  0.739421  0.278744  0.080369
    H   H126  0.822387  0.722847  0.224578  0.017737
    H   H127  0.862731  0.685673  0.242782  0.040576
    H   H128  0.800784  0.646333  0.205471  0.126065
    H   H129  0.763966  0.583973  0.198988  0.146658
    C   C190  0.203908  0.584261  0.705636  0.004710
    C   C191  0.174215  0.606396  0.650701  -0.034995
    C   C192  0.153038  0.642467  0.646891  -0.373175
    C   C193  0.161268  0.657424  0.697772  0.490882
    O   O52   0.139621  0.692865  0.691700  -0.345770
    C   C194  0.144875  0.710814  0.738829  0.039798
    C   C195  0.191363  0.635790  0.753186  -0.251575
    C   C196  0.212485  0.599612  0.756962  -0.219074
    H   H130  0.166701  0.595316  0.609741  0.109036
    H   H131  0.129645  0.659151  0.603479  0.151906
    H   H132  0.123217  0.739421  0.721256  0.080232
    H   H133  0.177613  0.722847  0.775422  0.017580
    H   H134  0.137268  0.685673  0.757218  0.040464
    H   H135  0.199216  0.646333  0.794529  0.125980
    H   H136  0.236034  0.583973  0.801011  0.146828
