# Generated by REPEAT Assigner based on pymatgen
data_DB0-m29_o83_o500_f0_pts.sym.14
_audit_creation_date              2022-05-24
_audit_creation_method            REPEAT_Assigner
_cell_length_a                    15.913782
_cell_length_b                    12.854746
_cell_length_c                    13.225202
_cell_angle_alpha                 110.895077
_cell_angle_beta                  88.184860
_cell_angle_gamma                 114.545697
_cell_volume                      2277.410833
_symmetry_space_group_name_H-M    P1
_symmetry_Int_Tables_number       1
loop_
    _symmetry_equiv_pos_site_id
    _symmetry_equiv_pos_as_xyz
    1  x,y,z
loop_
    _atom_site_type_symbol
    _atom_site_label
    _atom_site_fract_x
    _atom_site_fract_y
    _atom_site_fract_z
    _atom_type_partial_charge
    C   C1   0.273665  0.990961  0.058423  0.079524
    C   C2   0.260335  0.999520  0.959456  -0.002412
    C   C3   0.180873  0.007453  0.931966  -0.145437
    C   C4   0.203378  0.978125  0.123197  -0.286884
    C   C5   0.123849  0.985776  0.095085  0.219661
    C   C6   0.113921  0.007811  0.002612  0.015678
    C   C7   0.036390  0.026185  0.981319  0.074210
    C   C8   0.031705  0.066727  0.899038  -0.145551
    C   C9   0.953224  0.073346  0.870436  -0.205603
    C   C10  0.054905  0.973250  0.161099  -0.182274
    C   C11  0.975056  0.980802  0.135479  -0.187394
    C   C12  0.964367  0.009213  0.045698  0.119347
    C   C13  0.883291  0.018388  0.017115  -0.045722
    C   C14  0.875824  0.042186  0.924011  0.236329
    C   C15  0.791770  0.034473  0.884824  -0.204960
    C   C16  0.809571  0.004832  0.079045  -0.107272
    C   C17  0.727173  0.002103  0.044398  -0.031528
    C   C18  0.716066  0.009453  0.943758  0.020594
    H   H1   0.171755  0.007810  0.851946  0.130180
    H   H2   0.213157  0.969353  0.199764  0.194350
    H   H3   0.088740  0.096877  0.854588  0.143328
    H   H4   0.956626  0.103553  0.803804  0.164492
    H   H5   0.061906  0.954093  0.232803  0.140260
    H   H6   0.923535  0.964045  0.189380  0.167642
    H   H7   0.814400  0.998390  0.157021  0.117811
    O   O1   0.587720  0.026194  0.107320  -0.518603
    C   C19  0.653192  0.991345  0.116793  0.553028
    O   O2   0.436694  0.735993  0.140436  -0.490347
    O   O3   0.657358  0.956563  0.197741  -0.492801
    O   O4   0.489574  0.904390  0.300973  -0.554077
    C   C20  0.456085  0.784592  0.247342  0.597142
    Fe  Fe1  0.503135  0.012162  0.219819  1.453351
    O   O5   0.372637  0.937153  0.144056  -0.570314
    O   O6   0.438738  0.112386  0.109129  -0.494865
    C   C21  0.364933  0.011665  0.102241  0.616118
    O   O7   0.558876  0.186145  0.330299  -0.632870
    O   O8   0.408500  0.113028  0.359197  -0.543093
    C   C22  0.493946  0.200610  0.390268  0.673540
    O   O9   0.429942  0.789501  0.672147  -0.631178
    O   O10  0.571093  0.888220  0.629765  -0.488191
    C   C23  0.493347  0.787357  0.606393  0.652959
    O   O11  0.602107  0.050644  0.867986  -0.565789
    O   O12  0.558013  0.859553  0.870582  -0.508312
    C   C24  0.621986  0.972867  0.893563  0.666776
    O   O13  0.331390  0.043618  0.806894  -0.483330
    O   O14  0.490049  0.067584  0.693685  -0.570591
    C   C25  0.523542  0.187628  0.747084  0.623699
    O   O15  0.383044  0.944830  0.883718  -0.530457
    C   C26  0.328291  0.997630  0.881664  0.531682
    O   O16  0.541590  0.235727  0.854103  -0.473937
    Fe  Fe2  0.475279  0.964286  0.779834  1.449621
    C   C27  0.523557  0.211570  0.571714  -0.147024
    C   C28  0.520560  0.273860  0.507302  -0.029601
    C   C29  0.524726  0.391184  0.555148  0.148859
    C   C30  0.540400  0.447901  0.668465  -0.131190
    H   H8   0.548686  0.541568  0.708750  0.127777
    C   C31  0.544264  0.384801  0.732585  -0.137313
    C   C32  0.532761  0.264441  0.683945  0.031831
    C   C33  0.511419  0.452094  0.485348  -0.197611
    C   C34  0.472898  0.531700  0.517607  -0.173262
    H   H9   0.532522  0.429341  0.404764  0.183082
    H   H10  0.452168  0.555555  0.598329  0.186829
    C   C35  0.463869  0.708078  0.490862  -0.006714
    C   C36  0.458773  0.766083  0.423678  -0.189728
    C   C37  0.447442  0.709474  0.311743  0.078206
    C   C38  0.434916  0.588617  0.265874  -0.168313
    C   C39  0.439625  0.528803  0.332819  -0.089217
    H   H11  0.430047  0.434335  0.294833  0.097880
    C   C40  0.458056  0.589703  0.445940  0.113020
    H   H12  0.514434  0.117490  0.531525  0.149177
    H   H13  0.552749  0.428944  0.820508  0.145002
    H   H14  0.467592  0.860193  0.461855  0.150324
    H   H15  0.424686  0.541527  0.178149  0.156781
    C   C41  0.780791  0.041160  0.774200  0.282654
    C   C42  0.772336  0.923137  0.682541  -0.201263
    H   H16  0.837349  0.911370  0.683155  0.028815
    H   H17  0.714326  0.842499  0.691752  0.034123
    H   H18  0.757455  0.926910  0.602898  0.061140
    H   H19  0.719552  0.054921  0.759378  -0.009897
    H   H20  0.838133  0.123500  0.767215  -0.041900
