data_DB0-m29_o96_o100_f0_pts.sym.52_repeat
_audit_creation_date              2024-02-23
_audit_creation_method            'Materials Studio'
_symmetry_space_group_name_H-M    'P1'
_symmetry_Int_Tables_number       1
_symmetry_cell_setting            triclinic
loop_
_symmetry_equiv_pos_as_xyz
  x,y,z
_cell_length_a                    17.4591
_cell_length_b                    14.2435
_cell_length_c                    17.2217
_cell_angle_alpha                 91.6029
_cell_angle_beta                  91.0268
_cell_angle_gamma                 99.9747
loop_
_atom_site_label
_atom_site_type_symbol
_atom_site_fract_x
_atom_site_fract_y
_atom_site_fract_z
_atom_site_U_iso_or_equiv
_atom_site_adp_type
_atom_site_occupancy
C1     C     0.21023   0.00923   0.11811   0.00000  Uiso   1.00
C2     C     0.15983   0.97421   0.17433   0.00000  Uiso   1.00
C3     C     0.08525   0.97111   0.14309   0.00000  Uiso   1.00
N1     N     0.08962   0.00035   0.06913   0.00000  Uiso   1.00
C4     C     0.16598   0.02295   0.05348   0.00000  Uiso   1.00
C5     C     0.01822   0.94868   0.18022   0.00000  Uiso   1.00
C6     C     0.94221   0.96300   0.14958   0.00000  Uiso   1.00
C7     C     0.88333   0.98372   0.19569   0.00000  Uiso   1.00
C8     C     0.82091   0.98757   0.14864   0.00000  Uiso   1.00
C9     C     0.84280   0.96969   0.07362   0.00000  Uiso   1.00
N2     N     0.91710   0.95367   0.07472   0.00000  Uiso   1.00
C10    C     0.79292   0.96997   0.00392   0.00000  Uiso   1.00
C11    C     0.82130   0.99609   0.93489   0.00000  Uiso   1.00
C12    C     0.77761   0.01135   0.87027   0.00000  Uiso   1.00
C13    C     0.82881   0.04682   0.81552   0.00000  Uiso   1.00
C14    C     0.90256   0.04894   0.84638   0.00000  Uiso   1.00
N3     N     0.89795   0.01855   0.91992   0.00000  Uiso   1.00
C15    C     0.96846   0.07172   0.80771   0.00000  Uiso   1.00
C16    C     0.04558   0.05954   0.83766   0.00000  Uiso   1.00
C17    C     0.10554   0.04245   0.79137   0.00000  Uiso   1.00
C18    C     0.16758   0.03704   0.83864   0.00000  Uiso   1.00
C19    C     0.14442   0.05044   0.91403   0.00000  Uiso   1.00
N4     N     0.06979   0.06521   0.91288   0.00000  Uiso   1.00
C20    C     0.19392   0.04873   0.98401   0.00000  Uiso   1.00
H1     H     0.01851   0.92820   0.23958   0.00000  Uiso   1.00
H2     H     0.73067   0.95921   0.01142   0.00000  Uiso   1.00
H3     H     0.96464   0.09105   0.74772   0.00000  Uiso   1.00
H4     H     0.25613   0.06001   0.97630   0.00000  Uiso   1.00
H5     H     0.94775   0.93221   0.02803   0.00000  Uiso   1.00
H6     H     0.03835   0.08348   0.96008   0.00000  Uiso   1.00
C21    C     0.10826   0.02991   0.71231   0.00000  Uiso   1.00
C22    C     0.17711   0.01295   0.68127   0.00000  Uiso   1.00
C23    C     0.24193   0.00882   0.72881   0.00000  Uiso   1.00
C24    C     0.23725   0.02030   0.80907   0.00000  Uiso   1.00
C25    C     0.28991   0.02663   0.13049   0.00000  Uiso   1.00
C26    C     0.31827   0.00357   0.20164   0.00000  Uiso   1.00
C27    C     0.26743   0.96461   0.25779   0.00000  Uiso   1.00
C28    C     0.18800   0.95138   0.24603   0.00000  Uiso   1.00
C29    C     0.88194   0.00071   0.27439   0.00000  Uiso   1.00
C30    C     0.81378   0.02010   0.30530   0.00000  Uiso   1.00
C31    C     0.74853   0.02231   0.25794   0.00000  Uiso   1.00
C32    C     0.75203   0.00687   0.17801   0.00000  Uiso   1.00
C33    C     0.69833   0.99626   0.85607   0.00000  Uiso   1.00
C34    C     0.67229   0.02212   0.78456   0.00000  Uiso   1.00
C35    C     0.72516   0.06199   0.72996   0.00000  Uiso   1.00
C36    C     0.80425   0.07320   0.74448   0.00000  Uiso   1.00
H7     H     0.05862   0.03309   0.67479   0.00000  Uiso   1.00
H8     H     0.28671   0.01711   0.84687   0.00000  Uiso   1.00
H9     H     0.32949   0.05688   0.08669   0.00000  Uiso   1.00
H10    H     0.28953   0.94784   0.31379   0.00000  Uiso   1.00
H11    H     0.93203   0.99921   0.31178   0.00000  Uiso   1.00
H12    H     0.70215   0.00844   0.14037   0.00000  Uiso   1.00
H13    H     0.65744   0.96570   0.89868   0.00000  Uiso   1.00
H14    H     0.70483   0.08125   0.67395   0.00000  Uiso   1.00
H15    H     0.84446   0.10235   0.70083   0.00000  Uiso   1.00
H16    H     0.17973   0.00414   0.61892   0.00000  Uiso   1.00
H17    H     0.81200   0.03221   0.36739   0.00000  Uiso   1.00
O1     O     0.61050   0.02905   0.25422   0.00000  Uiso   1.00
C37    C     0.67575   0.03522   0.29473   0.00000  Uiso   1.00
O2     O     0.55422   0.84285   0.32305   0.00000  Uiso   1.00
O3     O     0.67366   0.04216   0.37076   0.00000  Uiso   1.00
O4     O     0.51903   0.93636   0.41889   0.00000  Uiso   1.00
C38    C     0.53579   0.85383   0.39587   0.00000  Uiso   1.00
Fe1    Fe    0.52511   0.02081   0.32908   0.00000  Uiso   1.00
O5     O     0.42627   0.96524   0.27109   0.00000  Uiso   1.00
O6     O     0.44493   0.10281   0.20428   0.00000  Uiso   1.00
C39    C     0.40118   0.02198   0.22168   0.00000  Uiso   1.00
O7     O     0.54043   0.15530   0.37213   0.00000  Uiso   1.00
O8     O     0.42357   0.09539   0.42259   0.00000  Uiso   1.00
C40    C     0.48310   0.16524   0.41843   0.00000  Uiso   1.00
C41    C     0.48612   0.53989   0.78640   0.00000  Uiso   1.00
C42    C     0.46466   0.26027   0.53980   0.00000  Uiso   1.00
C43    C     0.40884   0.53380   0.80449   0.00000  Uiso   1.00
C44    C     0.35272   0.52316   0.74603   0.00000  Uiso   1.00
C45    C     0.50733   0.53534   0.70984   0.00000  Uiso   1.00
C46    C     0.45120   0.52468   0.65125   0.00000  Uiso   1.00
C47    C     0.37386   0.51860   0.66944   0.00000  Uiso   1.00
C48    C     0.46082   0.34825   0.57431   0.00000  Uiso   1.00
C49    C     0.47729   0.43191   0.53375   0.00000  Uiso   1.00
C50    C     0.47369   0.51978   0.56987   0.00000  Uiso   1.00
C51    C     0.49123   0.60324   0.52893   0.00000  Uiso   1.00
C52    C     0.48829   0.69159   0.56425   0.00000  Uiso   1.00
C53    C     0.50651   0.77493   0.52442   0.00000  Uiso   1.00
C54    C     0.48328   0.25570   0.46166   0.00000  Uiso   1.00
C55    C     0.50130   0.33902   0.42174   0.00000  Uiso   1.00
C56    C     0.49846   0.42741   0.45707   0.00000  Uiso   1.00
C57    C     0.51603   0.51088   0.41613   0.00000  Uiso   1.00
C58    C     0.51250   0.59877   0.45228   0.00000  Uiso   1.00
C59    C     0.52922   0.68250   0.41181   0.00000  Uiso   1.00
C60    C     0.48253   0.49569   0.27613   0.00000  Uiso   1.00
C61    C     0.53858   0.50595   0.33478   0.00000  Uiso   1.00
C62    C     0.61589   0.51145   0.31666   0.00000  Uiso   1.00
C63    C     0.50378   0.49096   0.19960   0.00000  Uiso   1.00
C64    C     0.58103   0.49646   0.18158   0.00000  Uiso   1.00
C65    C     0.52549   0.77050   0.44637   0.00000  Uiso   1.00
C66    C     0.63707   0.50670   0.24010   0.00000  Uiso   1.00
H18    H     0.53009   0.54822   0.83225   0.00000  Uiso   1.00
H19    H     0.39223   0.53736   0.86452   0.00000  Uiso   1.00
H20    H     0.29214   0.51838   0.76024   0.00000  Uiso   1.00
H21    H     0.56791   0.54009   0.69566   0.00000  Uiso   1.00
H22    H     0.32986   0.51025   0.62362   0.00000  Uiso   1.00
H23    H     0.44622   0.35056   0.63467   0.00000  Uiso   1.00
H24    H     0.47370   0.69863   0.62447   0.00000  Uiso   1.00
H25    H     0.51572   0.33196   0.36147   0.00000  Uiso   1.00
H26    H     0.54407   0.68022   0.35151   0.00000  Uiso   1.00
H27    H     0.42197   0.49136   0.29025   0.00000  Uiso   1.00
H28    H     0.65982   0.51945   0.36253   0.00000  Uiso   1.00
H29    H     0.45987   0.48292   0.15370   0.00000  Uiso   1.00
H30    H     0.59766   0.49274   0.12157   0.00000  Uiso   1.00
H31    H     0.69762   0.51100   0.22595   0.00000  Uiso   1.00
O9     O     0.56501   0.06393   0.71516   0.00000  Uiso   1.00
O10    O     0.54506   0.92430   0.77903   0.00000  Uiso   1.00
C67    C     0.58964   0.00511   0.76304   0.00000  Uiso   1.00
O11    O     0.44917   0.87563   0.61356   0.00000  Uiso   1.00
O12    O     0.56677   0.93466   0.56427   0.00000  Uiso   1.00
C68    C     0.50677   0.86531   0.56773   0.00000  Uiso   1.00
O13    O     0.43576   0.18790   0.66308   0.00000  Uiso   1.00
O14    O     0.38045   0.00237   0.73224   0.00000  Uiso   1.00
C69    C     0.31512   0.99716   0.69188   0.00000  Uiso   1.00
O15    O     0.47249   0.09500   0.56765   0.00000  Uiso   1.00
C70    C     0.45479   0.17711   0.59043   0.00000  Uiso   1.00
O16    O     0.31719   0.99100   0.61582   0.00000  Uiso   1.00
Fe2    Fe    0.46571   0.01001   0.65715   0.00000  Uiso   1.00
C71    C     0.13944   0.91319   0.31017   0.00000  Uiso   1.00
O17    O     0.12131   0.82698   0.31495   0.00000  Uiso   1.00
C72    C     0.11464   0.97694   0.37001   0.00000  Uiso   1.00
C73    C     0.06986   0.93846   0.43065   0.00000  Uiso   1.00
C74    C     0.04527   0.99724   0.48637   0.00000  Uiso   1.00
C75    C     0.06522   0.09477   0.48211   0.00000  Uiso   1.00
C76    C     0.10968   0.13363   0.42190   0.00000  Uiso   1.00
C77    C     0.13434   0.07518   0.36592   0.00000  Uiso   1.00
H32    H     0.05331   0.86216   0.43518   0.00000  Uiso   1.00
H33    H     0.01024   0.96666   0.53351   0.00000  Uiso   1.00
H34    H     0.04596   0.14073   0.52591   0.00000  Uiso   1.00
H35    H     0.12522   0.21021   0.41844   0.00000  Uiso   1.00
H36    H     0.16881   0.10798   0.31931   0.00000  Uiso   1.00
