# Generated by REPEAT Assigner based on pymatgen
data_DB0-m3_o520_o14_f0_fsc.sym.76_sqe
_audit_creation_date              2022-05-24
_audit_creation_method            REPEAT_Assigner
_cell_length_a                    9.289705
_cell_length_b                    8.552970
_cell_length_c                    14.996489
_cell_angle_alpha                 90.000000
_cell_angle_beta                  91.024583
_cell_angle_gamma                 90.000000
_cell_volume                      1191.348940
_symmetry_space_group_name_H-M    P1
_symmetry_Int_Tables_number       1
loop_
    _symmetry_equiv_pos_site_id
    _symmetry_equiv_pos_as_xyz
    1  x,y,z
loop_
    _atom_site_type_symbol
    _atom_site_label
    _atom_site_fract_x
    _atom_site_fract_y
    _atom_site_fract_z
    _atom_type_partial_charge
    H   H1   0.063198  0.987639  0.564585  0.117879
    C   C1   0.011618  0.127353  0.675944  -0.106470
    C   C2   0.011236  0.847684  0.675801  -0.106326
    C   C3   0.986151  0.128023  0.766207  0.044276
    C   C4   0.985507  0.846965  0.766085  0.055756
    H   H2   0.974521  0.238449  0.800336  0.028578
    H   H3   0.973647  0.736533  0.800175  0.026139
    C   C5   0.981549  0.987486  0.812409  -0.385660
    C   C6   0.034451  0.987550  0.633407  -0.060518
    N   N1   0.978958  0.851667  0.955157  -0.319060
    N   N2   0.986629  0.123486  0.955101  -0.317900
    N   N3   0.986420  0.851621  0.043274  -0.305407
    N   N4   0.994246  0.123426  0.043215  -0.333420
    C   C7   0.995389  0.987429  0.088280  0.866359
    C   C8   0.978703  0.987625  0.910058  0.830359
    C   C9   0.003667  0.127667  0.232555  0.015920
    C   C10  0.002907  0.846680  0.232324  0.087552
    H   H4   0.008719  0.238364  0.198027  0.012376
    H   H5   0.007672  0.736123  0.197634  -0.005502
    C   C11  0.994001  0.126110  0.324196  -0.067330
    C   C12  0.993555  0.847855  0.323964  -0.073463
    C   C13  0.980036  0.986894  0.367862  -0.078985
    H   H6   0.962798  0.986715  0.438208  0.110751
    C   C14  0.001478  0.987285  0.185982  -0.416211
    O   O1   0.131463  0.655708  0.589200  -0.736986
    O   O2   0.131643  0.319365  0.589420  -0.737282
    O   O3   0.880769  0.650355  0.595942  -0.701862
    O   O4   0.880925  0.324564  0.596297  -0.691387
    C   C15  0.008212  0.705109  0.621591  0.866723
    C   C16  0.008461  0.269995  0.621892  0.867665
    O   O5   0.877357  0.656947  0.411187  -0.702933
    O   O6   0.877544  0.316592  0.411634  -0.741044
    O   O7   0.122476  0.652015  0.404434  -0.725596
    O   O8   0.122657  0.322296  0.404644  -0.738093
    C   C17  0.997575  0.706289  0.378017  0.856421
    C   C18  0.997840  0.267487  0.378437  0.892224
    Zn  Zn1  0.842236  0.487115  0.501337  1.020481
    Zn  Zn2  0.163951  0.487364  0.497607  1.073051
    H   H7   0.633871  0.486665  0.639018  0.188720
    C   C19  0.649401  0.487037  0.337742  -0.164067
    H   H8   0.761746  0.485621  0.328761  0.169872
    C   C20  0.577160  0.486640  0.257632  -0.209457
    H   H9   0.637634  0.479381  0.196868  0.182100
    C   C21  0.431058  0.490116  0.255118  0.513296
    C   C22  0.357932  0.487783  0.333649  -0.429211
    H   H10  0.245350  0.487092  0.323428  0.211580
    C   C23  0.428291  0.487756  0.417236  0.185801
    C   C24  0.578475  0.487764  0.419559  0.084901
    N   N5   0.652398  0.487061  0.499373  0.072009
    C   C25  0.577299  0.486948  0.575401  -0.144526
    H   H11  0.370165  0.486990  0.634988  0.163002
    C   C26  0.427810  0.487149  0.573018  -0.073509
    N   N6   0.353630  0.487467  0.494791  0.043503
    N   N7   0.354867  0.485009  0.172696  -0.708137
    C   C27  0.388537  0.596757  0.112842  0.774484
    O   O9   0.491763  0.682236  0.125898  -0.570500
    C   C28  0.297219  0.619588  0.031058  -0.460739
    H   H12  0.249486  0.447921  0.172063  0.378177
    H   H13  0.207017  0.534696  0.029181  0.094901
    H   H14  0.364007  0.602513  0.971278  0.143301
    H   H15  0.253643  0.740214  0.030574  0.133422
