# Generated by REPEAT Assigner based on pymatgen
data_DB0-m2_o9_o11_f0_nbo.sym.114_sqe
_audit_creation_date              2022-05-24
_audit_creation_method            REPEAT_Assigner
_cell_length_a                    19.115314
_cell_length_b                    18.479593
_cell_length_c                    18.601818
_cell_angle_alpha                 71.617639
_cell_angle_beta                  69.690922
_cell_angle_gamma                 110.164726
_cell_volume                      5029.203871
_symmetry_space_group_name_H-M    P1
_symmetry_Int_Tables_number       1
loop_
    _symmetry_equiv_pos_site_id
    _symmetry_equiv_pos_as_xyz
    1  x,y,z
loop_
    _atom_site_type_symbol
    _atom_site_label
    _atom_site_fract_x
    _atom_site_fract_y
    _atom_site_fract_z
    _atom_type_partial_charge
    C   C1    0.995794  0.113701  0.388228  0.693100
    C   C2    0.947952  0.996395  0.854350  -0.091547
    C   C3    0.325730  0.495536  0.759783  0.031773
    C   C4    0.079715  0.483970  0.708349  -0.109170
    C   C5    0.022921  0.502738  0.688264  -0.115239
    C   C6    0.037189  0.587739  0.657753  -0.024133
    C   C7    0.108052  0.653944  0.647550  -0.141017
    C   C8    0.163515  0.634696  0.669922  -0.155104
    C   C9    0.149168  0.549640  0.700598  0.134885
    C   C10   0.850131  0.247855  0.621097  0.328333
    C   C11   0.799444  0.222594  0.716846  0.104268
    C   C12   0.747117  0.268208  0.726601  -0.263830
    C   C13   0.231795  0.239883  0.587893  -0.185117
    C   C14   0.729980  0.985361  0.397283  0.382683
    C   C15   0.694936  0.043611  0.366373  0.172588
    C   C16   0.765887  0.126935  0.279533  -0.276174
    C   C17   0.992812  0.567683  0.482293  0.309766
    C   C18   0.041812  0.518524  0.475743  0.160154
    C   C19   0.138559  0.584176  0.420716  -0.399278
    C   C20   0.864407  0.396368  0.418277  0.232321
    C   C21   0.795667  0.321788  0.420403  0.046092
    C   C22   0.834757  0.304009  0.347046  -0.344192
    C   C23   0.383220  0.085119  0.410336  0.333935
    C   C24   0.303207  0.306712  0.506757  0.011790
    C   C25   0.319759  0.985915  0.466221  0.039233
    C   C26   0.227889  0.966768  0.495707  -0.151514
    C   C27   0.989582  0.831325  0.202377  0.331318
    C   C28   0.952543  0.883031  0.163637  0.099662
    C   C29   0.909497  0.909831  0.227259  -0.340504
    C   C30   0.303230  0.311755  0.430743  -0.045249
    C   C31   0.233211  0.247764  0.437532  -0.191999
    C   C32   0.161631  0.181084  0.518624  0.062671
    C   C33   0.159901  0.178507  0.594628  -0.006972
    C   C34   0.368065  0.433324  0.281231  -0.286186
    C   C35   0.437181  0.493596  0.196611  -0.056033
    C   C36   0.516237  0.498720  0.172430  -0.145180
    C   C37   0.093923  0.110316  0.521008  0.553681
    C   C38   0.525977  0.443317  0.232872  -0.055393
    C   C39   0.457096  0.383766  0.317845  -0.200935
    C   C40   0.378167  0.379266  0.342628  0.299955
    C   C41   0.964919  0.254124  0.528896  0.588156
    C   C42   0.956023  0.238132  0.464053  -0.363759
    C   C43   0.026942  0.282292  0.379916  0.141162
    C   C44   0.105667  0.345975  0.359975  -0.295732
    C   C45   0.114406  0.362498  0.424580  0.063578
    C   C46   0.044534  0.315671  0.509233  -0.351117
    C   C47   0.029505  0.329332  0.239700  -0.098170
    C   C48   0.966759  0.873910  0.643787  0.707476
    C   C49   0.021375  0.314946  0.173467  -0.176642
    C   C50   0.013629  0.236691  0.174049  0.162394
    C   C51   0.005247  0.172164  0.245029  -0.263872
    C   C52   0.004861  0.183890  0.314717  -0.031458
    C   C53   0.019287  0.263949  0.310988  0.086260
    C   C54   0.958182  0.141966  0.115330  -0.086676
    C   C55   0.964415  0.125966  0.046440  -0.067606
    C   C56   0.032537  0.188240  0.961959  -0.169439
    C   C57   0.094871  0.266196  0.946552  -0.047221
    C   C58   0.088584  0.282374  0.015405  -0.087212
    C   C59   0.866498  0.875535  0.511372  0.617864
    C   C60   0.019056  0.221160  0.099977  0.019164
    C   C61   0.614518  0.835013  0.708345  -0.226622
    C   C62   0.659786  0.805666  0.661675  -0.062698
    C   C63   0.680460  0.830472  0.575413  -0.030914
    C   C64   0.650380  0.880854  0.537845  0.375777
    C   C65   0.601995  0.907164  0.586359  -0.223835
    C   C66   0.585703  0.885934  0.670595  -0.094515
    C   C67   0.667714  0.726864  0.519402  -0.111883
    C   C68   0.691110  0.670932  0.497144  -0.087980
    C   C69   0.771654  0.680882  0.482029  0.098124
    C   C70   0.937957  0.050691  0.793331  -0.066719
    C   C71   0.828107  0.751822  0.482466  -0.092592
    C   C72   0.802470  0.804417  0.509720  -0.153732
    C   C73   0.719410  0.789172  0.531919  0.141597
    C   C74   0.841979  0.593563  0.511718  -0.436549
    C   C75   0.860733  0.528374  0.509027  0.427741
    C   C76   0.828467  0.479022  0.474223  0.189838
    C   C77   0.786555  0.503258  0.432450  -0.243771
    C   C78   0.776155  0.574586  0.426765  -0.126963
    C   C79   0.797237  0.615924  0.472388  0.055499
    C   C80   0.950668  0.663652  0.790124  -0.006821
    C   C81   0.006619  0.109023  0.708154  -0.129570
    C   C82   0.002011  0.684372  0.822869  -0.227817
    C   C83   0.956337  0.732716  0.717770  0.009245
    C   C84   0.960692  0.806485  0.717486  -0.328509
    C   C85   0.602994  0.467799  0.388001  0.670754
    C   C86   0.375474  0.372708  0.503863  0.706014
    C   C87   0.394058  0.502003  0.614918  0.752703
    C   C88   0.625399  0.600914  0.496191  0.705925
    C   C89   0.132682  0.512082  0.872677  0.726091
    C   C90   0.017308  0.381859  0.108176  0.731408
    C   C91   0.885579  0.487477  0.120594  0.688559
    C   C92   0.084800  0.111540  0.682781  0.133440
    C   C93   0.004539  0.615470  0.886706  0.801085
    C   C94   0.512991  0.178887  0.532138  -0.141965
    C   C95   0.572957  0.267329  0.472593  -0.118823
    C   C96   0.595231  0.301793  0.385090  0.023915
    C   C97   0.557388  0.245688  0.358069  -0.168591
    C   C98   0.497741  0.156912  0.417550  0.363565
    C   C99   0.476246  0.123402  0.504584  -0.211100
    C   C100  0.737470  0.401390  0.250174  -0.106896
    C   C101  0.811746  0.483190  0.187586  -0.176912
    C   C102  0.813649  0.558070  0.190524  0.163325
    C   C103  0.094970  0.058120  0.744510  -0.132911
    C   C104  0.742747  0.549638  0.254350  -0.343962
    C   C105  0.671190  0.468077  0.319764  0.099558
    C   C106  0.668418  0.392275  0.318221  0.104374
    C   C107  0.933293  0.689676  0.162740  -0.467135
    C   C108  0.000238  0.776841  0.108983  0.570758
    C   C109  0.025752  0.819352  0.020966  -0.370176
    C   C110  0.982199  0.776440  0.987966  0.003144
    C   C111  0.912532  0.691102  0.042923  -0.263846
    C   C112  0.888827  0.647403  0.130137  0.255953
    C   C113  0.415805  0.385745  0.875086  -0.113855
    C   C114  0.026753  0.000922  0.830041  -0.115481
    C   C115  0.358014  0.400539  0.853570  -0.131464
    C   C116  0.387247  0.478684  0.781225  0.138329
    C   C117  0.473941  0.542993  0.732385  -0.118441
    C   C118  0.531735  0.528430  0.754008  -0.072001
    C   C119  0.502720  0.449550  0.825127  -0.132051
    C   C120  0.263049  0.500411  0.820014  -0.101893
    C   C121  0.202882  0.515335  0.803434  -0.147920
    C   C122  0.208396  0.529482  0.723401  0.160917
    C   C123  0.273208  0.528313  0.661692  -0.260920
    C   C124  0.331093  0.509873  0.679738  -0.031892
    Cu  Cu1   0.920021  0.997544  0.571248  0.873777
    Cu  Cu2   0.041346  0.988600  0.460359  0.933771
    Cu  Cu3   0.493616  0.423136  0.564436  0.929925
    Cu  Cu4   0.505797  0.549964  0.437379  0.964820
    Cu  Cu5   0.066015  0.560211  0.001202  0.944370
    Cu  Cu6   0.953106  0.436370  0.995307  0.925419
    H   H1    0.894617  0.951541  0.921559  0.085062
    H   H2    0.570285  0.545488  0.105889  0.106510
    H   H3    0.959159  0.959499  0.230854  0.079278
    H   H4    0.587561  0.446295  0.213398  0.080433
    H   H5    0.464488  0.339464  0.364666  0.064037
    H   H6    0.052102  0.327341  0.560191  0.132819
    H   H7    0.893456  0.189977  0.479810  0.142430
    H   H8    0.161130  0.381761  0.294032  0.114855
    H   H9    0.176427  0.411276  0.409294  0.077040
    H   H10   0.038339  0.390221  0.239896  0.109991
    H   H11   0.999580  0.111522  0.246145  0.138271
    H   H12   0.904958  0.092211  0.181351  0.098058
    H   H13   0.876875  0.048916  0.812667  0.082747
    H   H14   0.916003  0.064326  0.058739  0.088644
    H   H15   0.037581  0.175526  0.908003  0.106657
    H   H16   0.148993  0.314321  0.880430  0.092348
    H   H17   0.138609  0.342834  0.003119  0.089490
    H   H18   0.548214  0.907131  0.707903  0.122164
    H   H19   0.599540  0.815981  0.775422  0.138146
    H   H20   0.678091  0.761712  0.693475  0.092175
    H   H21   0.575194  0.943259  0.559198  0.109973
    H   H22   0.604094  0.716533  0.534184  0.139778
    H   H23   0.892692  0.764118  0.465407  0.101375
    H   H24   0.999628  0.154472  0.662046  0.096022
    H   H25   0.860362  0.624133  0.548008  0.185620
    H   H26   0.761091  0.466687  0.404049  0.158756
    H   H27   0.748202  0.595127  0.388974  0.131316
    H   H28   0.911998  0.595055  0.808631  0.079331
    H   H29   0.047575  0.753307  0.797491  0.132634
    H   H30   0.951584  0.720167  0.666050  0.104593
    H   H31   0.955894  0.815406  0.773549  0.171009
    H   H32   0.431709  0.053476  0.550998  0.143883
    H   H33   0.497293  0.152334  0.599976  0.121722
    H   H34   0.605923  0.307522  0.494481  0.101322
    H   H35   0.156711  0.061581  0.726277  0.094886
    H   H36   0.576183  0.270650  0.289411  0.090631
    H   H37   0.734951  0.342352  0.249487  0.128580
    H   H38   0.745005  0.608583  0.255232  0.140369
    H   H39   0.914939  0.653721  0.230788  0.174692
    H   H40   0.080097  0.886522  0.977830  0.155067
    H   H41   0.002204  0.809808  0.919081  0.096403
    H   H42   0.877263  0.658196  0.017482  0.092212
    H   H43   0.547961  0.438026  0.842160  0.107173
    H   H44   0.392905  0.324163  0.931301  0.112704
    H   H45   0.289953  0.350382  0.893025  0.068888
    H   H46   0.035511  0.960514  0.878352  0.095899
    H   H47   0.496159  0.605399  0.678008  0.045942
    H   H48   0.599691  0.579015  0.715419  0.085427
    H   H49   0.259981  0.490032  0.881786  0.102811
    H   H50   0.276827  0.539337  0.599557  0.126822
    H   H51   0.068768  0.417386  0.732042  0.075295
    H   H52   0.967287  0.450865  0.696307  0.107511
    H   H53   0.992535  0.602412  0.642238  0.084920
    H   H54   0.119412  0.720675  0.623246  0.120554
    H   H55   0.218439  0.686317  0.663062  0.091347
    H   H56   0.804499  0.227589  0.597827  -0.006305
    H   H57   0.231003  0.237827  0.646908  0.113469
    H   H58   0.895091  0.320560  0.581232  -0.062317
    H   H59   0.754951  0.149719  0.757078  0.000424
    H   H60   0.845154  0.243060  0.740058  -0.007979
    H   H61   0.791433  0.341061  0.688758  0.063189
    H   H62   0.708623  0.247367  0.797212  0.057231
    H   H63   0.702595  0.249562  0.701696  0.047957
    H   H64   0.776358  0.987059  0.339902  -0.044660
    H   H65   0.764492  0.010316  0.429075  -0.082817
    H   H66   0.641872  0.006492  0.357681  -0.012150
    H   H67   0.669648  0.062930  0.415900  -0.044848
    H   H68   0.234895  0.248859  0.378491  0.105371
    H   H69   0.823799  0.158561  0.284237  0.044875
    H   H70   0.742353  0.173645  0.264298  0.064069
    H   H71   0.782535  0.110009  0.226253  0.051086
    H   H72   0.020759  0.618571  0.499218  -0.051021
    H   H73   0.998962  0.601089  0.417497  -0.053661
    H   H74   0.024974  0.473397  0.542530  0.015587
    H   H75   0.023633  0.479083  0.444342  -0.009839
    H   H76   0.155475  0.630865  0.354415  0.087897
    H   H77   0.173920  0.547921  0.413900  0.089192
    H   H78   0.157663  0.621644  0.453478  0.078330
    H   H79   0.306077  0.428949  0.299291  0.157299
    H   H80   0.916138  0.381570  0.416970  -0.019089
    H   H81   0.894680  0.460494  0.358318  -0.030178
    H   H82   0.761009  0.260444  0.484562  0.018618
    H   H83   0.748642  0.339884  0.412743  -0.022131
    H   H84   0.883397  0.367413  0.284555  0.107434
    H   H85   0.782475  0.264074  0.339169  0.104561
    H   H86   0.864491  0.265144  0.365379  0.102625
    H   H87   0.381185  0.111292  0.349089  -0.014434
    H   H88   0.365242  0.118884  0.447130  -0.053174
    H   H89   0.335321  0.953532  0.426887  0.010528
    H   H90   0.429138  0.536313  0.149004  0.096298
    H   H91   0.325108  0.958821  0.525118  -0.011228
    H   H92   0.211335  0.997048  0.537066  0.040801
    H   H93   0.182455  0.894044  0.535033  0.034351
    H   H94   0.222147  0.994391  0.437169  0.013892
    H   H95   0.027672  0.869679  0.224236  0.005100
    H   H96   0.936498  0.766957  0.261836  -0.061653
    H   H97   0.005358  0.943507  0.099815  -0.015463
    H   H98   0.902380  0.841815  0.154091  -0.018566
    H   H99   0.862385  0.850643  0.293649  0.053938
    H   H100  0.874351  0.938793  0.204098  0.114718
    O   O1    0.923839  0.069681  0.465771  -0.540158
    O   O2    0.568296  0.513689  0.362152  -0.541742
    O   O3    0.413987  0.344873  0.543324  -0.595354
    O   O4    0.396510  0.456362  0.465264  -0.618916
    O   O5    0.398010  0.429064  0.641202  -0.586818
    O   O6    0.441121  0.566561  0.532112  -0.587011
    O   O7    0.575238  0.520807  0.566132  -0.541082
    O   O8    0.613287  0.624207  0.428731  -0.629809
    O   O9    0.150467  0.543663  0.922672  -0.597362
    O   O10   0.053553  0.472144  0.886208  -0.573974
    O   O11   0.043859  0.460816  0.102152  -0.618994
    O   O12   0.059246  0.096262  0.373127  -0.584899
    O   O13   0.983073  0.359765  0.062155  -0.551142
    O   O14   0.964051  0.557699  0.078407  -0.525437
    O   O15   0.869995  0.420199  0.105082  -0.607485
    O   O16   0.070934  0.640467  0.899133  -0.642069
    O   O17   0.940815  0.532238  0.929198  -0.609982
    O   O18   0.896728  0.204129  0.613953  -0.519177
    O   O19   0.661503  0.897885  0.456243  -0.508047
    O   O20   0.905573  0.507899  0.547405  -0.430057
    O   O21   0.825415  0.399257  0.495598  -0.351702
    O   O22   0.466765  0.100982  0.388253  -0.459734
    O   O23   0.017002  0.102947  0.547178  -0.448494
    O   O24   0.045485  0.819717  0.140320  -0.490680
    O   O25   0.115377  0.061013  0.490336  -0.519126
    O   O26   0.935336  0.924238  0.659486  -0.572515
    O   O27   0.004710  0.882414  0.564788  -0.573977
    O   O28   0.841930  0.890810  0.578039  -0.495320
    O   O29   0.948314  0.917622  0.447691  -0.566788
    O   O30   0.590820  0.436443  0.468243  -0.566674
