# Generated by REPEAT Assigner based on pymatgen
data_DB0-m3_o440_o158_f0_fsc.sym.31_sqe
_audit_creation_date              2022-05-24
_audit_creation_method            REPEAT_Assigner
_cell_length_a                    13.411562
_cell_length_b                    8.550179
_cell_length_c                    13.461725
_cell_angle_alpha                 90.000000
_cell_angle_beta                  90.984010
_cell_angle_gamma                 90.000000
_cell_volume                      1543.445320
_symmetry_space_group_name_H-M    P1
_symmetry_Int_Tables_number       1
loop_
    _symmetry_equiv_pos_site_id
    _symmetry_equiv_pos_as_xyz
    1  x,y,z
loop_
    _atom_site_type_symbol
    _atom_site_label
    _atom_site_fract_x
    _atom_site_fract_y
    _atom_site_fract_z
    _atom_type_partial_charge
    C   C1   0.985542  0.145828  0.695502  0.126842
    C   C2   0.014199  0.866420  0.304759  0.000493
    C   C3   0.014458  0.145828  0.304498  0.126904
    C   C4   0.985801  0.866420  0.695241  0.000501
    C   C5   0.996406  0.146387  0.797535  -0.319218
    C   C6   0.003356  0.865460  0.202714  -0.310693
    C   C7   0.003594  0.146387  0.202465  -0.319238
    C   C8   0.996644  0.865460  0.797286  -0.310690
    H   H1   0.002275  0.255797  0.837450  0.137302
    H   H2   0.997342  0.755899  0.162988  0.153376
    H   H3   0.997725  0.255796  0.162550  0.137303
    H   H4   0.002658  0.755899  0.837012  0.153389
    C   C9   0.997563  0.005816  0.848625  0.365840
    C   C10  0.002437  0.005816  0.151375  0.365828
    C   C11  0.974418  0.006210  0.646381  -0.217173
    C   C12  0.025582  0.006210  0.353619  -0.217207
    C   C13  0.999671  0.005642  0.955238  -0.189405
    C   C14  0.000329  0.005642  0.044762  -0.189363
    H   H5   0.961110  0.006374  0.567657  0.125981
    H   H6   0.038890  0.006373  0.432343  0.125972
    O   O1   0.079548  0.675496  0.608461  -0.670533
    O   O2   0.920825  0.336822  0.391205  -0.632225
    O   O3   0.920453  0.675496  0.391539  -0.670577
    O   O4   0.079175  0.336822  0.608795  -0.632237
    O   O5   0.907681  0.669752  0.596501  -0.754869
    O   O6   0.092524  0.342916  0.402905  -0.641858
    O   O7   0.092320  0.669752  0.403499  -0.754905
    O   O8   0.907476  0.342916  0.597095  -0.641867
    C   C15  0.991062  0.724467  0.635151  0.880763
    C   C16  0.009222  0.287979  0.364379  0.705421
    C   C17  0.008939  0.724467  0.364850  0.880891
    C   C18  0.990778  0.287980  0.635621  0.705481
    Zn  Zn1  0.888861  0.505825  0.490099  1.010868
    Zn  Zn2  0.111139  0.505825  0.509901  1.010891
    C   C19  0.286193  0.517917  0.430356  -0.097780
    C   C20  0.713807  0.517917  0.569644  -0.097827
    N   N1   0.241998  0.505207  0.519398  0.064569
    N   N2   0.758002  0.505207  0.480602  0.064608
    C   C21  0.298271  0.470351  0.601139  -0.093760
    C   C22  0.701729  0.470351  0.398861  -0.093780
    C   C23  0.401673  0.464824  0.594773  0.136272
    C   C24  0.598327  0.464824  0.405227  0.136279
    C   C25  0.445975  0.475437  0.503607  0.043712
    C   C26  0.554025  0.475437  0.496393  0.043701
    C   C27  0.387351  0.494549  0.419980  -0.127438
    C   C28  0.612649  0.494549  0.580020  -0.127396
    C   C29  0.464814  0.433412  0.684878  -0.381600
    C   C30  0.535186  0.433412  0.315122  -0.381616
    C   C31  0.567352  0.508035  0.680465  0.385454
    C   C32  0.432648  0.508035  0.319535  0.385522
    H   H7   0.473972  0.305141  0.693215  0.154706
    H   H8   0.570287  0.481302  0.247719  0.142426
    H   H9   0.526029  0.305141  0.306785  0.154703
    H   H10  0.429714  0.481302  0.752281  0.142429
    H   H11  0.241419  0.541303  0.364931  0.182006
    H   H12  0.758581  0.541303  0.635069  0.182023
    C   C33  0.251858  0.428024  0.695558  0.667942
    O   O9   0.281053  0.312808  0.740825  -0.514573
    O   O10  0.177959  0.520681  0.736228  -0.537713
    H   H13  0.156123  0.474942  0.801690  0.399733
    C   C34  0.748142  0.428024  0.304442  0.667954
    O   O11  0.718947  0.312808  0.259175  -0.514574
    O   O12  0.822042  0.520681  0.263772  -0.537728
    H   H14  0.843877  0.474942  0.198310  0.399742
    C   C35  0.630272  0.425201  0.756779  0.493065
    O   O13  0.690488  0.326670  0.731529  -0.482020
    O   O14  0.612107  0.447326  0.857268  -0.524085
    H   H15  0.657756  0.378144  0.898706  0.404927
    C   C36  0.440379  0.677243  0.293915  0.558620
    O   O15  0.392771  0.730669  0.223820  -0.490235
    O   O16  0.501007  0.775007  0.351289  -0.577442
    H   H16  0.497555  0.885594  0.324658  0.422176
    C   C37  0.369728  0.425201  0.243221  0.493062
    O   O17  0.309512  0.326670  0.268471  -0.482022
    O   O18  0.387893  0.447326  0.142732  -0.524096
    H   H17  0.342244  0.378144  0.101294  0.404931
    C   C38  0.559622  0.677243  0.706085  0.558626
    O   O19  0.607229  0.730669  0.776180  -0.490226
    O   O20  0.498993  0.775007  0.648711  -0.577436
    H   H18  0.502446  0.885594  0.675342  0.422169
