# Generated by REPEAT Assigner based on pymatgen
data_DB0-m3_o1510_o23_f0_fsc.sym.40_sqe
_audit_creation_date              2022-05-24
_audit_creation_method            REPEAT_Assigner
_cell_length_a                    14.262353
_cell_length_b                    8.549052
_cell_length_c                    19.351430
_cell_angle_alpha                 90.000000
_cell_angle_beta                  91.011284
_cell_angle_gamma                 90.000000
_cell_volume                      2359.144674
_symmetry_space_group_name_H-M    P1
_symmetry_Int_Tables_number       1
loop_
    _symmetry_equiv_pos_site_id
    _symmetry_equiv_pos_as_xyz
    1  x,y,z
loop_
    _atom_site_type_symbol
    _atom_site_label
    _atom_site_fract_x
    _atom_site_fract_y
    _atom_site_fract_z
    _atom_type_partial_charge
    H   H1   0.047276  0.978304  0.540368  0.072549
    H   H2   0.963467  0.978466  0.444758  0.117898
    C   C1   0.019196  0.117650  0.628176  0.045106
    C   C2   0.990365  0.117604  0.356689  -0.080606
    C   C3   0.000947  0.118335  0.697885  -0.249358
    C   C4   0.007200  0.118220  0.286764  -0.247664
    H   H3   0.987888  0.229063  0.722684  0.108390
    H   H4   0.019916  0.228889  0.261816  0.131110
    C   C5   0.999857  0.978622  0.734692  0.145238
    C   C6   0.007314  0.978458  0.249948  0.157047
    C   C7   0.004935  0.838109  0.698601  -0.253127
    C   C8   0.002330  0.837971  0.286074  -0.213465
    H   H5   0.001666  0.726442  0.724289  0.123336
    H   H6   0.004807  0.726288  0.260339  0.114846
    C   C9   0.019267  0.839193  0.628301  -0.057527
    C   C10  0.989242  0.839150  0.356516  -0.058863
    C   C11  0.032820  0.978387  0.594732  -0.073152
    C   C12  0.976972  0.978448  0.390252  -0.026583
    C   C13  0.037775  0.851324  0.065642  -0.126586
    C   C14  0.967484  0.851696  0.918833  -0.126362
    H   H7   0.062943  0.750634  0.037739  0.100455
    H   H8   0.942057  0.751033  0.946626  0.102309
    C   C15  0.042479  0.852427  0.136944  -0.164323
    C   C16  0.963265  0.852877  0.847518  -0.192348
    H   H9   0.072855  0.752327  0.162771  0.116549
    H   H10  0.932976  0.752878  0.821560  0.127372
    C   C17  0.010262  0.980351  0.173664  0.047950
    C   C18  0.995998  0.980648  0.810947  0.088509
    C   C19  0.975927  0.108437  0.137257  -0.116133
    C   C20  0.030231  0.108591  0.847511  -0.136968
    H   H11  0.946066  0.207675  0.163315  0.099178
    H   H12  0.060510  0.207682  0.821611  0.119890
    C   C21  0.975066  0.109348  0.066051  -0.155978
    C   C22  0.030599  0.109445  0.918709  -0.176482
    H   H13  0.947112  0.209609  0.038610  0.111275
    H   H14  0.058614  0.209500  0.946265  0.110867
    C   C23  0.004519  0.980025  0.030053  0.066156
    C   C24  0.000749  0.980195  0.954567  0.090911
    O   O1   0.092408  0.647832  0.558298  -0.735282
    O   O2   0.916711  0.647433  0.426574  -0.695040
    O   O3   0.931652  0.641723  0.569803  -0.725315
    O   O4   0.077429  0.642117  0.415059  -0.695214
    C   C25  0.014916  0.696893  0.586645  0.871321
    C   C26  0.994043  0.696871  0.398195  0.802670
    O   O5   0.916977  0.308966  0.426629  -0.706531
    O   O6   0.092593  0.309301  0.558212  -0.637068
    O   O7   0.077742  0.315396  0.414999  -0.700964
    O   O8   0.931800  0.315038  0.569835  -0.688618
    C   C27  0.994585  0.259862  0.398344  0.820930
    C   C28  0.015015  0.259825  0.586470  0.731975
    Zn  Zn1  0.900507  0.478260  0.497865  1.079013
    Zn  Zn2  0.108824  0.478722  0.486986  1.085967
    C   C29  0.553546  0.391353  0.558575  -0.097840
    C   C30  0.453504  0.369226  0.433748  -0.171294
    C   C31  0.558695  0.391967  0.429216  -0.075712
    C   C32  0.449869  0.430373  0.560908  -0.162630
    H   H15  0.564831  0.264276  0.556473  -0.035979
    H   H16  0.436782  0.246080  0.445037  0.014916
    H   H17  0.571752  0.474950  0.386415  0.044382
    H   H18  0.443708  0.536217  0.593517  0.030027
    H   H19  0.420440  0.399274  0.383175  0.058978
    H   H20  0.588668  0.437060  0.606012  0.044660
    N   N1   0.231692  0.479338  0.483103  0.003135
    N   N2   0.777645  0.478380  0.501732  0.028634
    C   C33  0.593845  0.471382  0.495466  0.710913
    C   C34  0.415532  0.476995  0.488844  0.741137
    C   C35  0.453901  0.638889  0.474965  -0.229392
    C   C36  0.557851  0.638976  0.493739  -0.063650
    C   C37  0.312859  0.478627  0.485273  -0.272408
    C   C38  0.696506  0.475911  0.499368  -0.308864
    H   H21  0.568957  0.693394  0.545253  -0.000316
    H   H22  0.444063  0.667813  0.419453  0.028914
    H   H23  0.596481  0.707905  0.454908  0.015123
    H   H24  0.417043  0.727367  0.506394  0.072613
    C   C39  0.392016  0.304889  0.594194  0.096087
    C   C40  0.399690  0.147668  0.577310  -0.122267
    C   C41  0.349867  0.036731  0.613082  -0.301945
    C   C42  0.291611  0.080541  0.665609  0.322478
    C   C43  0.240817  0.958554  0.705009  -0.330477
    C   C44  0.281990  0.236610  0.681777  -0.280237
    C   C45  0.332090  0.347885  0.646436  -0.114558
    H   H25  0.446281  0.106917  0.538029  0.117638
    H   H26  0.357670  0.914329  0.600466  0.146776
    H   H27  0.292418  0.880893  0.731399  0.065116
    H   H28  0.197170  0.888092  0.668773  0.115915
    H   H29  0.195408  0.013380  0.744108  0.093573
    H   H30  0.236377  0.272783  0.722839  0.139588
    H   H31  0.324308  0.469322  0.660784  0.103935
    C   C46  0.602857  0.238983  0.409252  -0.038895
    C   C47  0.665044  0.153187  0.450411  -0.044008
    C   C48  0.700195  0.012764  0.426943  -0.339871
    C   C49  0.674376  0.956545  0.362576  0.479981
    C   C50  0.711456  0.804907  0.337036  -0.442282
    C   C51  0.613299  0.041259  0.321553  -0.353245
    C   C52  0.577781  0.180989  0.344864  -0.096065
    H   H32  0.687266  0.189287  0.501295  0.127701
    H   H33  0.748063  0.947057  0.459713  0.135853
    H   H34  0.757313  0.749994  0.376920  0.133857
    H   H35  0.752227  0.825377  0.289609  0.112689
    H   H36  0.652085  0.725248  0.324801  0.079518
    H   H37  0.592787  0.997844  0.271044  0.152858
    H   H38  0.529620  0.245960  0.312053  0.115678
