# Generated by REPEAT Assigner based on pymatgen
data_DB0-m2_o6_o24_f0_pcu.sym.1_sqe
_audit_creation_date              2022-05-24
_audit_creation_method            REPEAT_Assigner
_cell_length_a                    16.039580
_cell_length_b                    14.620374
_cell_length_c                    10.671784
_cell_angle_alpha                 90.000000
_cell_angle_beta                  90.000212
_cell_angle_gamma                 90.000000
_cell_volume                      2502.582948
_symmetry_space_group_name_H-M    P1
_symmetry_Int_Tables_number       1
loop_
    _symmetry_equiv_pos_site_id
    _symmetry_equiv_pos_as_xyz
    1  x,y,z
loop_
    _atom_site_type_symbol
    _atom_site_label
    _atom_site_fract_x
    _atom_site_fract_y
    _atom_site_fract_z
    _atom_type_partial_charge
    O   O1   0.378694  0.579075  0.496819  -0.651769
    O   O2   0.620503  0.420752  0.497268  -0.635081
    O   O3   0.621004  0.578304  0.496805  -0.635805
    O   O4   0.378194  0.421852  0.497238  -0.652998
    C   C1   0.339602  0.500614  0.500495  0.888110
    C   C2   0.659553  0.499388  0.500521  0.922204
    O   O5   0.502495  0.578512  0.318689  -0.620108
    O   O6   0.501974  0.421635  0.683324  -0.637378
    O   O7   0.502521  0.578886  0.682883  -0.628054
    O   O8   0.501978  0.420947  0.319131  -0.611926
    C   C3   0.500036  0.499649  0.260605  0.576952
    C   C4   0.500072  0.500359  0.741483  0.525654
    Cu  Cu1  0.499884  0.591602  0.500766  1.016470
    Cu  Cu2  0.499296  0.408401  0.501276  1.021290
    C   C5   0.250140  0.500873  0.499027  -0.270742
    C   C6   0.749009  0.499127  0.499075  -0.325076
    H   H1   0.592330  0.084304  0.643719  0.161949
    H   H2   0.406892  0.915703  0.358223  0.162075
    H   H3   0.406221  0.083954  0.358815  0.161241
    H   H4   0.593002  0.916054  0.643129  0.159689
    C   C7   0.551976  0.952939  0.580641  -0.164022
    C   C8   0.447252  0.047067  0.421296  -0.168365
    C   C9   0.447650  0.952747  0.420933  -0.175706
    C   C10  0.551579  0.047258  0.581004  -0.177682
    C   C11  0.500019  0.905683  0.500590  0.234397
    C   C12  0.499211  0.094322  0.501342  0.237006
    C   C13  0.434154  0.544292  0.042162  -0.122178
    C   C14  0.566745  0.455704  0.959894  -0.082830
    C   C15  0.502379  0.585419  0.960804  -0.072488
    C   C16  0.498508  0.414585  0.041280  -0.078074
    C   C17  0.432241  0.459375  0.959898  -0.085525
    C   C18  0.568659  0.540635  0.042221  -0.107208
    H   H5   0.375473  0.425701  0.922597  0.046538
    H   H6   0.625433  0.574314  0.079492  0.057180
    H   H7   0.378996  0.581068  0.079423  0.059509
    H   H8   0.621913  0.418931  0.922660  0.047995
    H   H9   0.504024  0.656658  0.925189  0.046650
    H   H10  0.496849  0.343346  0.076899  0.042780
    C   C19  0.500463  0.500472  0.880799  0.283096
    C   C20  0.500421  0.499533  0.121292  0.243487
    C   C21  0.500256  0.807533  0.500421  0.070159
    C   C22  0.498963  0.192471  0.501531  0.071964
    N   N1   0.498881  0.271607  0.501607  -0.174968
    N   N2   0.500334  0.728397  0.500369  -0.171766
    C   C23  0.824134  0.499195  0.498140  -0.040584
    C   C24  0.175015  0.500802  0.498093  -0.081423
    H   H11  0.075657  0.646103  0.497402  0.140298
    H   H12  0.923489  0.353893  0.497445  0.137979
    H   H13  0.922299  0.645327  0.497422  0.137109
    H   H14  0.076848  0.354665  0.497424  0.139336
    C   C25  0.956261  0.581464  0.497275  -0.167837
    C   C26  0.042890  0.418530  0.497273  -0.177117
    C   C27  0.042235  0.581899  0.497261  -0.180499
    C   C28  0.956916  0.418096  0.497288  -0.170629
    C   C29  0.913602  0.499569  0.497376  0.225527
    C   C30  0.085552  0.500426  0.497344  0.251192
