# Generated by REPEAT Assigner based on pymatgen
data_DB0-m3_o15_o25_f0_nbo.sym.49
_audit_creation_date              2022-05-24
_audit_creation_method            REPEAT_Assigner
_cell_length_a                    38.164763
_cell_length_b                    21.953045
_cell_length_c                    21.927401
_cell_angle_alpha                 90.000000
_cell_angle_beta                  122.820455
_cell_angle_gamma                 90.000000
_cell_volume                      15438.911830
_symmetry_space_group_name_H-M    P1
_symmetry_Int_Tables_number       1
loop_
    _symmetry_equiv_pos_site_id
    _symmetry_equiv_pos_as_xyz
    1  x,y,z
loop_
    _atom_site_type_symbol
    _atom_site_label
    _atom_site_fract_x
    _atom_site_fract_y
    _atom_site_fract_z
    _atom_type_partial_charge
    C   C1    0.999641  0.995520  0.619073  0.764749
    C   C2    0.265170  0.027088  0.711272  -0.482147
    C   C3    0.453986  0.585563  0.144774  -0.120936
    C   C4    0.072499  0.123218  0.848628  -0.262722
    C   C5    0.926292  0.122745  0.148974  -0.253876
    C   C6    0.572499  0.623218  0.848628  -0.262741
    C   C7    0.426292  0.622745  0.148974  -0.253888
    C   C8    0.078916  0.114428  0.792824  -0.081383
    C   C9    0.920636  0.115250  0.205833  -0.086448
    C   C10   0.578916  0.614428  0.792824  -0.081364
    C   C11   0.420636  0.615250  0.205833  -0.086449
    C   C12   0.056574  0.069854  0.741763  -0.150392
    C   C13   0.235257  0.526112  0.289452  -0.500155
    C   C14   0.943566  0.071639  0.257902  -0.149484
    C   C15   0.556574  0.569854  0.741763  -0.150422
    C   C16   0.443566  0.571639  0.257902  -0.149477
    C   C17   0.499976  0.116742  0.999242  0.778789
    C   C18   0.999976  0.616742  0.999242  0.778836
    C   C19   0.581387  0.997213  0.085687  0.527322
    C   C20   0.418662  0.996799  0.915174  0.520350
    C   C21   0.081387  0.497213  0.085687  0.527297
    C   C22   0.918662  0.496799  0.915174  0.520322
    C   C23   0.500107  0.877803  0.001555  0.792622
    C   C24   0.765170  0.527088  0.711272  -0.482120
    C   C25   0.000107  0.377803  0.001555  0.792645
    C   C26   0.000846  0.116913  0.000949  0.464527
    C   C27   0.500846  0.616913  0.000949  0.464538
    C   C28   0.000511  0.997539  0.881014  0.619313
    C   C29   0.999567  0.997680  0.119051  0.631698
    C   C30   0.500511  0.497539  0.881014  0.619298
    C   C31   0.499567  0.497680  0.119051  0.631682
    C   C32   0.999254  0.878175  0.999299  0.606584
    C   C33   0.499254  0.378175  0.999299  0.606599
    C   C34   0.557256  0.187022  0.981039  -0.304541
    C   C35   0.762390  0.969942  0.316793  -0.355994
    C   C36   0.442319  0.185936  0.017600  -0.299571
    C   C37   0.057256  0.687022  0.981039  -0.304560
    C   C38   0.942319  0.685936  0.017600  -0.299732
    C   C39   0.580322  0.218454  0.960383  -0.019416
    C   C40   0.419033  0.216883  0.038150  -0.019811
    C   C41   0.080322  0.718454  0.960383  -0.019405
    C   C42   0.919033  0.716883  0.038150  -0.019738
    C   C43   0.073392  0.779346  0.944907  -0.080313
    C   C44   0.925559  0.777832  0.053495  -0.080931
    C   C45   0.573392  0.279346  0.944907  -0.080299
    C   C46   0.237691  0.971293  0.683276  -0.371923
    C   C47   0.425559  0.277832  0.053495  -0.080904
    C   C48   0.045628  0.809872  0.955303  -0.263735
    C   C49   0.953143  0.808885  0.043085  -0.262056
    C   C50   0.545628  0.309872  0.955303  -0.263756
    C   C51   0.453143  0.308885  0.043085  -0.262089
    C   C52   0.023911  0.779407  0.980580  0.147203
    C   C53   0.975084  0.778900  0.017935  0.141527
    C   C54   0.523911  0.279407  0.980580  0.147248
    C   C55   0.475084  0.278900  0.017935  0.141600
    C   C56   0.526855  0.216456  0.986887  0.177486
    C   C57   0.262390  0.469942  0.316793  -0.355986
    C   C58   0.472552  0.215920  0.011752  0.178198
    C   C59   0.026855  0.716456  0.986887  0.177552
    C   C60   0.972552  0.715920  0.011752  0.178350
    C   C61   0.999401  0.811078  0.999244  -0.158356
    C   C62   0.499401  0.311078  0.999244  -0.158394
    C   C63   0.499815  0.184054  0.999362  -0.239364
    C   C64   0.999815  0.684054  0.999362  -0.239485
    C   C65   0.441309  0.809030  0.876604  -0.200356
    C   C66   0.559396  0.809106  0.126103  -0.209392
    C   C67   0.941309  0.309030  0.876604  -0.200380
    C   C68   0.737691  0.471293  0.683276  -0.371955
    C   C69   0.059396  0.309106  0.126103  -0.209408
    C   C70   0.416164  0.778177  0.812361  -0.191669
    C   C71   0.584805  0.778193  0.190186  -0.183546
    C   C72   0.916164  0.278177  0.812361  -0.191656
    C   C73   0.084805  0.278193  0.190186  -0.183533
    C   C74   0.922450  0.216942  0.808999  0.059613
    C   C75   0.078927  0.216784  0.193323  0.053562
    C   C76   0.422450  0.716942  0.808999  0.059621
    C   C77   0.578927  0.716784  0.193323  0.053577
    C   C78   0.951448  0.186025  0.870576  -0.365326
    C   C79   0.873732  0.995582  0.378299  0.262981
    C   C80   0.050090  0.185819  0.131643  -0.329452
    C   C81   0.451448  0.686025  0.870576  -0.365336
    C   C82   0.550090  0.685819  0.131643  -0.329473
    C   C83   0.974958  0.215984  0.936834  0.142708
    C   C84   0.026329  0.215904  0.065520  0.073574
    C   C85   0.474958  0.715984  0.936834  0.142730
    C   C86   0.526329  0.715904  0.065520  0.073598
    C   C87   0.472422  0.778853  0.938294  0.279715
    C   C88   0.528421  0.778845  0.064348  0.296729
    C   C89   0.972422  0.278853  0.938294  0.279745
    C   C90   0.126368  0.998140  0.621419  0.267339
    C   C91   0.028421  0.278845  0.064348  0.296752
    C   C92   0.000730  0.183995  0.001103  0.050027
    C   C93   0.500730  0.683995  0.001103  0.050005
    C   C94   0.500289  0.810739  0.001413  -0.361148
    C   C95   0.000289  0.310739  0.001413  -0.361182
    C   C96   0.777657  0.939308  0.387470  0.803323
    C   C97   0.815926  0.943019  0.515593  -0.048209
    C   C98   0.222487  0.941007  0.612433  0.808023
    C   C99   0.184744  0.945508  0.484376  -0.047607
    C   C100  0.277657  0.439308  0.387470  0.803307
    C   C101  0.373732  0.495582  0.378299  0.263096
    C   C102  0.315926  0.443019  0.515593  -0.048205
    C   C103  0.722487  0.441007  0.612433  0.808024
    C   C104  0.684744  0.445508  0.484376  -0.047618
    C   C105  0.096642  0.167286  0.907519  0.838562
    C   C106  0.100781  0.235800  0.994325  0.126392
    C   C107  0.901200  0.165319  0.088710  0.829285
    C   C108  0.894756  0.229920  0.996936  0.119009
    C   C109  0.596642  0.667286  0.907519  0.838568
    C   C110  0.600781  0.735800  0.994325  0.126395
    C   C111  0.401200  0.665319  0.088710  0.829296
    C   C112  0.000400  0.997874  0.380739  0.766263
    C   C113  0.626368  0.498140  0.621419  0.267402
    C   C114  0.394756  0.729920  0.996936  0.119009
    C   C115  0.617465  0.810822  0.254758  0.728302
    C   C116  0.653756  0.902250  0.310506  -0.014076
    C   C117  0.383343  0.810673  0.747839  0.729389
    C   C118  0.346514  0.901771  0.692218  -0.014396
    C   C119  0.117465  0.310822  0.254758  0.728298
    C   C120  0.153756  0.402250  0.310506  -0.014077
    C   C121  0.883343  0.310673  0.747839  0.729382
    C   C122  0.846514  0.401771  0.692218  -0.014400
    C   C123  0.719531  0.059395  0.329262  0.761979
    C   C124  0.626087  0.996821  0.131358  0.303368
    C   C125  0.663155  0.097116  0.334476  -0.153197
    C   C126  0.281288  0.060262  0.672004  0.759175
    C   C127  0.338095  0.097260  0.667624  -0.159478
    C   C128  0.219531  0.559395  0.329262  0.761977
    C   C129  0.163155  0.597116  0.334476  -0.153169
    C   C130  0.781288  0.560262  0.672004  0.759175
    C   C131  0.838095  0.597260  0.667624  -0.159476
    C   C132  0.724161  0.055810  0.124690  0.808824
    C   C133  0.670457  0.089821  0.008316  -0.095525
    C   C134  0.275900  0.056244  0.875881  0.809312
    C   C135  0.373967  0.996536  0.869477  0.309706
    C   C136  0.329518  0.088824  0.993025  -0.087724
    C   C137  0.224161  0.555810  0.124690  0.808820
    C   C138  0.170457  0.589821  0.008316  -0.095529
    C   C139  0.775900  0.556244  0.875881  0.809314
    C   C140  0.829518  0.588824  0.993025  -0.087695
    C   C141  0.777727  0.118094  0.281590  0.894580
    C   C142  0.832217  0.190425  0.337469  -0.005809
    C   C143  0.223126  0.119548  0.719294  0.896645
    C   C144  0.169132  0.192590  0.662851  -0.002283
    C   C145  0.277727  0.618094  0.281590  0.894583
    C   C146  0.126087  0.496821  0.131358  0.303387
    C   C147  0.332217  0.690425  0.337469  -0.005786
    C   C148  0.723126  0.619548  0.719294  0.896652
    C   C149  0.669132  0.692590  0.662851  -0.002282
    C   C150  0.105951  0.154521  0.781756  0.664980
    C   C151  0.132409  0.252853  0.784898  0.029653
    C   C152  0.893675  0.155643  0.216733  0.664527
    C   C153  0.866948  0.254035  0.212274  0.032151
    C   C154  0.605951  0.654521  0.781756  0.664978
    C   C155  0.632409  0.752853  0.784898  0.029656
    C   C156  0.393675  0.655643  0.216733  0.664526
    C   C157  0.873967  0.496536  0.869477  0.309708
    C   C158  0.366948  0.754035  0.212274  0.032154
    C   C159  0.763517  0.053462  0.268237  -0.385260
    C   C160  0.236925  0.054731  0.732351  -0.402660
    C   C161  0.263517  0.553462  0.268237  -0.385260
    C   C162  0.736925  0.554731  0.732351  -0.402697
    C   C163  0.790521  0.997232  0.295585  1.158552
    C   C164  0.499641  0.495520  0.619073  0.764877
    C   C165  0.209574  0.998877  0.704348  1.176224
    C   C166  0.290521  0.497232  0.295585  1.158533
    C   C167  0.709574  0.498877  0.704348  1.176283
    C   C168  0.737470  0.024346  0.194272  -0.480886
    C   C169  0.262620  0.025163  0.806105  -0.467007
    C   C170  0.237470  0.524346  0.194272  -0.480883
    C   C171  0.762620  0.525163  0.806105  -0.466976
    C   C172  0.709263  0.997009  0.215436  1.259513
    C   C173  0.290813  0.997534  0.785080  1.240741
    C   C174  0.209263  0.497009  0.215436  1.259509
    C   C175  0.500400  0.497874  0.380739  0.766353
    C   C176  0.790813  0.497534  0.785080  1.240711
    C   C177  0.764766  0.967768  0.221232  -0.188787
    C   C178  0.234976  0.968958  0.778485  -0.195270
    C   C179  0.264766  0.467768  0.221232  -0.188781
    C   C180  0.734976  0.468958  0.778485  -0.195301
    C   C181  0.736141  0.940003  0.242735  -0.211790
    C   C182  0.263589  0.940900  0.757124  -0.201248
    C   C183  0.236141  0.440003  0.242735  -0.211796
    C   C184  0.763589  0.440900  0.757124  -0.201227
    C   C185  0.836157  0.996147  0.341145  -0.822920
    C   C186  0.918505  0.995436  0.422038  0.592336
    C   C187  0.163941  0.998378  0.658622  -0.828871
    C   C188  0.336157  0.496147  0.341145  -0.822939
    C   C189  0.663941  0.498378  0.658622  -0.828923
    C   C190  0.663627  0.996671  0.169527  -0.888790
    C   C191  0.336433  0.996678  0.831216  -0.887361
    C   C192  0.163627  0.496671  0.169527  -0.888797
    C   C193  0.836433  0.496678  0.831216  -0.887346
    C   C194  0.944326  0.920324  0.637591  -0.166599
    C   C195  0.055605  0.922043  0.363141  -0.161448
    C   C196  0.444326  0.420324  0.637591  -0.166672
    C   C197  0.081597  0.998078  0.577680  0.587295
    C   C198  0.555605  0.422043  0.363141  -0.161475
    C   C199  0.922658  0.876578  0.648838  -0.101891
    C   C200  0.077719  0.878540  0.352637  -0.107005
    C   C201  0.422658  0.376578  0.648838  -0.101868
    C   C202  0.577719  0.378540  0.352637  -0.106987
    C   C203  0.929489  0.868914  0.716433  -0.070973
    C   C204  0.071544  0.871043  0.285485  -0.067352
    C   C205  0.429489  0.368914  0.716433  -0.070979
    C   C206  0.571544  0.371043  0.285485  -0.067365
    C   C207  0.955960  0.907607  0.771757  -0.261924
    C   C208  0.418505  0.495436  0.422038  0.592070
    C   C209  0.045075  0.909424  0.229753  -0.267669
    C   C210  0.455960  0.407607  0.771757  -0.261913
    C   C211  0.545075  0.409424  0.229753  -0.267661
    C   C212  0.976694  0.953960  0.760321  0.157533
    C   C213  0.023729  0.955358  0.240343  0.160835
    C   C214  0.476694  0.453960  0.760321  0.157477
    C   C215  0.523729  0.455358  0.240343  0.160813
    C   C216  0.973760  0.956774  0.694560  0.144602
    C   C217  0.026365  0.958396  0.305835  0.144926
    C   C218  0.473760  0.456774  0.694560  0.144717
    C   C219  0.581597  0.498078  0.577680  0.587220
    C   C220  0.526365  0.458396  0.305835  0.144969
    C   C221  0.000236  0.997111  0.813766  -0.156451
    C   C222  0.999807  0.997804  0.186220  -0.163491
    C   C223  0.500236  0.497111  0.813766  -0.156405
    C   C224  0.499807  0.497804  0.186220  -0.163456
    C   C225  0.023814  0.039379  0.803592  0.147851
    C   C226  0.975818  0.039904  0.195590  0.150943
    C   C227  0.523814  0.539379  0.803592  0.147810
    C   C228  0.475818  0.539904  0.195590  0.150911
    C   C229  0.026719  0.034920  0.743613  0.104742
    C   C230  0.735257  0.026112  0.289452  -0.500175
    C   C231  0.973232  0.036316  0.255952  0.103105
    C   C232  0.526719  0.534920  0.743613  0.104813
    C   C233  0.473232  0.536316  0.255952  0.103146
    C   C234  0.000008  0.995775  0.686730  -0.221184
    C   C235  0.000039  0.997574  0.313172  -0.216850
    C   C236  0.500008  0.495775  0.686730  -0.221334
    C   C237  0.500039  0.497574  0.313172  -0.216935
    C   C238  0.044937  0.086069  0.853208  -0.113015
    C   C239  0.953986  0.085563  0.144774  -0.120947
    C   C240  0.544937  0.586069  0.853208  -0.112999
    H   H1    0.724254  0.892579  0.232347  0.099106
    H   H2    0.062591  0.926578  0.417564  0.147072
    H   H3    0.372631  0.097820  0.702549  0.098669
    H   H4    0.326426  0.144825  0.655988  0.115250
    H   H5    0.328309  0.073254  0.616239  0.086521
    H   H6    0.128618  0.598192  0.299771  0.096325
    H   H7    0.175155  0.644504  0.346445  0.113531
    H   H8    0.172897  0.572881  0.385710  0.085183
    H   H9    0.872631  0.597820  0.702549  0.098670
    H   H10   0.826426  0.644825  0.655988  0.115249
    H   H11   0.828309  0.573254  0.616239  0.086521
    H   H12   0.635925  0.088791  0.973514  0.103991
    H   H13   0.436797  0.425033  0.582855  0.152928
    H   H14   0.683283  0.065701  0.980114  0.070812
    H   H15   0.681149  0.137878  0.018522  0.089494
    H   H16   0.364024  0.087124  0.028224  0.101233
    H   H17   0.316247  0.064692  0.020490  0.069163
    H   H18   0.319248  0.137077  0.983398  0.087947
    H   H19   0.135925  0.588791  0.973514  0.103993
    H   H20   0.183283  0.565701  0.980114  0.070813
    H   H21   0.181149  0.637878  0.018522  0.089494
    H   H22   0.864024  0.587124  0.028224  0.101220
    H   H23   0.816247  0.564692  0.020490  0.069160
    H   H24   0.562591  0.426578  0.417564  0.147074
    H   H25   0.819248  0.637077  0.983398  0.087941
    H   H26   0.866789  0.191188  0.370395  0.092348
    H   H27   0.820458  0.212341  0.368586  0.048831
    H   H28   0.820781  0.215677  0.286220  0.036627
    H   H29   0.134569  0.193825  0.629584  0.091488
    H   H30   0.181226  0.214072  0.632028  0.048862
    H   H31   0.180554  0.217947  0.714028  0.033638
    H   H32   0.366789  0.691188  0.370395  0.092339
    H   H33   0.320458  0.712341  0.368586  0.048827
    H   H34   0.320781  0.715677  0.286220  0.036621
    H   H35   0.900784  0.847467  0.604647  0.111205
    H   H36   0.634569  0.693825  0.629584  0.091488
    H   H37   0.681226  0.714072  0.632028  0.048862
    H   H38   0.680554  0.717947  0.714028  0.033637
    H   H39   0.131015  0.299409  0.803086  0.053031
    H   H40   0.119802  0.253909  0.725921  0.033781
    H   H41   0.165313  0.237286  0.815432  0.097783
    H   H42   0.868074  0.300342  0.193213  0.053806
    H   H43   0.879777  0.255797  0.271314  0.031711
    H   H44   0.834104  0.238226  0.182364  0.095458
    H   H45   0.631015  0.799409  0.803086  0.053030
    H   H46   0.099479  0.849545  0.397088  0.112721
    H   H47   0.619802  0.753909  0.725921  0.033780
    H   H48   0.665313  0.737286  0.815432  0.097783
    H   H49   0.368074  0.800342  0.193213  0.053804
    H   H50   0.379777  0.755797  0.271314  0.031711
    H   H51   0.334104  0.738226  0.182364  0.095458
    H   H52   0.400784  0.347467  0.604647  0.111198
    H   H53   0.599479  0.349545  0.397088  0.112717
    H   H54   0.913323  0.833407  0.725817  0.097465
    H   H55   0.088151  0.835816  0.276742  0.097450
    H   H56   0.413323  0.333407  0.725817  0.097465
    H   H57   0.275174  0.893317  0.767229  0.098044
    H   H58   0.588151  0.335816  0.276742  0.097455
    H   H59   0.960183  0.899265  0.823786  0.186603
    H   H60   0.041373  0.901187  0.178099  0.186633
    H   H61   0.460183  0.399265  0.823786  0.186603
    H   H62   0.541373  0.401187  0.178099  0.186631
    H   H63   0.040985  0.094483  0.897514  0.154815
    H   H64   0.957403  0.092994  0.099723  0.158217
    H   H65   0.540985  0.594483  0.897514  0.154811
    H   H66   0.457403  0.592994  0.099723  0.158215
    H   H67   0.063091  0.063696  0.700186  0.195391
    H   H68   0.224254  0.392579  0.232347  0.099107
    H   H69   0.937659  0.066588  0.300356  0.194141
    H   H70   0.563091  0.563696  0.700186  0.195389
    H   H71   0.437659  0.566588  0.300356  0.194133
    H   H72   0.396177  0.192920  0.043667  0.078687
    H   H73   0.603319  0.194910  0.954877  0.078859
    H   H74   0.896177  0.692920  0.043667  0.078671
    H   H75   0.103319  0.694910  0.954877  0.078858
    H   H76   0.564591  0.139450  0.993498  0.197432
    H   H77   0.435277  0.138296  0.005217  0.194109
    H   H78   0.064591  0.639450  0.993498  0.197433
    H   H79   0.775174  0.393317  0.767229  0.098041
    H   H80   0.935277  0.638296  0.005217  0.194173
    H   H81   0.090493  0.803680  0.926245  0.096549
    H   H82   0.908277  0.801788  0.072055  0.097002
    H   H83   0.590493  0.303680  0.926245  0.096547
    H   H84   0.408277  0.301788  0.072055  0.097001
    H   H85   0.041307  0.857650  0.941843  0.183472
    H   H86   0.957139  0.856688  0.056414  0.184019
    H   H87   0.541307  0.357650  0.941843  0.183477
    H   H88   0.457139  0.356688  0.056414  0.184024
    H   H89   0.435222  0.856758  0.877639  0.135726
    H   H90   0.777423  0.944067  0.192543  0.113406
    H   H91   0.565173  0.856975  0.125244  0.137626
    H   H92   0.935222  0.356758  0.877639  0.135735
    H   H93   0.065173  0.356975  0.125244  0.137629
    H   H94   0.904173  0.192066  0.758693  0.080134
    H   H95   0.097416  0.191824  0.243514  0.079259
    H   H96   0.404173  0.692066  0.758693  0.080132
    H   H97   0.597416  0.691824  0.243514  0.079255
    H   H98   0.955098  0.138196  0.864306  0.193890
    H   H99   0.046780  0.137843  0.137732  0.187968
    H   H100  0.455098  0.638196  0.864306  0.193891
    H   H101  0.222028  0.945346  0.806754  0.112586
    H   H102  0.546780  0.637843  0.137732  0.187976
    H   H103  0.835606  0.975723  0.559791  0.095377
    H   H104  0.834842  0.902484  0.521548  0.070035
    H   H105  0.789126  0.929221  0.519153  0.061924
    H   H106  0.165311  0.978492  0.440370  0.095917
    H   H107  0.165638  0.905032  0.477775  0.070573
    H   H108  0.211660  0.931694  0.481165  0.061558
    H   H109  0.335606  0.475723  0.559791  0.095376
    H   H110  0.334842  0.402484  0.521548  0.070035
    H   H111  0.289126  0.429221  0.519153  0.061922
    H   H112  0.277423  0.444067  0.192543  0.113406
    H   H113  0.665311  0.478492  0.440370  0.095921
    H   H114  0.665638  0.405032  0.477775  0.070577
    H   H115  0.711660  0.431694  0.481165  0.061559
    H   H116  0.080050  0.255278  0.010073  0.014450
    H   H117  0.112979  0.273348  0.977060  0.036469
    H   H118  0.126941  0.211638  0.041582  0.034194
    H   H119  0.914434  0.247543  0.977991  0.015589
    H   H120  0.883287  0.268876  0.013627  0.036084
    H   H121  0.868038  0.204607  0.951994  0.037023
    H   H122  0.580050  0.755278  0.010073  0.014447
    H   H123  0.722028  0.445346  0.806754  0.112590
    H   H124  0.612979  0.773348  0.977060  0.036469
    H   H125  0.626941  0.711638  0.041582  0.034193
    H   H126  0.414434  0.747543  0.977991  0.015589
    H   H127  0.383287  0.768876  0.013627  0.036084
    H   H128  0.368038  0.704607  0.951994  0.037023
    H   H129  0.652529  0.950893  0.296063  0.078592
    H   H130  0.684562  0.883328  0.326721  0.088149
    H   H131  0.649152  0.898525  0.356157  0.054163
    H   H132  0.347445  0.950340  0.706692  0.080401
    H   H133  0.315815  0.882375  0.675956  0.089248
    H   H134  0.936797  0.925033  0.582855  0.152897
    H   H135  0.351157  0.898437  0.646583  0.054604
    H   H136  0.152529  0.450893  0.296063  0.078595
    H   H137  0.184562  0.383328  0.326721  0.088149
    H   H138  0.149152  0.398525  0.356157  0.054163
    H   H139  0.847445  0.450340  0.706692  0.080403
    H   H140  0.815815  0.382375  0.675956  0.089248
    H   H141  0.851157  0.398437  0.646583  0.054605
    H   H142  0.628618  0.098192  0.299771  0.096334
    H   H143  0.675155  0.144504  0.346445  0.113532
    H   H144  0.672897  0.072881  0.385710  0.085189
    O   O1    0.999316  0.047913  0.589828  -0.717749
    O   O2    0.062203  0.050658  0.559039  -0.625743
    O   O3    0.890370  0.215219  0.199391  -0.312750
    O   O4    0.623182  0.634607  0.752606  -0.498291
    O   O5    0.608948  0.714320  0.797993  -0.311020
    O   O6    0.376795  0.636235  0.246710  -0.493615
    O   O7    0.390370  0.715219  0.199391  -0.312750
    O   O8    0.437929  0.547964  0.437973  -0.640362
    O   O9    0.562203  0.550658  0.559039  -0.625726
    O   O10   0.937874  0.942882  0.443296  -0.671554
    O   O11   0.062190  0.945464  0.559240  -0.681338
    O   O12   0.437874  0.442882  0.443296  -0.671481
    O   O13   0.562190  0.445464  0.559240  -0.681321
    O   O14   0.499760  0.087733  0.051440  -0.693966
    O   O15   0.500209  0.088221  0.946829  -0.679729
    O   O16   0.999760  0.587733  0.051440  -0.693956
    O   O17   0.002064  0.050457  0.410734  -0.705434
    O   O18   0.000209  0.588221  0.946829  -0.679730
    O   O19   0.560126  0.994748  0.116629  -0.598256
    O   O20   0.439932  0.997316  0.884196  -0.598418
    O   O21   0.060126  0.494748  0.116629  -0.598252
    O   O22   0.939932  0.497316  0.884196  -0.598413
    O   O23   0.563917  0.999495  0.015126  -0.648559
    O   O24   0.436124  0.996315  0.985768  -0.645785
    O   O25   0.063917  0.499495  0.015126  -0.648554
    O   O26   0.936124  0.496315  0.985768  -0.645777
    O   O27   0.498337  0.906135  0.052580  -0.671998
    O   O28   0.499316  0.547913  0.589828  -0.717761
    O   O29   0.501813  0.906629  0.950706  -0.684172
    O   O30   0.998337  0.406135  0.052580  -0.671994
    O   O31   0.001813  0.406629  0.950706  -0.684176
    O   O32   0.036778  0.088438  0.031579  -0.566691
    O   O33   0.964983  0.088175  0.970168  -0.582206
    O   O34   0.536778  0.588438  0.031579  -0.566688
    O   O35   0.464983  0.588175  0.970168  -0.582206
    O   O36   0.036578  0.996853  0.943267  -0.643578
    O   O37   0.963548  0.994647  0.056880  -0.645957
    O   O38   0.536578  0.496853  0.943267  -0.643575
    O   O39   0.502064  0.550457  0.410734  -0.705456
    O   O40   0.463548  0.494647  0.056880  -0.645955
    O   O41   0.964665  0.998280  0.876053  -0.648816
    O   O42   0.035385  0.000512  0.124027  -0.650710
    O   O43   0.464665  0.498280  0.876053  -0.648816
    O   O44   0.535385  0.500512  0.124027  -0.650711
    O   O45   0.035168  0.906923  0.033565  -0.628860
    O   O46   0.963253  0.906659  0.964979  -0.617808
    O   O47   0.535168  0.406923  0.033565  -0.628865
    O   O48   0.463253  0.406659  0.964979  -0.617812
    O   O49   0.768906  0.886105  0.388691  -0.549282
    O   O50   0.000048  0.942979  0.590894  -0.678298
    O   O51   0.801683  0.970235  0.449911  -0.286029
    O   O52   0.231053  0.887765  0.610896  -0.552294
    O   O53   0.198784  0.972326  0.550191  -0.287869
    O   O54   0.268906  0.386105  0.388691  -0.549278
    O   O55   0.301683  0.470235  0.449911  -0.286022
    O   O56   0.731053  0.387765  0.610896  -0.552292
    O   O57   0.698784  0.472326  0.550191  -0.287865
    O   O58   0.133620  0.175228  0.932085  -0.524114
    O   O59   0.078555  0.195786  0.938046  -0.458884
    O   O60   0.864456  0.173497  0.065850  -0.519883
    O   O61   0.998723  0.945572  0.408113  -0.692128
    O   O62   0.918016  0.191787  0.054853  -0.451846
    O   O63   0.633620  0.675228  0.932085  -0.524116
    O   O64   0.578555  0.695786  0.938046  -0.458884
    O   O65   0.364456  0.673497  0.065850  -0.519885
    O   O66   0.418016  0.691787  0.054853  -0.451849
    O   O67   0.640009  0.783295  0.311323  -0.525217
    O   O68   0.622840  0.871159  0.251447  -0.329512
    O   O69   0.360997  0.783146  0.691193  -0.525553
    O   O70   0.377604  0.870873  0.751260  -0.332051
    O   O71   0.140009  0.283295  0.311323  -0.525216
    O   O72   0.500048  0.442979  0.590894  -0.678329
    O   O73   0.122840  0.371159  0.251447  -0.329511
    O   O74   0.860997  0.283146  0.691193  -0.525551
    O   O75   0.877604  0.370873  0.751260  -0.332048
    O   O76   0.744187  0.080229  0.389350  -0.517155
    O   O77   0.678242  0.067116  0.298528  -0.207934
    O   O78   0.256885  0.081531  0.612044  -0.515992
    O   O79   0.322652  0.067387  0.703080  -0.207447
    O   O80   0.244187  0.580229  0.389350  -0.517160
    O   O81   0.178242  0.567116  0.298528  -0.207948
    O   O82   0.756885  0.581531  0.612044  -0.515992
    O   O83   0.498723  0.445572  0.408113  -0.692133
    O   O84   0.822652  0.567387  0.703080  -0.207451
    O   O85   0.750418  0.076117  0.114764  -0.519159
    O   O86   0.683329  0.061388  0.072825  -0.278050
    O   O87   0.249635  0.076909  0.885575  -0.519789
    O   O88   0.316701  0.060968  0.928230  -0.281417
    O   O89   0.250418  0.576117  0.114764  -0.519158
    O   O90   0.183329  0.561388  0.072825  -0.278048
    O   O91   0.749635  0.576909  0.885575  -0.519793
    O   O92   0.816701  0.560968  0.928230  -0.281432
    O   O93   0.752044  0.159032  0.256163  -0.559110
    O   O94   0.937929  0.047964  0.437973  -0.640446
    O   O95   0.818732  0.131235  0.322265  -0.297436
    O   O96   0.249059  0.160138  0.745230  -0.558758
    O   O97   0.182220  0.133236  0.678178  -0.297574
    O   O98   0.252044  0.659032  0.256163  -0.559113
    O   O99   0.318732  0.631235  0.322265  -0.297443
    O   O100  0.749059  0.660138  0.745230  -0.558758
    O   O101  0.682220  0.633236  0.678178  -0.297575
    O   O102  0.123182  0.134607  0.752606  -0.498293
    O   O103  0.108948  0.214320  0.797993  -0.311018
    O   O104  0.876795  0.136235  0.246710  -0.493618
    Zn  Zn1   0.999884  0.065708  0.499715  1.318999
    Zn  Zn2   0.952836  0.997658  0.955768  1.250628
    Zn  Zn3   0.547253  0.497497  0.044404  1.248461
    Zn  Zn4   0.452836  0.497658  0.955768  1.250629
    Zn  Zn5   0.499884  0.565708  0.499715  1.318990
    Zn  Zn6   0.000180  0.927767  0.500017  1.314744
    Zn  Zn7   0.500180  0.427767  0.500017  1.314732
    Zn  Zn8   0.497283  0.997192  0.066679  1.275981
    Zn  Zn9   0.502795  0.997278  0.934121  1.275200
    Zn  Zn10  0.997283  0.497192  0.066679  1.275964
    Zn  Zn11  0.002795  0.497278  0.934121  1.275194
    Zn  Zn12  0.047253  0.997497  0.044404  1.248462
