# Generated by REPEAT Assigner based on pymatgen
data_DB0-m3_o18_o1470_f0_fsc.sym.5_sqe
_audit_creation_date              2022-05-24
_audit_creation_method            REPEAT_Assigner
_cell_length_a                    14.217388
_cell_length_b                    8.555753
_cell_length_c                    10.770017
_cell_angle_alpha                 90.000000
_cell_angle_beta                  102.183263
_cell_angle_gamma                 90.000000
_cell_volume                      1280.563935
_symmetry_space_group_name_H-M    P1
_symmetry_Int_Tables_number       1
loop_
    _symmetry_equiv_pos_site_id
    _symmetry_equiv_pos_as_xyz
    1  x,y,z
loop_
    _atom_site_type_symbol
    _atom_site_label
    _atom_site_fract_x
    _atom_site_fract_y
    _atom_site_fract_z
    _atom_type_partial_charge
    C   C1   0.957651  0.998864  0.669756  -0.094557
    C   C2   0.042349  0.998864  0.330244  -0.094542
    C   C3   0.969666  0.858884  0.733752  -0.173001
    C   C4   0.028792  0.137872  0.265108  -0.257545
    C   C5   0.030334  0.858884  0.266248  -0.173038
    C   C6   0.971208  0.137872  0.734892  -0.257478
    C   C7   0.984220  0.856247  0.864620  0.029330
    C   C8   0.008542  0.135839  0.133448  0.052027
    C   C9   0.015780  0.856247  0.135380  0.029461
    C   C10  0.991458  0.135839  0.866551  0.051734
    C   C11  0.987122  0.701291  0.927916  0.026421
    C   C12  0.981506  0.282376  0.060751  0.099378
    C   C13  0.012878  0.701291  0.072084  0.026224
    C   C14  0.018493  0.282376  0.939249  0.100042
    C   C15  0.992649  0.995432  0.930996  -0.061535
    C   C16  0.007351  0.995432  0.069004  -0.061764
    H   H1   0.915521  0.645767  0.896991  0.022615
    H   H2   0.013765  0.383279  0.117946  -0.073245
    H   H3   0.084478  0.645767  0.103008  0.022646
    H   H4   0.986234  0.383279  0.882054  -0.073361
    H   H5   0.959159  0.627286  0.104588  0.061561
    H   H6   0.097985  0.293705  0.962371  -0.008966
    H   H7   0.040841  0.627286  0.895412  0.061500
    H   H8   0.902015  0.293705  0.037629  -0.008836
    H   H9   0.946884  0.999494  0.567555  0.127520
    H   H10  0.053116  0.999494  0.432445  0.127526
    O   O1   0.066737  0.667709  0.660630  -0.631244
    O   O2   0.933091  0.330554  0.338429  -0.738002
    O   O3   0.933263  0.667709  0.339370  -0.631252
    O   O4   0.066908  0.330554  0.661571  -0.738019
    O   O5   0.902156  0.661870  0.585126  -0.749289
    O   O6   0.097439  0.334170  0.415514  -0.758132
    O   O7   0.097844  0.661870  0.414874  -0.749289
    O   O8   0.902561  0.334170  0.584486  -0.758151
    C   C17  0.979290  0.717547  0.661009  0.823954
    C   C18  0.020107  0.279405  0.338648  0.980535
    C   C19  0.020710  0.717547  0.338990  0.823955
    C   C20  0.979893  0.279405  0.661352  0.980547
    Zn  Zn1  0.893799  0.498614  0.448342  1.017895
    Zn  Zn2  0.106201  0.498614  0.551658  1.017874
    N   N1   0.768914  0.498460  0.389149  0.052997
    N   N2   0.231086  0.498460  0.610850  0.053011
    C   C21  0.632058  0.496646  0.222256  -0.426665
    C   C22  0.367942  0.496646  0.777744  -0.426647
    C   C23  0.729953  0.509193  0.264225  0.329590
    C   C24  0.270047  0.509193  0.735775  0.329564
    C   C25  0.712377  0.486344  0.474856  -0.179730
    C   C26  0.287623  0.486344  0.525144  -0.179729
    C   C27  0.612139  0.481365  0.436824  -0.017914
    C   C28  0.387861  0.481365  0.563175  -0.017900
    C   C29  0.573345  0.483946  0.308184  0.318803
    C   C30  0.426655  0.483946  0.691815  0.318791
    C   C31  0.549963  0.476424  0.522778  0.080169
    C   C32  0.450037  0.476424  0.477222  0.080155
    C   C33  0.414638  0.473990  0.346541  -0.150123
    C   C34  0.585362  0.473990  0.653458  -0.150133
    C   C35  0.475781  0.477649  0.263917  -0.293627
    C   C36  0.524218  0.477649  0.736083  -0.293623
    H   H11  0.446065  0.478427  0.162884  0.172000
    H   H12  0.553934  0.478427  0.837116  0.171999
    H   H13  0.251437  0.483056  0.427377  0.192756
    H   H14  0.748563  0.483056  0.572623  0.192765
    H   H15  0.601068  0.502047  0.121689  0.171431
    H   H16  0.398932  0.502047  0.878311  0.171428
    H   H17  0.339609  0.470490  0.302789  0.151454
    H   H18  0.660391  0.470489  0.697211  0.151453
    O   O9   0.213471  0.538594  0.821070  -0.229886
    C   C37  0.239772  0.689548  0.864764  0.058016
    H   H19  0.268876  0.754421  0.791991  0.023365
    H   H20  0.294838  0.683298  0.954443  0.007135
    H   H21  0.176378  0.754028  0.882217  0.044485
    O   O10  0.786529  0.538594  0.178930  -0.229884
    C   C38  0.760228  0.689548  0.135236  0.057982
    H   H22  0.731124  0.754421  0.208009  0.023374
    H   H23  0.705162  0.683298  0.045557  0.007142
    H   H24  0.823622  0.754028  0.117783  0.044495
