# Generated by REPEAT Assigner based on pymatgen
data_DB0-m3_o1490_o23_f0_fsc.sym.4_sqe
_audit_creation_date              2022-05-24
_audit_creation_method            REPEAT_Assigner
_cell_length_a                    8.524838
_cell_length_b                    10.694177
_cell_length_c                    14.257955
_cell_angle_alpha                 97.801683
_cell_angle_beta                  90.102660
_cell_angle_gamma                 90.008405
_cell_volume                      1287.808740
_symmetry_space_group_name_H-M    P1
_symmetry_Int_Tables_number       1
loop_
    _symmetry_equiv_pos_site_id
    _symmetry_equiv_pos_as_xyz
    1  x,y,z
loop_
    _atom_site_type_symbol
    _atom_site_label
    _atom_site_fract_x
    _atom_site_fract_y
    _atom_site_fract_z
    _atom_type_partial_charge
    C   C1   0.998638  0.692694  0.044724  -0.026720
    C   C2   0.138997  0.749922  0.030789  -0.117183
    C   C3   0.142104  0.871045  0.009382  -0.099487
    C   C4   0.860034  0.753366  0.031507  -0.357391
    C   C5   0.861858  0.878031  0.014508  0.649308
    C   C6   0.003784  0.939389  0.006529  -0.296517
    C   C7   0.003637  0.065269  0.990781  0.412168
    C   C8   0.141799  0.133929  0.988168  -0.365563
    C   C9   0.138481  0.254828  0.966352  -0.036629
    N   N1   0.725649  0.939108  0.005820  -0.644053
    C   C10  0.722939  0.060688  0.990635  0.254606
    C   C11  0.861344  0.125797  0.982315  -0.167921
    C   C12  0.859145  0.250809  0.965294  -0.141640
    C   C13  0.997812  0.311580  0.952137  -0.103425
    H   H1   0.996953  0.594667  0.055444  0.118786
    H   H2   0.995879  0.409557  0.941290  0.131505
    H   H3   0.255155  0.906125  0.992382  0.097601
    H   H4   0.254934  0.099139  0.005484  0.184246
    H   H5   0.611051  0.106022  0.983738  0.053668
    O   O1   0.330808  0.636722  0.934758  -0.672697
    O   O2   0.335525  0.629594  0.096110  -0.695873
    C   C14  0.280150  0.673054  0.020925  0.795619
    O   O3   0.331320  0.368239  0.062185  -0.706173
    O   O4   0.334638  0.375450  0.900864  -0.742138
    C   C15  0.279756  0.331954  0.976081  0.866540
    O   O5   0.668748  0.367858  0.061893  -0.714925
    O   O6   0.663704  0.374741  0.900991  -0.752770
    C   C16  0.717905  0.329231  0.975657  0.906549
    O   O7   0.668188  0.637204  0.935142  -0.711288
    O   O8   0.664527  0.630233  0.096031  -0.730109
    C   C17  0.717992  0.675922  0.021348  0.913171
    Zn  Zn1  0.500356  0.495966  0.102492  1.075378
    Zn  Zn2  0.499588  0.509031  0.894499  1.102774
    C   C18  0.595866  0.607481  0.452724  -0.045925
    C   C19  0.570567  0.377479  0.437756  0.201191
    C   C20  0.584283  0.391590  0.544852  -0.234330
    H   H6   0.694592  0.633723  0.592683  0.070278
    H   H7   0.720869  0.587733  0.435189  0.006921
    H   H8   0.690396  0.367419  0.407526  -0.008153
    H   H9   0.709714  0.401782  0.565210  0.032315
    H   H10  0.536572  0.306811  0.571789  0.045294
    N   N2   0.499171  0.517264  0.772404  0.001400
    C   C21  0.496623  0.496617  0.409194  0.371094
    C   C22  0.576819  0.623931  0.559317  -0.260504
    C   C23  0.495452  0.508438  0.587870  0.668938
    C   C24  0.327380  0.497939  0.550783  0.020859
    C   C25  0.328064  0.512749  0.445598  0.364403
    C   C26  0.497777  0.514474  0.691007  -0.226241
    C   C27  0.499640  0.490533  0.305980  -0.208759
    N   N3   0.501300  0.487721  0.224585  0.006907
    H   H11  0.254261  0.437333  0.407022  -0.054668
    H   H12  0.563027  0.695242  0.424229  0.046348
    H   H13  0.509517  0.710714  0.583442  0.065856
    H   H14  0.285474  0.401484  0.557192  -0.013843
    C   C28  0.258545  0.638129  0.425372  -0.513197
    H   H15  0.310071  0.719831  0.470850  0.121011
    H   H16  0.279042  0.650618  0.350495  0.121298
    H   H17  0.129742  0.637957  0.435426  0.122766
    C   C29  0.215018  0.587381  0.610149  -0.418280
    H   H18  0.255237  0.686563  0.618436  0.094143
    H   H19  0.096198  0.579552  0.578321  0.117634
    H   H20  0.203384  0.558607  0.681653  0.122205
    C   C30  0.479983  0.258245  0.400384  -0.305431
    H   H21  0.550107  0.174919  0.413379  0.091640
    H   H22  0.365653  0.253819  0.436345  0.047950
    H   H23  0.460729  0.253044  0.323050  0.069462
