data_DB0-m3_o12_o29_f0_pcu.sym.3_repeat
_audit_creation_date              2024-02-20
_audit_creation_method            'Materials Studio'
_symmetry_space_group_name_H-M    'P1'
_symmetry_Int_Tables_number       1
_symmetry_cell_setting            triclinic
loop_
_symmetry_equiv_pos_as_xyz
  x,y,z
_cell_length_a                    10.0213
_cell_length_b                    11.4149
_cell_length_c                    27.6450
_cell_angle_alpha                 89.9691
_cell_angle_beta                  80.7639
_cell_angle_gamma                 92.4147
loop_
_atom_site_label
_atom_site_type_symbol
_atom_site_fract_x
_atom_site_fract_y
_atom_site_fract_z
_atom_site_U_iso_or_equiv
_atom_site_adp_type
_atom_site_occupancy
O1     O     0.42218   0.68485   0.50800   0.00000  Uiso   1.00
O2     O     0.58153   0.31360   0.49167   0.00000  Uiso   1.00
O3     O     0.65224   0.65963   0.49300   0.00000  Uiso   1.00
O4     O     0.35148   0.33880   0.50682   0.00000  Uiso   1.00
C1     C     0.54778   0.72680   0.50003   0.00000  Uiso   1.00
C2     C     0.45594   0.27164   0.49972   0.00000  Uiso   1.00
O5     O     0.39093   0.50484   0.57912   0.00000  Uiso   1.00
O6     O     0.61283   0.49381   0.42062   0.00000  Uiso   1.00
O7     O     0.62089   0.47927   0.56418   0.00000  Uiso   1.00
O8     O     0.38279   0.51896   0.43558   0.00000  Uiso   1.00
C3     C     0.50662   0.48997   0.59426   0.00000  Uiso   1.00
C4     C     0.49709   0.50852   0.40549   0.00000  Uiso   1.00
Zn1    Zn    0.35021   0.51613   0.50984   0.00000  Uiso   1.00
Zn2    Zn    0.65351   0.48231   0.48991   0.00000  Uiso   1.00
C5     C     0.58792   0.56197   0.81849   0.00000  Uiso   1.00
C6     C     0.43281   0.42446   0.18075   0.00000  Uiso   1.00
O9     O     0.66584   0.64011   0.78900   0.00000  Uiso   1.00
O10    O     0.37409   0.33561   0.20952   0.00000  Uiso   1.00
N1     N     0.50899   0.48287   0.79915   0.00000  Uiso   1.00
N2     N     0.49339   0.51501   0.20080   0.00000  Uiso   1.00
C7     C     0.42762   0.40506   0.82789   0.00000  Uiso   1.00
C8     C     0.55542   0.60444   0.17296   0.00000  Uiso   1.00
C9     C     0.39133   0.50407   0.72944   0.00000  Uiso   1.00
C10    C     0.61449   0.50824   0.27016   0.00000  Uiso   1.00
C11    C     0.39058   0.50556   0.67966   0.00000  Uiso   1.00
C12    C     0.61545   0.50636   0.31995   0.00000  Uiso   1.00
C13    C     0.62560   0.46555   0.66532   0.00000  Uiso   1.00
C14    C     0.37514   0.51999   0.33462   0.00000  Uiso   1.00
C15    C     0.62593   0.46367   0.71523   0.00000  Uiso   1.00
C16    C     0.37444   0.52115   0.28475   0.00000  Uiso   1.00
C17    C     0.50880   0.48303   0.74750   0.00000  Uiso   1.00
C18    C     0.49408   0.51537   0.25236   0.00000  Uiso   1.00
C19    C     0.50270   0.48830   0.89916   0.00000  Uiso   1.00
C20    C     0.49696   0.51072   0.10098   0.00000  Uiso   1.00
C21    C     0.58625   0.56531   0.86842   0.00000  Uiso   1.00
C22    C     0.43362   0.42122   0.13087   0.00000  Uiso   1.00
C23    C     0.66897   0.64581   0.88756   0.00000  Uiso   1.00
C24    C     0.37360   0.32666   0.11078   0.00000  Uiso   1.00
C25    C     0.42130   0.40653   0.87897   0.00000  Uiso   1.00
C26    C     0.55888   0.60464   0.12199   0.00000  Uiso   1.00
C27    C     0.50779   0.48657   0.64725   0.00000  Uiso   1.00
C28    C     0.49573   0.51214   0.35251   0.00000  Uiso   1.00
H1     H     0.71849   0.45014   0.64083   0.00000  Uiso   1.00
H2     H     0.28015   0.52447   0.35922   0.00000  Uiso   1.00
H3     H     0.71838   0.44628   0.72892   0.00000  Uiso   1.00
H4     H     0.27966   0.52722   0.27113   0.00000  Uiso   1.00
H5     H     0.73834   0.70458   0.86419   0.00000  Uiso   1.00
H6     H     0.32703   0.25382   0.13320   0.00000  Uiso   1.00
C29    C     0.56740   0.59127   0.02014   0.00000  Uiso   1.00
C30    C     0.42290   0.41348   0.98039   0.00000  Uiso   1.00
C31    C     0.42994   0.41339   0.03060   0.00000  Uiso   1.00
C32    C     0.57805   0.58041   0.96920   0.00000  Uiso   1.00
C33    C     0.49806   0.50521   0.05053   0.00000  Uiso   1.00
C34    C     0.50123   0.49399   0.94963   0.00000  Uiso   1.00
C35    C     0.62290   0.68792   0.04144   0.00000  Uiso   1.00
C36    C     0.33683   0.33575   0.96036   0.00000  Uiso   1.00
C37    C     0.62009   0.69587   0.09138   0.00000  Uiso   1.00
C38    C     0.33485   0.33087   0.91063   0.00000  Uiso   1.00
O11    O     0.61177   0.69291   0.19572   0.00000  Uiso   1.00
O12    O     0.35608   0.32510   0.80591   0.00000  Uiso   1.00
C39    C     0.66562   0.65322   0.93716   0.00000  Uiso   1.00
C40    C     0.37187   0.32232   0.06141   0.00000  Uiso   1.00
H7     H     0.71117   0.50006   0.33282   0.00000  Uiso   1.00
H8     H     0.29720   0.52287   0.66666   0.00000  Uiso   1.00
H9     H     0.70855   0.50254   0.24508   0.00000  Uiso   1.00
H10    H     0.29942   0.52086   0.75430   0.00000  Uiso   1.00
H11    H     0.66512   0.76274   0.01988   0.00000  Uiso   1.00
H12    H     0.26379   0.27996   0.98320   0.00000  Uiso   1.00
H13    H     0.73788   0.71496   0.94881   0.00000  Uiso   1.00
H14    H     0.32827   0.24284   0.04857   0.00000  Uiso   1.00
C41    C     0.57454   0.85404   0.50344   0.00000  Uiso   1.00
C42    C     0.42917   0.14440   0.49631   0.00000  Uiso   1.00
C43    C     0.49048   0.93655   0.49293   0.00000  Uiso   1.00
C44    C     0.51328   0.06191   0.50680   0.00000  Uiso   1.00
H15    H     0.33645   0.11991   0.48292   0.00000  Uiso   1.00
H16    H     0.66722   0.87851   0.51687   0.00000  Uiso   1.00
H17    H     0.11938   0.43618   0.46559   0.00000  Uiso   1.00
H18    H     0.88433   0.56224   0.53417   0.00000  Uiso   1.00
N3     N     0.85270   0.45894   0.47627   0.00000  Uiso   1.00
N4     N     0.15102   0.53950   0.52348   0.00000  Uiso   1.00
C45    C     0.92867   0.50792   0.50418   0.00000  Uiso   1.00
C46    C     0.07504   0.49050   0.49557   0.00000  Uiso   1.00
H19    H     0.10288   0.59033   0.55110   0.00000  Uiso   1.00
H20    H     0.90083   0.40812   0.44864   0.00000  Uiso   1.00
C47    C     0.68411   0.80500   0.10955   0.00000  Uiso   1.00
H21    H     0.72395   0.86611   0.07900   0.00000  Uiso   1.00
H22    H     0.60796   0.85231   0.13497   0.00000  Uiso   1.00
H23    H     0.77121   0.78266   0.12749   0.00000  Uiso   1.00
C48    C     0.23568   0.24381   0.89392   0.00000  Uiso   1.00
H24    H     0.17396   0.19668   0.92538   0.00000  Uiso   1.00
H25    H     0.16450   0.28950   0.87429   0.00000  Uiso   1.00
H26    H     0.29011   0.17654   0.87046   0.00000  Uiso   1.00
C49    C     0.62259   0.09274   0.53684   0.00000  Uiso   1.00
H27    H     0.61712   0.02917   0.56751   0.00000  Uiso   1.00
H28    H     0.72347   0.09169   0.51348   0.00000  Uiso   1.00
H29    H     0.60956   0.17846   0.55517   0.00000  Uiso   1.00
C50    C     0.38125   0.90573   0.46285   0.00000  Uiso   1.00
H30    H     0.38670   0.96937   0.43221   0.00000  Uiso   1.00
H31    H     0.39439   0.82006   0.44450   0.00000  Uiso   1.00
H32    H     0.28033   0.90668   0.48620   0.00000  Uiso   1.00
