# Generated by REPEAT Assigner based on pymatgen
data_DB0-m2_o5_o24_f0_nbo.sym.94
_audit_creation_date              2022-05-24
_audit_creation_method            REPEAT_Assigner
_cell_length_a                    18.407822
_cell_length_b                    18.407037
_cell_length_c                    21.382333
_cell_angle_alpha                 90.000000
_cell_angle_beta                  90.000000
_cell_angle_gamma                 90.000000
_cell_volume                      7245.049751
_symmetry_space_group_name_H-M    P1
_symmetry_Int_Tables_number       1
loop_
    _symmetry_equiv_pos_site_id
    _symmetry_equiv_pos_as_xyz
    1  x,y,z
loop_
    _atom_site_type_symbol
    _atom_site_label
    _atom_site_fract_x
    _atom_site_fract_y
    _atom_site_fract_z
    _atom_type_partial_charge
    O   O1    0.442512  0.104973  0.502268  -0.567602
    O   O2    0.443346  0.893769  0.501969  -0.584730
    O   O3    0.942864  0.604693  0.997485  -0.573839
    O   O4    0.942981  0.393496  0.997246  -0.579922
    O   O5    0.567742  0.104807  0.500381  -0.603532
    O   O6    0.568583  0.893619  0.503877  -0.602037
    O   O7    0.068371  0.604654  0.000841  -0.599298
    O   O8    0.067995  0.393472  0.004301  -0.608335
    C   C1    0.505088  0.138617  0.498322  0.829066
    C   C2    0.505975  0.859939  0.500239  0.878964
    C   C3    0.005622  0.638424  0.998975  0.905184
    C   C4    0.005454  0.359676  0.000930  0.822695
    O   O9    0.442815  0.002117  0.590675  -0.571348
    O   O10   0.443087  0.002507  0.408938  -0.584131
    O   O11   0.943442  0.501597  0.090780  -0.585380
    O   O12   0.942498  0.501949  0.909038  -0.567414
    O   O13   0.568320  0.998314  0.590794  -0.593027
    O   O14   0.568077  0.994109  0.408938  -0.615074
    O   O15   0.068676  0.503805  0.090924  -0.588984
    O   O16   0.067725  0.499611  0.909062  -0.616790
    C   C5    0.505484  0.000717  0.619776  0.551013
    C   C6    0.505484  0.997790  0.379847  0.462419
    C   C7    0.006012  0.500014  0.119924  0.494027
    C   C8    0.004972  0.497002  0.880058  0.494207
    Cu  Cu1   0.433147  0.999344  0.499790  0.994709
    Cu  Cu2   0.933154  0.499083  0.999937  0.993849
    Cu  Cu3   0.577964  0.999193  0.499805  1.015250
    Cu  Cu4   0.077971  0.498988  0.000008  1.015842
    C   C9    0.523206  0.066816  0.729378  0.051725
    C   C10   0.549989  0.044293  0.268720  -0.053693
    C   C11   0.519682  0.930708  0.270262  0.035063
    C   C12   0.547453  0.951787  0.730908  -0.049072
    C   C13   0.022050  0.567196  0.229400  0.042666
    C   C14   0.048943  0.544899  0.769074  -0.068574
    C   C15   0.020296  0.430880  0.770296  0.029199
    C   C16   0.048984  0.452773  0.231193  -0.055353
    C   C17   0.565900  0.016533  0.772308  -0.218389
    C   C18   0.564987  0.978652  0.227319  -0.233429
    C   C19   0.065863  0.518042  0.272480  -0.225586
    C   C20   0.064950  0.479620  0.727525  -0.221178
    H   H1    0.620075  0.028355  0.792555  0.101992
    H   H2    0.618471  0.963979  0.207093  0.104399
    H   H3    0.119729  0.531176  0.292738  0.102975
    H   H4    0.118667  0.465789  0.707317  0.103255
    H   H5    0.543844  0.119799  0.712282  0.048695
    H   H6    0.592308  0.081573  0.286821  0.078169
    H   H7    0.537283  0.876659  0.287410  0.045949
    H   H8    0.587716  0.912317  0.712767  0.084903
    H   H9    0.041406  0.620620  0.212207  0.049326
    H   H10   0.090686  0.582758  0.787279  0.086797
    H   H11   0.038714  0.377050  0.787316  0.047560
    H   H12   0.090196  0.414229  0.213157  0.079568
    C   C21   0.497736  0.002918  0.810237  0.582399
    C   C22   0.497643  0.995872  0.189377  0.631377
    C   C23   0.997996  0.502909  0.310386  0.606723
    C   C24   0.997410  0.495958  0.689556  0.607042
    C   C25   0.454790  0.052738  0.767279  -0.273995
    C   C26   0.482527  0.060840  0.230473  -0.400014
    C   C27   0.452129  0.948392  0.232344  -0.283904
    C   C28   0.479220  0.938826  0.769169  -0.372514
    C   C29   0.953948  0.551605  0.267294  -0.271053
    C   C30   0.981296  0.560573  0.730779  -0.365601
    C   C31   0.952538  0.447685  0.732367  -0.278472
    C   C32   0.981028  0.438305  0.269404  -0.382747
    C   C33   0.435850  0.988149  0.726068  0.117209
    C   C34   0.436632  0.013876  0.273561  0.095791
    C   C35   0.936575  0.486487  0.226183  0.106822
    C   C36   0.936029  0.512803  0.773723  0.090552
    C   C37   0.504459  0.001939  0.689224  0.141991
    C   C38   0.504406  0.996496  0.310407  0.271930
    C   C39   0.004879  0.501780  0.189366  0.211634
    C   C40   0.004007  0.496295  0.810599  0.239783
    H   H13   0.381767  0.976257  0.705665  0.043153
    H   H14   0.383219  0.028629  0.293889  0.047957
    H   H15   0.882812  0.473277  0.205755  0.044251
    H   H16   0.882373  0.526708  0.794020  0.047313
    C   C41   0.505077  0.216541  0.498877  -0.148503
    C   C42   0.505730  0.782020  0.500706  -0.188816
    C   C43   0.005523  0.716340  0.998999  -0.223808
    C   C44   0.005301  0.281768  0.000862  -0.132834
    C   C45   0.504744  0.281991  0.499338  -0.137396
    C   C46   0.505194  0.716572  0.500707  -0.112481
    C   C47   0.005110  0.781785  0.999211  -0.089765
    C   C48   0.004849  0.216328  0.000607  -0.147952
    O   O17   0.610085  0.936641  0.995306  -0.608008
    O   O18   0.610262  0.061711  0.004431  -0.607949
    O   O19   0.110181  0.436960  0.495572  -0.608749
    O   O20   0.110131  0.562036  0.504651  -0.608129
    C   C49   0.643951  0.999126  0.999899  0.935136
    C   C50   0.143933  0.499504  0.500158  0.937863
    O   O21   0.505693  0.938162  0.907940  -0.501193
    O   O22   0.508223  0.935523  0.089739  -0.616499
    O   O23   0.505698  0.060498  0.091636  -0.490164
    O   O24   0.508594  0.063123  0.909853  -0.618461
    O   O25   0.005867  0.438276  0.408145  -0.492487
    O   O26   0.008246  0.435691  0.589940  -0.614832
    O   O27   0.005520  0.560664  0.591817  -0.496801
    O   O28   0.008515  0.563245  0.410026  -0.619752
    C   C51   0.501549  0.001346  0.879913  0.383564
    C   C52   0.501520  0.997349  0.119688  0.354255
    C   C53   0.001727  0.501431  0.380082  0.367044
    C   C54   0.001372  0.497504  0.619872  0.362131
    Cu  Cu5   0.504508  0.926941  0.998743  1.004720
    Cu  Cu6   0.504721  0.071718  0.000837  1.001219
    Cu  Cu7   0.004619  0.427078  0.498946  1.001797
    Cu  Cu8   0.004574  0.571856  0.501011  1.005030
    O   O29   0.398898  0.936832  0.997302  -0.625616
    O   O30   0.399073  0.062130  0.002115  -0.625644
    O   O31   0.898991  0.436787  0.497441  -0.625713
    O   O32   0.898944  0.562083  0.502251  -0.625130
    C   C55   0.365225  0.999525  0.999661  0.836127
    C   C56   0.865207  0.499422  0.499804  0.834107
    O   O33   0.610334  0.495895  0.553959  -0.546000
    O   O34   0.610219  0.502522  0.446013  -0.547356
    O   O35   0.110332  0.995859  0.053817  -0.545935
    O   O36   0.110256  0.002494  0.945871  -0.548297
    C   C57   0.644030  0.499213  0.499958  0.721798
    C   C58   0.144048  0.999259  0.999828  0.723691
    O   O37   0.507433  0.393259  0.553891  -0.592363
    O   O38   0.507194  0.394085  0.446078  -0.618544
    O   O39   0.507479  0.605302  0.446258  -0.595315
    O   O40   0.507477  0.604486  0.554073  -0.610758
    O   O41   0.007614  0.893041  0.053705  -0.594183
    O   O42   0.007424  0.893870  0.945891  -0.613949
    O   O43   0.007333  0.105090  0.946085  -0.593729
    O   O44   0.007281  0.104259  0.053901  -0.615421
    C   C59   0.504045  0.359918  0.499805  0.802834
    C   C60   0.504278  0.638651  0.500343  0.790748
    C   C61   0.004305  0.859702  0.999621  0.783897
    C   C62   0.004047  0.138419  0.000177  0.804867
    Cu  Cu9   0.504732  0.498856  0.562398  1.010191
    Cu  Cu10  0.504595  0.499714  0.437753  1.017047
    Cu  Cu11  0.004720  0.998628  0.062218  1.012987
    Cu  Cu12  0.004641  0.999497  0.937572  1.013609
    O   O45   0.399125  0.495941  0.554000  -0.582172
    O   O46   0.399014  0.502797  0.446322  -0.582237
    O   O47   0.899123  0.995527  0.053781  -0.582088
    O   O48   0.899051  0.002392  0.946103  -0.582283
    C   C63   0.365248  0.499410  0.500187  0.677232
    C   C64   0.865265  0.998941  0.999956  0.677826
    C   C65   0.721880  0.999017  0.999954  -0.288075
    C   C66   0.221862  0.499510  0.500219  -0.290689
    C   C67   0.287316  0.499475  0.500231  0.004285
    C   C68   0.787333  0.998960  0.999977  0.002464
    C   C69   0.287361  0.999563  0.999719  -0.131777
    C   C70   0.787343  0.499368  0.499834  -0.132426
    C   C71   0.721924  0.499289  0.499890  -0.120918
    C   C72   0.221942  0.999451  0.999780  -0.123078
    C   C73   0.398599  0.109807  0.782762  0.110460
    C   C74   0.374842  0.159577  0.738066  0.024670
    Cl  Cl1   0.405681  0.158980  0.660503  -0.084658
    C   C75   0.323453  0.211101  0.753518  -0.137274
    C   C76   0.293869  0.213151  0.812510  -0.111501
    C   C77   0.314657  0.162480  0.856107  -0.167055
    C   C78   0.366094  0.111015  0.841192  -0.065613
    H   H17   0.305719  0.249769  0.718673  0.121908
    H   H18   0.253322  0.253436  0.824096  0.126846
    H   H19   0.290092  0.162486  0.902028  0.120907
    H   H20   0.378493  0.070602  0.875680  0.133560
    C   C79   0.460736  0.135309  0.208508  0.335763
    C   C80   0.394187  0.147568  0.179612  -0.066241
    Cl  Cl2   0.331167  0.077822  0.166987  -0.087018
    C   C81   0.375904  0.216423  0.159670  -0.033899
    C   C82   0.423094  0.273516  0.168139  -0.199194
    C   C83   0.489051  0.261850  0.196585  -0.038296
    C   C84   0.507852  0.193243  0.216623  -0.317796
    H   H21   0.324111  0.225572  0.137196  0.105878
    H   H22   0.408427  0.327346  0.152376  0.137503
    H   H23   0.526333  0.306577  0.203105  0.109712
    H   H24   0.560269  0.185988  0.238179  0.164629
    C   C85   0.393069  0.894274  0.216999  0.093023
    C   C86   0.366009  0.846773  0.262119  0.060019
    Cl  Cl3   0.396086  0.847015  0.339913  -0.108545
    C   C87   0.311970  0.797950  0.246866  -0.148283
    C   C88   0.283081  0.796424  0.187604  -0.117898
    C   C89   0.307358  0.844896  0.143490  -0.161503
    C   C90   0.361459  0.893634  0.158211  -0.069943
    H   H25   0.291638  0.761020  0.282055  0.125714
    H   H26   0.240458  0.758283  0.176162  0.131060
    H   H27   0.283488  0.845319  0.097299  0.120658
    H   H28   0.376712  0.932480  0.123268  0.135845
    C   C91   0.453835  0.865610  0.791416  0.326501
    C   C92   0.386641  0.856630  0.820100  -0.066974
    Cl  Cl4   0.326658  0.929177  0.831835  -0.085743
    C   C93   0.365155  0.788861  0.840426  -0.030461
    C   C94   0.409762  0.729618  0.832566  -0.197675
    C   C95   0.476338  0.738029  0.804344  -0.048516
    C   C96   0.498332  0.805526  0.783928  -0.301425
    H   H29   0.312861  0.782270  0.862707  0.103956
    H   H30   0.392587  0.676657  0.848629  0.137632
    H   H31   0.511608  0.691609  0.798315  0.112114
    H   H32   0.551177  0.810203  0.762619  0.159972
    C   C97   0.896469  0.607415  0.282651  0.094314
    C   C98   0.871391  0.656317  0.237782  0.044313
    Cl  Cl5   0.902112  0.656055  0.160180  -0.094893
    C   C99   0.818805  0.706671  0.253111  -0.146978
    C   C100  0.789369  0.708389  0.312167  -0.107184
    C   C101  0.811570  0.658569  0.355974  -0.169277
    C   C102  0.864208  0.608284  0.341183  -0.063307
    H   H33   0.800033  0.744675  0.218127  0.124041
    H   H34   0.747888  0.747749  0.323659  0.126636
    H   H35   0.787195  0.658312  0.401969  0.121159
    H   H36   0.877772  0.568478  0.375858  0.135249
    C   C103  0.958512  0.634759  0.708853  0.321792
    C   C104  0.891830  0.646153  0.679922  -0.059008
    Cl  Cl6   0.829710  0.575615  0.667286  -0.088855
    C   C105  0.872654  0.714769  0.659992  -0.038229
    C   C106  0.919079  0.772477  0.668506  -0.196836
    C   C107  0.985160  0.761670  0.696987  -0.043407
    C   C108  0.004851  0.693308  0.717012  -0.306117
    H   H37   0.820757  0.723244  0.637499  0.106982
    H   H38   0.903712  0.826115  0.652752  0.137548
    H   H39   0.021844  0.806883  0.703542  0.110441
    H   H40   0.057346  0.686736  0.738590  0.159799
    C   C109  0.894288  0.392756  0.716840  0.111927
    C   C110  0.868067  0.344521  0.761752  0.037689
    Cl  Cl7   0.898195  0.344765  0.839527  -0.097827
    C   C111  0.814803  0.294931  0.746314  -0.135130
    C   C112  0.785830  0.293351  0.687084  -0.125917
    C   C113  0.809201  0.342549  0.643205  -0.155346
    C   C114  0.862527  0.392060  0.658112  -0.079688
    H   H41   0.795134  0.257435  0.781338  0.122565
    H   H42   0.743812  0.254602  0.675499  0.132288
    H   H43   0.785216  0.342932  0.597058  0.119684
    H   H44   0.877032  0.431438  0.623369  0.139102
    C   C115  0.957227  0.364545  0.291615  0.325329
    C   C116  0.890237  0.354118  0.320288  -0.066049
    Cl  Cl8   0.828798  0.425413  0.332177  -0.086374
    C   C117  0.870169  0.285881  0.340529  -0.031184
    C   C118  0.916003  0.227595  0.332591  -0.196449
    C   C119  0.982389  0.237441  0.304380  -0.044444
    C   C120  0.002969  0.305417  0.284047  -0.309948
    H   H45   0.818032  0.278163  0.362812  0.103848
    H   H46   0.899939  0.174260  0.348588  0.136936
    H   H47   0.018617  0.191777  0.298287  0.111064
    H   H48   0.055694  0.311230  0.262726  0.164357
