# Generated by REPEAT Assigner based on pymatgen
data_DB0-m29_o80_o44_f0_pts.sym.17
_audit_creation_date              2022-05-24
_audit_creation_method            REPEAT_Assigner
_cell_length_a                    14.064663
_cell_length_b                    9.273955
_cell_length_c                    20.551073
_cell_angle_alpha                 93.493725
_cell_angle_beta                  90.408322
_cell_angle_gamma                 68.900889
_cell_volume                      2495.908336
_symmetry_space_group_name_H-M    P1
_symmetry_Int_Tables_number       1
loop_
    _symmetry_equiv_pos_site_id
    _symmetry_equiv_pos_as_xyz
    1  x,y,z
loop_
    _atom_site_type_symbol
    _atom_site_label
    _atom_site_fract_x
    _atom_site_fract_y
    _atom_site_fract_z
    _atom_type_partial_charge
    H   H1   0.085222  0.192611  0.797056  0.196653
    C   C1   0.285329  0.912237  0.095374  -0.182388
    C   C2   0.244530  0.826084  0.130083  -0.208557
    C   C3   0.150487  0.846937  0.104088  0.284687
    N   N1   0.132651  0.938294  0.053435  -0.502165
    C   C4   0.215767  0.977530  0.047656  0.485353
    C   C5   0.085004  0.791214  0.129518  0.201615
    C   C6   0.978145  0.835192  0.110104  0.029955
    C   C7   0.901873  0.842875  0.152853  0.285304
    C   C8   0.812056  0.890038  0.119396  -0.308550
    C   C9   0.837200  0.907712  0.055918  0.345350
    N   N2   0.939228  0.873593  0.050734  -0.320449
    C   C10  0.764504  0.955971  0.002224  -0.283926
    C   C11  0.780408  0.033087  0.953379  0.429031
    C   C12  0.711560  0.096833  0.905057  -0.139795
    C   C13  0.752937  0.181785  0.870064  -0.283375
    C   C14  0.846347  0.162074  0.896608  0.495175
    N   N3   0.863489  0.072373  0.947762  -0.516472
    C   C15  0.911921  0.217501  0.871312  -0.353161
    C   C16  0.018309  0.176146  0.891020  0.350492
    C   C17  0.094198  0.169922  0.848159  -0.281761
    C   C18  0.183582  0.123489  0.882126  -0.095416
    C   C19  0.158663  0.104694  0.945459  0.282406
    N   N4   0.056921  0.137607  0.950422  -0.326460
    C   C20  0.231322  0.055828  0.999111  -0.299784
    H   H2   0.278493  0.760323  0.171408  0.166601
    H   H3   0.692262  0.939572  0.004986  0.190372
    H   H4   0.719873  0.246812  0.828392  0.166935
    H   H5   0.889647  0.280425  0.827571  0.176415
    H   H6   0.303547  0.072273  0.996382  0.189467
    H   H7   0.981733  0.867929  0.008745  0.286486
    H   H8   0.014353  0.142092  0.992239  0.283524
    O   O1   0.501048  0.866650  0.738643  -0.510544
    O   O2   0.440525  0.754243  0.814871  -0.492536
    C   C21  0.472865  0.752860  0.755026  0.539698
    O   O3   0.368821  0.048666  0.880989  -0.592402
    O   O4   0.283364  0.106725  0.786972  -0.541227
    C   C22  0.282078  0.092633  0.850040  0.661385
    O   O5   0.567894  0.085228  0.700833  -0.524018
    O   O6   0.601193  0.962501  0.867224  -0.655168
    C   C23  0.610644  0.091766  0.890937  0.705175
    O   O7   0.432407  0.219731  0.767595  -0.563643
    C   C24  0.493628  0.214784  0.718897  0.716704
    O   O8   0.538063  0.223164  0.879380  -0.577040
    Fe  Fe1  0.476953  0.025593  0.813697  1.454364
    O   O9   0.563003  0.796126  0.234108  -0.545502
    C   C25  0.500632  0.799673  0.281907  0.723447
    O   O10  0.458992  0.788171  0.121499  -0.572141
    O   O11  0.425403  0.928428  0.299583  -0.521596
    O   O12  0.394506  0.048866  0.132979  -0.652178
    C   C26  0.385892  0.918754  0.109640  0.722638
    Fe  Fe2  0.518081  0.988890  0.187143  1.418443
    O   O13  0.626667  0.965483  0.120193  -0.595265
    O   O14  0.711255  0.908958  0.214518  -0.526000
    C   C27  0.713200  0.921980  0.151407  0.727414
    O   O15  0.492144  0.149861  0.261490  -0.490320
    O   O16  0.572014  0.245280  0.189807  -0.469591
    C   C28  0.529088  0.256105  0.247252  0.588142
    C   C29  0.519278  0.390247  0.293071  -0.243021
    C   C30  0.510091  0.384291  0.360121  0.335625
    C   C31  0.501319  0.513158  0.401363  0.041083
    C   C32  0.496577  0.649234  0.375662  -0.144301
    H   H9   0.487640  0.750186  0.407762  0.183972
    C   C33  0.507428  0.654992  0.309560  -0.165962
    C   C34  0.520755  0.525425  0.268563  0.297993
    C   C35  0.499499  0.507903  0.471319  -0.066839
    C   C36  0.498666  0.506573  0.530117  -0.122286
    C   C37  0.499503  0.365007  0.625352  0.254417
    C   C38  0.488137  0.358898  0.691406  -0.122340
    C   C39  0.476104  0.487536  0.732582  -0.160564
    C   C40  0.480115  0.621369  0.708555  0.015363
    C   C41  0.489510  0.628255  0.641634  -0.186795
    H   H10  0.489246  0.733513  0.621623  0.188211
    C   C42  0.496577  0.500664  0.600029  0.132170
    H   H11  0.469229  0.479414  0.784439  0.206546
    F   F1   0.512984  0.251586  0.385742  -0.126803
    F   F2   0.509287  0.239542  0.584777  -0.150884
    F   F3   0.527204  0.536101  0.203387  -0.076153
    F   F4   0.113767  0.708555  0.183201  -0.138795
    F   F5   0.913156  0.815187  0.216996  -0.122436
