# Generated by REPEAT Assigner based on pymatgen
data_DB0-m3_o160_o52_f0_fsc.sym.36_sqe
_audit_creation_date              2022-05-24
_audit_creation_method            REPEAT_Assigner
_cell_length_a                    13.407765
_cell_length_b                    8.547713
_cell_length_c                    14.974114
_cell_angle_alpha                 90.000000
_cell_angle_beta                  90.995938
_cell_angle_gamma                 90.000000
_cell_volume                      1715.860059
_symmetry_space_group_name_H-M    P1
_symmetry_Int_Tables_number       1
loop_
    _symmetry_equiv_pos_site_id
    _symmetry_equiv_pos_as_xyz
    1  x,y,z
loop_
    _atom_site_type_symbol
    _atom_site_label
    _atom_site_fract_x
    _atom_site_fract_y
    _atom_site_fract_z
    _atom_type_partial_charge
    H   H1   0.039911  0.998050  0.561458  0.099291
    C   C1   0.013997  0.137633  0.675709  -0.138078
    C   C2   0.014027  0.858510  0.675732  -0.121088
    C   C3   0.999915  0.138493  0.766699  0.056521
    C   C4   0.999946  0.857688  0.766721  0.047696
    H   H2   0.992337  0.249031  0.800931  0.022786
    H   H3   0.992391  0.747161  0.800969  0.024765
    C   C5   0.997840  0.998102  0.813148  -0.394541
    C   C6   0.026769  0.998064  0.632084  -0.038355
    N   N1   0.994962  0.862059  0.956048  -0.330986
    N   N2   0.994918  0.134188  0.956043  -0.330230
    N   N3   0.995420  0.862063  0.044338  -0.330864
    N   N4   0.995375  0.134192  0.044335  -0.333510
    C   C7   0.996038  0.998128  0.089496  0.873895
    C   C8   0.994300  0.998119  0.910886  0.858152
    C   C9   0.990403  0.138487  0.233692  0.067970
    C   C10  0.990470  0.857712  0.233670  0.062975
    H   H4   0.997941  0.249040  0.199465  0.019028
    H   H5   0.998051  0.747183  0.199427  0.013836
    C   C11  0.976361  0.137566  0.324687  -0.128016
    C   C12  0.976417  0.858569  0.324662  -0.077859
    C   C13  0.963629  0.998049  0.368309  -0.063137
    H   H6   0.950508  0.998021  0.438935  0.112063
    C   C14  0.992514  0.998113  0.187234  -0.422035
    O   O1   0.089620  0.667058  0.583819  -0.764506
    O   O2   0.089575  0.329067  0.583769  -0.742411
    O   O3   0.918769  0.661476  0.601651  -0.734982
    O   O4   0.918713  0.334637  0.601626  -0.725689
    C   C15  0.007924  0.716362  0.621833  0.922573
    C   C16  0.007879  0.279760  0.621794  0.912940
    O   O5   0.901087  0.667098  0.416580  -0.757665
    O   O6   0.901006  0.329149  0.416533  -0.775628
    O   O7   0.071435  0.661676  0.398939  -0.642442
    O   O8   0.071395  0.334278  0.399096  -0.714272
    C   C17  0.982532  0.716538  0.378586  0.822727
    C   C18  0.982480  0.279571  0.378636  0.909435
    Zn  Zn1  0.884459  0.498092  0.508958  1.082331
    Zn  Zn2  0.105905  0.498110  0.491316  1.000472
    C   C19  0.294957  0.504122  0.409766  -0.209933
    N   N5   0.236562  0.498159  0.483112  0.102694
    C   C20  0.280141  0.494254  0.564998  -0.084443
    C   C21  0.382105  0.494476  0.576839  -0.184034
    C   C22  0.443416  0.498652  0.503814  -0.095326
    C   C23  0.398311  0.503384  0.419922  0.424809
    C   C24  0.600391  0.495327  0.592330  -0.152528
    C   C25  0.547725  0.498505  0.511331  0.142881
    C   C26  0.602130  0.501729  0.434171  0.115619
    C   C27  0.554590  0.505533  0.352204  -0.024635
    N   N6   0.454758  0.506478  0.346703  -0.296129
    C   C28  0.703690  0.495412  0.593582  -0.182666
    N   N7   0.754117  0.498144  0.516750  0.168995
    C   C29  0.704658  0.501143  0.437974  -0.175439
    H   H7   0.234848  0.491961  0.623845  0.157125
    H   H8   0.745937  0.502988  0.376669  0.168788
    H   H9   0.597380  0.508071  0.291698  0.123842
    H   H10  0.410013  0.491097  0.644516  0.140485
    H   H11  0.564542  0.493029  0.655967  0.147871
    H   H12  0.743991  0.493046  0.656723  0.187954
    C   C30  0.251039  0.513654  0.316652  0.424133
    C   C31  0.268517  0.674222  0.276132  -0.311389
    C   C32  0.292040  0.385984  0.256967  -0.414183
    H   H13  0.170500  0.495824  0.316683  0.043841
    H   H14  0.348773  0.698221  0.266895  0.047867
    H   H15  0.237384  0.764989  0.320607  0.053546
    H   H16  0.229726  0.680676  0.210216  0.086742
    H   H17  0.351600  0.432030  0.213759  0.078737
    H   H18  0.230822  0.342010  0.212989  0.093254
    H   H19  0.320712  0.287804  0.298483  0.078360
