# Generated by REPEAT Assigner based on pymatgen
data_DB0-m2_o12_o27_f0_pcu.sym.41_sqe
_audit_creation_date              2022-05-24
_audit_creation_method            REPEAT_Assigner
_cell_length_a                    19.264781
_cell_length_b                    11.138997
_cell_length_c                    9.735006
_cell_angle_alpha                 111.695486
_cell_angle_beta                  99.527771
_cell_angle_gamma                 90.009630
_cell_volume                      1909.982129
_symmetry_space_group_name_H-M    P1
_symmetry_Int_Tables_number       1
loop_
    _symmetry_equiv_pos_site_id
    _symmetry_equiv_pos_as_xyz
    1  x,y,z
loop_
    _atom_site_type_symbol
    _atom_site_label
    _atom_site_fract_x
    _atom_site_fract_y
    _atom_site_fract_z
    _atom_type_partial_charge
    O   O1   0.479406  0.345373  0.581434  -0.499080
    O   O2   0.483350  0.661562  0.409714  -0.458562
    O   O3   0.499407  0.296622  0.339290  -0.293180
    O   O4   0.531810  0.704393  0.658991  -0.324377
    C   C1   0.489280  0.261765  0.450518  0.441211
    C   C2   0.511767  0.741772  0.545405  0.411426
    O   O5   0.406924  0.564283  0.616368  -0.596841
    O   O6   0.592600  0.501375  0.390646  -0.526695
    O   O7   0.389726  0.456441  0.358571  -0.609078
    O   O8   0.603663  0.485179  0.624227  -0.452553
    C   C3   0.364971  0.509985  0.484826  0.785083
    C   C4   0.630987  0.489573  0.510135  0.525815
    Cu  Cu1  0.506563  0.529141  0.642893  0.768622
    Cu  Cu2  0.489881  0.474958  0.352067  0.927299
    C   C5   0.260426  0.512061  0.606010  -0.063574
    C   C6   0.733813  0.415745  0.384484  -0.079313
    C   C7   0.188983  0.512123  0.604342  0.101776
    C   C8   0.805365  0.421165  0.384883  0.122942
    H   H1   0.170903  0.515399  0.704801  0.077663
    H   H2   0.824262  0.369444  0.281786  0.073093
    C   C9   0.141548  0.499040  0.476118  -0.427212
    C   C10  0.852866  0.485510  0.515265  -0.480396
    C   C11  0.167618  0.489721  0.347661  0.175133
    C   C12  0.827506  0.544361  0.648769  0.214322
    C   C13  0.239955  0.497653  0.351196  -0.018465
    C   C14  0.755417  0.544716  0.648322  -0.089000
    C   C15  0.287482  0.507447  0.480336  -0.076454
    C   C16  0.707810  0.482232  0.515264  0.024501
    N   N1   0.015412  0.465503  0.360544  -0.139110
    N   N2   0.978635  0.524359  0.629313  -0.138301
    N   N3   0.947905  0.461994  0.371046  -0.403609
    N   N4   0.046040  0.527403  0.618748  -0.394730
    C   C17  0.928470  0.491292  0.505759  0.790926
    C   C18  0.065594  0.497863  0.484250  0.760347
    C   C19  0.483304  0.122827  0.424007  -0.150283
    C   C20  0.529672  0.875515  0.563924  0.006982
    C   C21  0.502762  0.081065  0.537366  0.137683
    C   C22  0.481366  0.949363  0.523406  -0.237242
    H   H3   0.472300  0.397071  0.835350  0.170618
    H   H4   0.518383  0.611531  0.160448  0.147229
    N   N5   0.477111  0.434032  0.130611  -0.206373
    N   N6   0.518881  0.570345  0.864563  -0.127258
    C   C23  0.499833  0.516011  0.079523  0.031186
    C   C24  0.497782  0.487014  0.915717  0.086785
    C   C25  0.304900  0.507447  0.740900  0.623432
    O   O9   0.346443  0.423369  0.730258  -0.482259
    O   O10  0.296465  0.593619  0.882000  -0.552474
    H   H5   0.332140  0.579220  0.962215  0.390937
    C   C26  0.687820  0.331522  0.245203  0.664319
    O   O11  0.635341  0.273156  0.250184  -0.505092
    O   O12  0.707917  0.307647  0.107095  -0.596053
    H   H6   0.672455  0.243399  0.023803  0.425712
    C   C27  0.120547  0.479868  0.208646  0.490131
    O   O13  0.122303  0.566877  0.161406  -0.490101
    O   O14  0.079114  0.366126  0.122603  -0.543588
    H   H7   0.052160  0.373564  0.027920  0.430613
    C   C28  0.874902  0.618415  0.789975  0.520343
    O   O15  0.872163  0.735495  0.847270  -0.487394
    O   O16  0.917564  0.554204  0.866771  -0.594144
    H   H8   0.944582  0.618891  0.964489  0.436158
    C   C29  0.264455  0.496381  0.215770  0.586664
    O   O17  0.307373  0.580438  0.224329  -0.442831
    O   O18  0.237410  0.401039  0.076511  -0.527515
    H   H9   0.259587  0.413631  0.995240  0.419288
    C   C30  0.731271  0.615802  0.790653  0.554013
    O   O19  0.684641  0.690311  0.795139  -0.362338
    O   O20  0.763810  0.602810  0.922789  -0.516437
    H   H10  0.743909  0.663324  0.011186  0.408322
    C   C31  0.404857  0.911711  0.485616  0.753036
    O   O21  0.363980  0.981752  0.447334  -0.527858
    O   O22  0.377613  0.805915  0.507742  -0.535488
    H   H11  0.324283  0.800245  0.483366  0.362104
    C   C32  0.545411  0.165358  0.681514  0.545889
    O   O23  0.544387  0.141221  0.793434  -0.489319
    O   O24  0.593967  0.260385  0.687352  -0.490482
    H   H12  0.620853  0.304406  0.793436  0.356758
    C   C33  0.605452  0.916487  0.602330  0.739374
    O   O25  0.644680  0.875551  0.684139  -0.509535
    O   O26  0.634217  0.988949  0.533085  -0.595200
    H   H13  0.687096  0.003117  0.568136  0.400320
    C   C34  0.453068  0.031766  0.271287  0.814599
    O   O27  0.419319  0.072405  0.182080  -0.546530
    O   O28  0.464413  0.900422  0.225497  -0.588318
    H   H14  0.440618  0.853535  0.117399  0.375985
    C   C35  0.567415  0.673211  0.964724  0.657551
    O   O29  0.614583  0.653590  0.052631  -0.565823
    O   O30  0.564262  0.795366  0.957037  -0.532411
    H   H15  0.603400  0.856255  0.033653  0.422213
    C   C36  0.454479  0.306714  0.028621  0.651797
    O   O31  0.484350  0.214812  0.043691  -0.396634
    O   O32  0.393435  0.284925  0.921420  -0.548169
    H   H16  0.383166  0.188748  0.862395  0.407480
