# Generated by REPEAT Assigner based on pymatgen
data_DB0-m2_o6_o26_f0_pcu.sym.21
_audit_creation_date              2022-05-24
_audit_creation_method            REPEAT_Assigner
_cell_length_a                    14.606894
_cell_length_b                    16.039254
_cell_length_c                    17.444694
_cell_angle_alpha                 89.997566
_cell_angle_beta                  86.323681
_cell_angle_gamma                 90.009129
_cell_volume                      4078.596765
_symmetry_space_group_name_H-M    P1
_symmetry_Int_Tables_number       1
loop_
    _symmetry_equiv_pos_site_id
    _symmetry_equiv_pos_as_xyz
    1  x,y,z
loop_
    _atom_site_type_symbol
    _atom_site_label
    _atom_site_fract_x
    _atom_site_fract_y
    _atom_site_fract_z
    _atom_type_partial_charge
    O   O1   0.420825  0.621106  0.499267  -0.621651
    O   O2   0.579174  0.378890  0.500746  -0.621609
    O   O3   0.578248  0.621212  0.500482  -0.639777
    O   O4   0.421752  0.378784  0.499530  -0.639724
    C   C1   0.499508  0.660018  0.499844  0.861923
    C   C2   0.500491  0.339978  0.500169  0.861920
    O   O5   0.417177  0.502972  0.613680  -0.600527
    O   O6   0.582823  0.497023  0.386333  -0.600592
    O   O7   0.574482  0.497328  0.609454  -0.492329
    O   O8   0.425518  0.502667  0.390559  -0.492285
    C   C3   0.494532  0.499979  0.647876  0.630952
    C   C4   0.505468  0.500017  0.352137  0.630950
    Cu  Cu1  0.408351  0.499908  0.502450  0.915925
    Cu  Cu2  0.591649  0.500088  0.497563  0.915873
    C   C5   0.490801  0.501120  0.732516  -0.156962
    C   C6   0.509198  0.498876  0.267497  -0.156969
    C   C7   0.569052  0.491444  0.773169  0.469444
    C   C8   0.430948  0.508551  0.226844  0.469535
    C   C9   0.563068  0.496953  0.852375  -0.501462
    C   C10  0.436932  0.503042  0.147638  -0.501576
    C   C11  0.479194  0.508799  0.892435  0.339579
    C   C12  0.520805  0.491197  0.107578  0.339641
    C   C13  0.401811  0.517725  0.851935  -0.305080
    C   C14  0.598188  0.482270  0.148078  -0.305116
    C   C15  0.407346  0.513809  0.772887  -0.065824
    C   C16  0.592653  0.486186  0.227126  -0.065818
    C   C17  0.469211  0.515412  0.976875  -0.210196
    C   C18  0.530788  0.484583  0.023138  -0.210186
    H   H1   0.654820  0.478233  0.256689  0.129721
    H   H2   0.345179  0.521762  0.743324  0.129712
    H   H3   0.591801  0.453641  0.999163  0.126834
    H   H4   0.408199  0.546355  0.000850  0.126843
    H   H5   0.335863  0.527918  0.882204  0.141930
    H   H6   0.664136  0.472078  0.117809  0.141936
    H   H7   0.374168  0.506184  0.118411  0.209914
    H   H8   0.625831  0.493812  0.881602  0.209873
    H   H9   0.354010  0.923592  0.499508  0.140475
    H   H10  0.645990  0.076404  0.500505  0.140445
    C   C19  0.418373  0.043141  0.499817  -0.179087
    C   C20  0.581626  0.956855  0.500196  -0.179239
    H   H11  0.354395  0.076978  0.499665  0.143376
    H   H12  0.645605  0.923018  0.500348  0.143398
    C   C21  0.500215  0.085956  0.500101  0.253453
    C   C22  0.499785  0.914039  0.499912  0.253807
    C   C23  0.581843  0.042822  0.500288  -0.179314
    C   C24  0.418157  0.957174  0.499725  -0.179464
    C   C25  0.500421  0.175407  0.500166  -0.088795
    C   C26  0.499578  0.824589  0.499847  -0.089059
    C   C27  0.499485  0.749469  0.499823  -0.258538
    C   C28  0.500514  0.250527  0.500190  -0.258696
    H   H13  0.922252  0.382617  0.440772  0.161188
    H   H14  0.077747  0.617379  0.559241  0.161134
    C   C29  0.050532  0.433861  0.469664  -0.150085
    C   C30  0.949468  0.566134  0.530349  -0.150500
    H   H15  0.090195  0.382090  0.445754  0.155724
    H   H16  0.909805  0.617906  0.554259  0.155759
    C   C31  0.094085  0.499575  0.503020  0.240245
    C   C32  0.905915  0.500421  0.496993  0.240574
    C   C33  0.043573  0.565765  0.533288  -0.189977
    C   C34  0.956427  0.434231  0.466725  -0.190417
    C   C35  0.192103  0.499568  0.505134  0.062158
    C   C36  0.807896  0.500428  0.494879  0.062322
    N   N1   0.728773  0.500402  0.493994  -0.154051
    N   N2   0.271227  0.499594  0.506019  -0.153856
    O   O9   0.653477  0.479098  0.736136  -0.455531
    C   C37  0.671501  0.394019  0.743809  0.534679
    H   H17  0.606958  0.357838  0.742055  -0.092602
    H   H18  0.703085  0.382408  0.798958  -0.087428
    C   C38  0.737593  0.365974  0.678456  -0.306281
    H   H19  0.800906  0.404205  0.677852  0.067737
    H   H20  0.755169  0.299422  0.686493  0.040948
    H   H21  0.705230  0.373510  0.623143  0.109584
    O   O10  0.346522  0.520898  0.263877  -0.455588
    C   C39  0.328499  0.605978  0.256204  0.534759
    H   H22  0.296915  0.617588  0.201055  -0.087459
    H   H23  0.393042  0.642157  0.257958  -0.092626
    C   C40  0.262407  0.634023  0.321557  -0.306297
    H   H24  0.294770  0.626486  0.376870  0.109626
    H   H25  0.244831  0.700574  0.313520  0.040931
    H   H26  0.199093  0.595792  0.322161  0.067741
