# Generated by REPEAT Assigner based on pymatgen
data_DB0-m29_o82_o172_f0_pts.sym.17
_audit_creation_date              2022-05-24
_audit_creation_method            REPEAT_Assigner
_cell_length_a                    14.527831
_cell_length_b                    19.045995
_cell_length_c                    21.164790
_cell_angle_alpha                 89.433309
_cell_angle_beta                  90.075386
_cell_angle_gamma                 75.353020
_cell_volume                      5665.597806
_symmetry_space_group_name_H-M    P1
_symmetry_Int_Tables_number       1
loop_
    _symmetry_equiv_pos_site_id
    _symmetry_equiv_pos_as_xyz
    1  x,y,z
loop_
    _atom_site_type_symbol
    _atom_site_label
    _atom_site_fract_x
    _atom_site_fract_y
    _atom_site_fract_z
    _atom_type_partial_charge
    C   C1   0.295652  0.973927  0.926473  0.025166
    C   C2   0.220584  0.950419  0.902512  -0.156000
    C   C3   0.136206  0.961727  0.934772  -0.160271
    C   C4   0.931321  0.037593  0.925653  -0.188892
    C   C5   0.287756  0.002461  0.986979  -0.049125
    C   C6   0.200975  0.015480  0.018849  0.059392
    C   C7   0.121658  0.001646  0.990055  0.138719
    C   C8   0.032692  0.020622  0.020564  -0.149824
    C   C9   0.848602  0.032877  0.895544  -0.059882
    C   C10  0.776464  0.015320  0.930389  -0.023797
    C   C11  0.945377  0.023245  0.989954  0.104303
    C   C12  0.866847  0.019255  0.025283  0.137884
    C   C13  0.784873  0.010311  0.995642  -0.130139
    C   C14  0.194153  0.040022  0.080368  -0.225405
    C   C15  0.111860  0.047099  0.114369  -0.099310
    C   C16  0.030897  0.036395  0.084685  0.244499
    C   C17  0.948043  0.040946  0.118350  -0.256541
    C   C18  0.869143  0.028642  0.089841  -0.140845
    H   H1   0.226347  0.923137  0.857638  0.137150
    H   H2   0.082597  0.937870  0.915411  0.141840
    H   H3   0.985070  0.053411  0.897859  0.138913
    H   H4   0.254174  0.050875  0.104653  0.172633
    H   H5   0.942415  0.052157  0.168129  0.175164
    H   H6   0.807507  0.033018  0.119304  0.111887
    O   O1   0.618930  0.030461  0.024071  -0.541207
    C   C19  0.707803  0.994203  0.033378  0.576091
    O   O2   0.586186  0.850500  0.068768  -0.456581
    O   O3   0.728460  0.944466  0.078014  -0.507916
    O   O4   0.580082  0.926726  0.151938  -0.536293
    C   C20  0.599590  0.860776  0.128916  0.544140
    Fe  Fe1  0.533608  0.004040  0.087802  1.432017
    O   O5   0.438264  0.964259  0.040790  -0.571188
    O   O6   0.373866  0.085314  0.026454  -0.500257
    C   C21  0.370367  0.017855  0.018029  0.633285
    O   O7   0.490434  0.097647  0.134599  -0.648726
    O   O8   0.412671  0.028231  0.190925  -0.573224
    C   C22  0.431303  0.091080  0.179794  0.654216
    O   O9   0.562874  0.905982  0.793466  -0.502564
    O   O10  0.632019  0.957043  0.715229  -0.539975
    C   C23  0.614452  0.899419  0.742004  0.625465
    O   O11  0.635707  0.047153  0.863735  -0.591316
    O   O12  0.675612  0.935467  0.909655  -0.520434
    C   C24  0.693748  0.998740  0.899521  0.692725
    O   O13  0.368885  0.960497  0.824226  -0.581116
    O   O14  0.478989  0.075350  0.761654  -0.506235
    C   C25  0.413697  0.128835  0.786244  0.573741
    O   O15  0.453298  0.991715  0.904177  -0.470710
    C   C26  0.377632  0.972010  0.884696  0.596645
    O   O16  0.397235  0.128470  0.847120  -0.536621
    Fe  Fe2  0.531194  0.005725  0.830716  1.340429
    C   C27  0.910105  0.610847  0.379657  -0.030734
    C   C28  0.898468  0.685067  0.386171  0.008670
    C   C29  0.781637  0.635863  0.491915  -0.338751
    C   C30  0.868866  0.601500  0.518457  0.054659
    C   C31  0.945272  0.554979  0.486480  0.100079
    C   C32  0.958322  0.556024  0.420801  0.138126
    C   C33  0.008473  0.501769  0.521783  -0.326256
    C   C34  0.076654  0.446262  0.493949  0.145463
    C   C35  0.077275  0.441569  0.428099  -0.014759
    C   C36  0.021910  0.498253  0.393167  -0.148289
    C   C37  0.145026  0.400226  0.533074  -0.024828
    C   C38  0.237233  0.366406  0.514820  -0.075008
    C   C39  0.129584  0.309565  0.415557  -0.151537
    C   C40  0.124087  0.379739  0.395165  0.040922
    H   H7   0.026706  0.496930  0.342429  0.142995
    H   H8   0.004405  0.502836  0.572335  0.204567
    C   C41  0.180015  0.257774  0.375404  -0.150359
    C   C42  0.214091  0.287096  0.323294  0.046427
    S   S1   0.177032  0.384147  0.319138  -0.013568
    S   S2   0.123301  0.382395  0.614645  -0.037309
    C   C43  0.239106  0.320715  0.615577  0.131985
    C   C44  0.288599  0.320818  0.560226  -0.221080
    C   C45  0.720249  0.680376  0.532822  0.066110
    C   C46  0.756192  0.678536  0.593811  0.071609
    S   S3   0.872772  0.618538  0.601648  -0.005226
    S   S4   0.857351  0.588232  0.308674  -0.105049
    C   C47  0.810520  0.683774  0.294775  0.201639
    C   C48  0.841415  0.725277  0.339716  -0.282014
    C   C49  0.274750  0.245730  0.279558  0.006769
    C   C50  0.274377  0.276709  0.667210  -0.075927
    C   C51  0.714239  0.724359  0.642695  -0.132973
    C   C52  0.750407  0.715504  0.244525  -0.207507
    S   S5   0.308800  0.148393  0.282017  0.051685
    C   C53  0.380977  0.154612  0.214824  -0.042640
    C   C54  0.376731  0.224454  0.195197  -0.139998
    C   C55  0.316735  0.275714  0.231292  -0.158396
    C   C56  0.722639  0.680539  0.192418  0.121411
    C   C57  0.665845  0.728854  0.150356  -0.279178
    C   C58  0.647594  0.799750  0.169125  0.066583
    S   S6   0.700749  0.812196  0.242622  0.063009
    S   S7   0.666953  0.820021  0.629544  0.045686
    C   C59  0.650367  0.827891  0.713015  -0.049042
    C   C60  0.678513  0.762168  0.745584  -0.182816
    C   C61  0.717154  0.704203  0.706282  0.138978
    C   C62  0.224130  0.281526  0.726917  -0.120205
    C   C63  0.271915  0.231318  0.770073  -0.142774
    C   C64  0.355197  0.186944  0.747076  -0.020834
    S   S8   0.383103  0.206047  0.666981  0.091016
    H   H9   0.193202  0.200427  0.385707  0.163110
    H   H10  0.360606  0.289211  0.552535  0.170296
    H   H11  0.826903  0.783704  0.338310  0.185168
    H   H12  0.414282  0.237935  0.154631  0.183089
    H   H13  0.305295  0.333160  0.222075  0.162192
    H   H14  0.638682  0.714826  0.106048  0.154631
    H   H15  0.157538  0.319947  0.737491  0.167697
    H   H16  0.245269  0.226570  0.817162  0.162056
    H   H17  0.759654  0.626677  0.444715  0.176475
    H   H18  0.268239  0.374509  0.469853  0.116389
    H   H19  0.097582  0.295941  0.458533  0.142493
    C   C65  0.621250  0.717644  0.511971  0.166497
    C   C66  0.548865  0.687071  0.547149  -0.151301
    H   H20  0.569457  0.627007  0.544386  0.032376
    H   H21  0.544755  0.703602  0.597304  0.018649
    H   H22  0.477927  0.708085  0.524940  0.044735
    H   H23  0.605835  0.777069  0.517818  -0.007815
    H   H24  0.613965  0.707682  0.460924  -0.017917
    C   C67  0.752970  0.600194  0.180376  0.244360
    C   C68  0.715450  0.577872  0.118724  -0.332325
    H   H25  0.636528  0.592182  0.118808  0.089828
    H   H26  0.742785  0.603586  0.078016  0.106346
    H   H27  0.741184  0.518161  0.114163  0.069799
    H   H28  0.831694  0.582686  0.178296  -0.000628
    H   H29  0.725979  0.571053  0.218887  -0.010697
    C   C69  0.671228  0.755089  0.816044  0.210819
    C   C70  0.574095  0.745217  0.834344  -0.194523
    H   H30  0.516743  0.787733  0.811891  0.077527
    H   H31  0.566944  0.691484  0.818828  0.010426
    H   H32  0.566434  0.748531  0.886424  0.057530
    H   H33  0.726338  0.708468  0.834640  -0.012556
    H   H34  0.684130  0.803361  0.839587  0.010998
    C   C71  0.744907  0.626642  0.729103  0.125424
    C   C72  0.844447  0.607556  0.757346  -0.237542
    H   H35  0.882282  0.648956  0.743102  0.048478
    H   H36  0.840623  0.605083  0.809570  0.072059
    H   H37  0.884084  0.553539  0.740221  0.058348
    H   H38  0.693903  0.616883  0.764824  0.033583
    H   H39  0.741926  0.589264  0.689880  -0.036890
    C   C73  0.951377  0.720639  0.431502  0.215488
    C   C74  0.056818  0.699966  0.416586  -0.165027
    H   H40  0.088326  0.642052  0.428387  0.013967
    H   H41  0.067156  0.709676  0.365645  0.039593
    H   H42  0.092968  0.733780  0.444979  0.051412
    H   H43  0.925290  0.780337  0.426192  -0.012575
    H   H44  0.940324  0.706759  0.481159  -0.057233
    C   C75  0.843367  0.041882  0.825100  0.185032
    C   C76  0.867500  0.968456  0.793243  -0.124424
    H   H45  0.937662  0.936030  0.810498  0.026012
    H   H46  0.812704  0.938757  0.803489  -0.004070
    H   H47  0.870925  0.976522  0.741426  0.031141
    H   H48  0.772770  0.074770  0.809461  -0.003366
    H   H49  0.896081  0.071387  0.809335  -0.028906
    C   C77  0.114366  0.067761  0.182564  0.155410
    C   C78  0.068922  0.148172  0.190844  -0.181555
    H   H50  0.107812  0.179973  0.161823  0.066562
    H   H51  0.993268  0.162020  0.176032  0.019363
    H   H52  0.073474  0.162345  0.241248  0.027883
    H   H53  0.080956  0.034221  0.213678  -0.032814
    H   H54  0.189187  0.057341  0.198779  0.025683
