# Generated by REPEAT Assigner based on pymatgen
data_DB0-m3_o1520_o25_f0_fsc.sym.41
_audit_creation_date              2022-05-24
_audit_creation_method            REPEAT_Assigner
_cell_length_a                    8.518599
_cell_length_b                    12.995204
_cell_length_c                    14.256285
_cell_angle_alpha                 90.965693
_cell_angle_beta                  90.084654
_cell_angle_gamma                 95.325006
_cell_volume                      1571.142549
_symmetry_space_group_name_H-M    P1
_symmetry_Int_Tables_number       1
loop_
    _symmetry_equiv_pos_site_id
    _symmetry_equiv_pos_as_xyz
    1  x,y,z
loop_
    _atom_site_type_symbol
    _atom_site_label
    _atom_site_fract_x
    _atom_site_fract_y
    _atom_site_fract_z
    _atom_type_partial_charge
    C   C1   0.097153  0.295547  0.018942  -0.189809
    C   C2   0.873644  0.704457  0.980932  -0.190147
    C   C3   0.966154  0.347753  0.030555  -0.178025
    C   C4   0.004642  0.652250  0.969320  -0.178123
    C   C5   0.818892  0.297888  0.018724  0.023991
    C   C6   0.151905  0.702114  0.981150  0.027937
    C   C7   0.800504  0.192228  0.005968  -0.368010
    C   C8   0.170294  0.807774  0.993906  -0.358384
    C   C9   0.931794  0.135150  0.006714  0.187693
    C   C10  0.039004  0.864854  0.993159  0.175798
    C   C11  0.080746  0.188881  0.008040  0.164160
    C   C12  0.890052  0.811123  0.991833  0.168142
    C   C13  0.917955  0.026521  0.003228  -0.001688
    C   C14  0.052844  0.973482  0.996644  0.010953
    C   C15  0.198988  0.030313  0.991196  -0.161396
    C   C16  0.771811  0.969691  0.008677  -0.155857
    C   C17  0.212464  0.136103  0.998455  -0.272596
    C   C18  0.758335  0.863902  0.001418  -0.279170
    H   H1   0.979514  0.430156  0.041633  0.147683
    H   H2   0.991280  0.569847  0.958244  0.148337
    H   H3   0.681997  0.158700  0.994039  0.156417
    H   H4   0.288802  0.841302  0.005834  0.152577
    H   H5   0.663337  0.003987  0.019654  0.130363
    H   H6   0.307461  0.996017  0.980219  0.133284
    H   H7   0.641805  0.823440  0.003484  0.135401
    H   H8   0.328993  0.176564  0.996389  0.131309
    O   O1   0.670104  0.616727  0.071443  -0.725176
    O   O2   0.300692  0.383275  0.928428  -0.727551
    O   O3   0.661938  0.598416  0.910178  -0.699428
    O   O4   0.308858  0.401588  0.089700  -0.727204
    C   C19  0.722592  0.641638  0.987468  0.903554
    C   C20  0.248203  0.358368  0.012406  0.934450
    O   O5   0.639518  0.385051  0.928218  -0.717840
    O   O6   0.331278  0.614952  0.071660  -0.717657
    O   O7   0.637340  0.403309  0.089524  -0.701564
    O   O8   0.333456  0.596694  0.910347  -0.721366
    C   C21  0.686266  0.360835  0.012149  0.823730
    C   C22  0.284529  0.639165  0.987726  0.837371
    Zn  Zn1  0.483205  0.486278  0.895757  1.075590
    Zn  Zn2  0.487593  0.513726  0.104118  1.082336
    C   C23  0.365185  0.552590  0.475667  -0.346349
    C   C24  0.607771  0.447425  0.524355  -0.195420
    C   C25  0.350071  0.447513  0.523736  -0.366385
    C   C26  0.622883  0.552484  0.475997  -0.183906
    H   H9   0.238840  0.402100  0.543667  0.174119
    H   H10  0.733278  0.599050  0.456360  0.087215
    H   H11  0.267026  0.598086  0.455348  0.170796
    H   H12  0.704765  0.400774  0.544377  0.088957
    N   N1   0.480895  0.472318  0.772953  0.034158
    N   N2   0.489926  0.527686  0.226921  0.033857
    C   C27  0.498991  0.587361  0.541882  0.350105
    C   C28  0.474309  0.412645  0.457996  0.364636
    C   C29  0.483955  0.485276  0.589743  0.603939
    C   C30  0.488650  0.514730  0.410135  0.588730
    C   C31  0.481888  0.476266  0.691932  -0.257819
    C   C32  0.489596  0.523738  0.307943  -0.258542
    N   N3   0.460663  0.315135  0.407864  -0.451747
    C   C33  0.438556  0.229098  0.470218  -0.121190
    C   C34  0.590546  0.305789  0.344708  0.126361
    H   H13  0.332904  0.236556  0.514153  0.059392
    H   H14  0.543263  0.227640  0.516351  0.039951
    H   H15  0.420397  0.155838  0.428879  0.121661
    H   H16  0.546237  0.301538  0.271430  0.051857
    H   H17  0.648507  0.234869  0.359683  0.026277
    H   H18  0.678697  0.373604  0.353127  -0.036675
    N   N4   0.512861  0.684871  0.592014  -0.452543
    C   C35  0.515616  0.770915  0.529625  -0.118098
    C   C36  0.645047  0.694121  0.655655  0.122701
    H   H19  0.408091  0.763535  0.485295  0.058178
    H   H20  0.620979  0.772296  0.483882  0.041728
    H   H21  0.518110  0.844181  0.570934  0.118505
    H   H22  0.601555  0.698393  0.728772  0.053402
    H   H23  0.723286  0.764998  0.640939  0.030291
    H   H24  0.713918  0.626255  0.647520  -0.038225
