# Generated by REPEAT Assigner based on pymatgen
data_DB0-m2_o21_o27_f0_pcu.sym.64_sqe
_audit_creation_date              2022-05-24
_audit_creation_method            REPEAT_Assigner
_cell_length_a                    12.583114
_cell_length_b                    14.064842
_cell_length_c                    19.246852
_cell_angle_alpha                 90.027659
_cell_angle_beta                  93.621544
_cell_angle_gamma                 98.177717
_cell_volume                      3364.774372
_symmetry_space_group_name_H-M    P1
_symmetry_Int_Tables_number       1
loop_
    _symmetry_equiv_pos_site_id
    _symmetry_equiv_pos_as_xyz
    1  x,y,z
loop_
    _atom_site_type_symbol
    _atom_site_label
    _atom_site_fract_x
    _atom_site_fract_y
    _atom_site_fract_z
    _atom_type_partial_charge
    O   O1   0.395390  0.355159  0.492781  -0.596734
    O   O2   0.604718  0.644773  0.506467  -0.596777
    O   O3   0.579887  0.366141  0.505396  -0.608598
    O   O4   0.420220  0.633793  0.493855  -0.608945
    C   C1   0.483793  0.315978  0.498957  0.799172
    C   C2   0.516315  0.683952  0.500321  0.800350
    O   O5   0.407304  0.491092  0.394762  -0.547448
    O   O6   0.592793  0.508840  0.604485  -0.550073
    O   O7   0.592190  0.508730  0.402525  -0.568651
    O   O8   0.407919  0.491200  0.596721  -0.571129
    C   C3   0.499783  0.499925  0.366004  0.537036
    C   C4   0.500313  0.499982  0.633260  0.541945
    Cu  Cu1  0.392770  0.493617  0.495142  0.986162
    Cu  Cu2  0.607336  0.506317  0.504102  0.984570
    C   C5   0.403955  0.490769  0.249518  -0.197786
    C   C6   0.596084  0.509169  0.749803  -0.197638
    H   H1   0.327765  0.483508  0.273330  0.132245
    H   H2   0.672291  0.516433  0.726005  0.132168
    C   C7   0.403963  0.490786  0.177874  0.168190
    C   C8   0.596041  0.509189  0.821448  0.168700
    H   H3   0.327676  0.483538  0.147882  0.018329
    H   H4   0.672319  0.516472  0.851442  0.018480
    C   C9   0.499913  0.499940  0.145517  -0.526283
    C   C10  0.500079  0.500065  0.853794  -0.527571
    C   C11  0.595828  0.509060  0.185850  0.163148
    C   C12  0.404187  0.490912  0.813438  0.163710
    H   H5   0.672141  0.516346  0.162195  0.018090
    H   H6   0.327857  0.483655  0.837062  0.018108
    C   C13  0.595765  0.509040  0.257494  -0.191520
    C   C14  0.404285  0.490894  0.741793  -0.192186
    H   H7   0.671923  0.516290  0.287644  0.129257
    H   H8   0.328144  0.483643  0.711621  0.129567
    C   C15  0.499843  0.499912  0.289784  0.110470
    C   C16  0.500219  0.500015  0.709508  0.109048
    N   N1   0.593405  0.508818  0.037878  -0.336841
    N   N2   0.406557  0.491141  0.961426  -0.338629
    N   N3   0.593442  0.508849  0.969194  -0.340588
    N   N4   0.406519  0.491109  0.030112  -0.338674
    C   C17  0.500021  0.500028  0.930098  0.910044
    C   C18  0.499945  0.499961  0.069209  0.907112
    C   C19  0.525143  0.786792  0.501170  -0.220062
    C   C20  0.474918  0.213125  0.499044  -0.216866
    C   C21  0.544318  0.976997  0.503561  -0.114458
    C   C22  0.455621  0.022912  0.499863  -0.104836
    C   C23  0.467370  0.126583  0.499355  -0.049406
    C   C24  0.532643  0.873327  0.502107  -0.042985
    N   N5   0.232356  0.484300  0.488570  -0.260037
    N   N6   0.767751  0.515639  0.510682  -0.258303
    C   C25  0.024209  0.471975  0.479904  -0.105860
    C   C26  0.975911  0.528097  0.519446  -0.106678
    C   C27  0.860562  0.521183  0.514585  0.256622
    C   C28  0.139551  0.478819  0.484722  0.257303
    H   H9   0.023447  0.579040  0.555401  0.188681
    H   H10  0.976618  0.421018  0.443997  0.188355
    C   C29  0.340121  0.971039  0.495717  0.792793
    C   C30  0.315285  0.914997  0.562068  -0.439183
    C   C31  0.261314  0.044362  0.489070  -0.340709
    C   C32  0.317038  0.905837  0.431497  -0.447920
    H   H11  0.341534  0.962174  0.607961  0.071124
    H   H12  0.355279  0.850091  0.566599  0.090839
    H   H13  0.227456  0.891329  0.562553  0.078955
    H   H14  0.270111  0.092557  0.535389  0.058928
    H   H15  0.177357  0.007011  0.486562  0.061363
    H   H16  0.271561  0.086090  0.440404  0.059060
    H   H17  0.333156  0.832022  0.443082  0.098000
    H   H18  0.366735  0.936333  0.389078  0.080193
    H   H19  0.231114  0.900473  0.413139  0.074258
    C   C33  0.659776  0.028944  0.509006  0.798543
    C   C34  0.684564  0.084989  0.577453  -0.438926
    C   C35  0.738661  0.955696  0.508827  -0.342319
    C   C36  0.682788  0.094178  0.446746  -0.448081
    H   H20  0.658642  0.037702  0.621160  0.070721
    H   H21  0.644264  0.149697  0.578833  0.095119
    H   H22  0.772349  0.108967  0.585102  0.077496
    H   H23  0.729891  0.907490  0.554384  0.060109
    H   H24  0.822594  0.993123  0.513301  0.061063
    H   H25  0.728466  0.913953  0.459295  0.058218
    H   H26  0.667584  0.168189  0.457358  0.094391
    H   H27  0.632327  0.064177  0.400354  0.079343
    H   H28  0.768464  0.098868  0.435040  0.075323
