# Generated by REPEAT Assigner based on pymatgen
data_DB0-m2_o3_o14_f0_nbo.sym.34
_audit_creation_date              2022-05-24
_audit_creation_method            REPEAT_Assigner
_cell_length_a                    43.876103
_cell_length_b                    38.622536
_cell_length_c                    21.565722
_cell_angle_alpha                 90.000000
_cell_angle_beta                  61.518366
_cell_angle_gamma                 90.000000
_cell_volume                      32122.319650
_symmetry_space_group_name_H-M    P1
_symmetry_Int_Tables_number       1
loop_
    _symmetry_equiv_pos_site_id
    _symmetry_equiv_pos_as_xyz
    1  x,y,z
loop_
    _atom_site_type_symbol
    _atom_site_label
    _atom_site_fract_x
    _atom_site_fract_y
    _atom_site_fract_z
    _atom_type_partial_charge
    O   O1    0.050140  0.536763  0.459980  -0.642870
    O   O2    0.949860  0.536763  0.540020  -0.642912
    O   O3    0.550140  0.036763  0.459980  -0.642877
    O   O4    0.449860  0.036763  0.540020  -0.642907
    O   O5    0.048461  0.479559  0.428484  -0.616496
    O   O6    0.951539  0.479559  0.571516  -0.616523
    O   O7    0.548461  0.979559  0.428484  -0.616545
    O   O8    0.451539  0.979559  0.571516  -0.616568
    C   C1    0.065555  0.508112  0.426186  0.766758
    C   C2    0.934445  0.508112  0.573814  0.766895
    C   C3    0.565555  0.008112  0.426186  0.766790
    C   C4    0.434445  0.008112  0.573814  0.766855
    O   O9    0.995210  0.536745  0.594340  -0.615921
    O   O10   0.004791  0.536745  0.405660  -0.615916
    O   O11   0.495210  0.036745  0.594340  -0.615880
    O   O12   0.504791  0.036745  0.405660  -0.615901
    O   O13   0.013710  0.479564  0.573345  -0.591385
    O   O14   0.986290  0.479564  0.426655  -0.591386
    O   O15   0.513710  0.979564  0.573345  -0.591427
    O   O16   0.486290  0.979564  0.426655  -0.591451
    C   C5    0.006930  0.508459  0.610332  0.741381
    C   C6    0.993070  0.508459  0.389667  0.741368
    C   C7    0.506930  0.008459  0.610332  0.741411
    C   C8    0.493070  0.008459  0.389667  0.741468
    Cu  Cu1   0.000000  0.541998  0.500000  0.987767
    Cu  Cu2   0.500000  0.041998  0.500000  0.987745
    Cu  Cu3   0.000000  0.474308  0.500000  0.958093
    Cu  Cu4   0.500000  0.974308  0.500000  0.958120
    H   H1    0.964621  0.540433  0.727813  0.127685
    H   H2    0.035379  0.540433  0.272187  0.127641
    H   H3    0.464621  0.040433  0.727813  0.127633
    H   H4    0.535379  0.040433  0.272187  0.127638
    C   C9    0.062657  0.474486  0.625814  -0.243616
    C   C10   0.937343  0.474486  0.374186  -0.243492
    C   C11   0.562657  0.974486  0.625814  -0.243499
    C   C12   0.437343  0.974486  0.374186  -0.243528
    H   H5    0.068034  0.479438  0.572366  0.144038
    H   H6    0.931966  0.479438  0.427634  0.143995
    H   H7    0.568034  0.979438  0.572366  0.144020
    H   H8    0.431966  0.979438  0.427634  0.144025
    C   C13   0.085584  0.453528  0.634760  -0.122749
    C   C14   0.914416  0.453528  0.365240  -0.122764
    C   C15   0.585584  0.953528  0.634760  -0.122851
    C   C16   0.414416  0.953528  0.365240  -0.122772
    H   H9    0.106899  0.442088  0.588822  0.146124
    H   H10   0.893101  0.442088  0.411178  0.146116
    H   H11   0.606899  0.942088  0.588822  0.146149
    H   H12   0.393101  0.942088  0.411178  0.146119
    C   C17   0.080831  0.446765  0.701415  0.106505
    C   C18   0.919169  0.446765  0.298585  0.106485
    C   C19   0.580831  0.946765  0.701415  0.106600
    C   C20   0.419169  0.946765  0.298585  0.106521
    C   C21   0.054281  0.462983  0.758638  -0.390752
    C   C22   0.945719  0.462983  0.241362  -0.390641
    C   C23   0.554281  0.962983  0.758638  -0.390852
    C   C24   0.445719  0.962983  0.241362  -0.390733
    H   H13   0.050763  0.456671  0.810237  0.223572
    H   H14   0.949238  0.456671  0.189763  0.223506
    H   H15   0.550763  0.956671  0.810237  0.223560
    H   H16   0.449238  0.956671  0.189763  0.223557
    C   C25   0.032108  0.485805  0.749871  0.266735
    C   C26   0.967892  0.485805  0.250129  0.266650
    C   C27   0.532108  0.985805  0.749871  0.266934
    C   C28   0.467892  0.985805  0.250129  0.266723
    C   C29   0.034605  0.489339  0.683481  0.184777
    C   C30   0.965395  0.489339  0.316519  0.184660
    C   C31   0.534605  0.989339  0.683481  0.184594
    C   C32   0.465395  0.989339  0.316519  0.184698
    C   C33   0.009519  0.508280  0.675744  -0.183453
    C   C34   0.990481  0.508280  0.324256  -0.183475
    C   C35   0.509519  0.008280  0.675744  -0.183443
    C   C36   0.490481  0.008280  0.324256  -0.183533
    C   C37   0.984285  0.525744  0.732863  -0.075815
    C   C38   0.015716  0.525744  0.267136  -0.075530
    C   C39   0.484285  0.025744  0.732863  -0.075593
    C   C40   0.515716  0.025744  0.267136  -0.075528
    H   H17   0.963320  0.538366  0.841088  0.143440
    H   H18   0.036680  0.538366  0.158912  0.143487
    H   H19   0.463320  0.038366  0.841088  0.143457
    H   H20   0.536680  0.038366  0.158912  0.143483
    C   C41   0.983084  0.523951  0.797515  -0.094519
    C   C42   0.016916  0.523951  0.202485  -0.094852
    C   C43   0.483084  0.023951  0.797515  -0.094664
    C   C44   0.516916  0.023951  0.202485  -0.094822
    C   C45   0.006743  0.504202  0.806797  -0.233529
    C   C46   0.993257  0.504202  0.193203  -0.233286
    C   C47   0.506743  0.004202  0.806797  -0.233733
    C   C48   0.493257  0.004202  0.193203  -0.233368
    C   C49   0.378225  0.500730  0.062202  -0.086217
    C   C50   0.621775  0.500730  0.937798  -0.086168
    C   C51   0.878225  0.000730  0.062202  -0.086239
    C   C52   0.121775  0.000730  0.937798  -0.086172
    H   H21   0.391846  0.496969  0.005733  0.121771
    H   H22   0.608155  0.496969  0.994267  0.121728
    H   H23   0.891846  0.996969  0.005733  0.121796
    H   H24   0.108155  0.996969  0.994267  0.121750
    C   C53   0.342469  0.500972  0.096477  -0.158938
    C   C54   0.657531  0.500972  0.903523  -0.158921
    C   C55   0.842469  0.000972  0.096477  -0.158855
    C   C56   0.157531  0.000972  0.903523  -0.158841
    H   H25   0.329188  0.497926  0.065604  0.114134
    H   H26   0.670812  0.497926  0.934396  0.114140
    H   H27   0.829188  0.997926  0.065604  0.114103
    H   H28   0.170812  0.997926  0.934396  0.114106
    C   C57   0.324100  0.506045  0.168649  0.105769
    C   C58   0.675900  0.506045  0.831351  0.105644
    C   C59   0.824100  0.006045  0.168649  0.105807
    C   C60   0.175900  0.006045  0.831351  0.105688
    C   C61   0.342157  0.510923  0.205873  -0.156821
    C   C62   0.657843  0.510923  0.794127  -0.156748
    C   C63   0.842157  0.010923  0.205873  -0.156916
    C   C64   0.157843  0.010923  0.794127  -0.156837
    H   H29   0.328633  0.514041  0.262495  0.117179
    H   H30   0.671367  0.514041  0.737505  0.117144
    H   H31   0.828633  0.014041  0.262495  0.117182
    H   H32   0.171367  0.014041  0.737505  0.117152
    C   C65   0.377900  0.510995  0.171526  -0.073315
    C   C66   0.622100  0.510995  0.828474  -0.073334
    C   C67   0.877900  0.010995  0.171526  -0.073102
    C   C68   0.122100  0.010995  0.828474  -0.073111
    H   H33   0.391246  0.514697  0.202121  0.104048
    H   H34   0.608754  0.514697  0.797879  0.104049
    H   H35   0.891246  0.014697  0.202121  0.104014
    H   H36   0.108754  0.014697  0.797879  0.104001
    C   C69   0.396165  0.505860  0.099484  -0.057638
    C   C70   0.603835  0.505860  0.900516  -0.057570
    C   C71   0.896165  0.005860  0.099484  -0.057905
    C   C72   0.103835  0.005860  0.900516  -0.057881
    C   C73   0.267837  0.528680  0.261208  -0.144691
    C   C74   0.732163  0.528680  0.738791  -0.144994
    C   C75   0.767837  0.028680  0.261208  -0.144639
    C   C76   0.232163  0.028680  0.738791  -0.144956
    H   H37   0.281334  0.546646  0.277953  0.113688
    H   H38   0.718666  0.546646  0.722047  0.113763
    H   H39   0.781334  0.046646  0.277953  0.113681
    H   H40   0.218666  0.046646  0.722047  0.113754
    C   C77   0.232107  0.528921  0.295861  -0.138786
    C   C78   0.767894  0.528921  0.704139  -0.138471
    C   C79   0.732107  0.028921  0.295861  -0.138849
    C   C80   0.267894  0.028921  0.704139  -0.138521
    H   H41   0.218855  0.546114  0.340316  0.112491
    H   H42   0.781145  0.546114  0.659684  0.112434
    H   H43   0.718855  0.046114  0.340316  0.112519
    H   H44   0.281145  0.046114  0.659684  0.112464
    C   C81   0.213727  0.507024  0.275046  0.074149
    C   C82   0.786274  0.507024  0.724954  0.073722
    C   C83   0.713727  0.007024  0.275046  0.074183
    C   C84   0.286274  0.007024  0.724954  0.073765
    C   C85   0.231788  0.484789  0.219009  -0.148737
    C   C86   0.768212  0.484789  0.780991  -0.148452
    C   C87   0.731788  0.984789  0.219009  -0.148732
    C   C88   0.268212  0.984789  0.780991  -0.148454
    H   H45   0.218256  0.467769  0.200613  0.110805
    H   H46   0.781744  0.467769  0.799387  0.110742
    H   H47   0.718256  0.967769  0.200613  0.110807
    H   H48   0.281744  0.967769  0.799387  0.110736
    C   C89   0.267548  0.484424  0.184557  -0.130212
    C   C90   0.732452  0.484424  0.815443  -0.130351
    C   C91   0.767548  0.984424  0.184557  -0.130211
    C   C92   0.232452  0.984424  0.815443  -0.130344
    H   H49   0.280835  0.466237  0.141951  0.111173
    H   H50   0.719165  0.466237  0.858049  0.111174
    H   H51   0.780835  0.966237  0.141951  0.111176
    H   H52   0.219165  0.966237  0.858049  0.111176
    C   C93   0.285913  0.506380  0.205327  0.059292
    C   C94   0.714087  0.506380  0.794673  0.059527
    C   C95   0.785913  0.006380  0.205327  0.059236
    C   C96   0.214087  0.006380  0.794673  0.059478
    C   C97   0.156999  0.476898  0.323329  -0.148910
    C   C98   0.843001  0.476898  0.676671  -0.148891
    C   C99   0.656999  0.976898  0.323329  -0.148921
    C   C100  0.343001  0.976898  0.676671  -0.148881
    H   H53   0.170163  0.452360  0.305756  0.119956
    H   H54   0.829837  0.452360  0.694244  0.119956
    H   H55   0.670163  0.952360  0.305756  0.119961
    H   H56   0.329837  0.952360  0.694244  0.119958
    C   C101  0.121240  0.477182  0.359388  -0.079408
    C   C102  0.878760  0.477182  0.640612  -0.079440
    C   C103  0.621240  0.977183  0.359388  -0.079402
    C   C104  0.378760  0.977182  0.640612  -0.079470
    H   H57   0.107471  0.452957  0.368154  0.109403
    H   H58   0.892529  0.452957  0.631846  0.109412
    H   H59   0.607471  0.952957  0.368154  0.109396
    H   H60   0.392529  0.952957  0.631846  0.109422
    C   C105  0.103507  0.507861  0.385474  -0.078639
    C   C106  0.896493  0.507861  0.614526  -0.078673
    C   C107  0.603507  0.007861  0.385474  -0.078612
    C   C108  0.396493  0.007861  0.614526  -0.078618
    C   C109  0.121943  0.538296  0.374202  -0.105435
    C   C110  0.878057  0.538296  0.625798  -0.105497
    C   C111  0.621943  0.038296  0.374202  -0.105435
    C   C112  0.378057  0.038296  0.625798  -0.105498
    H   H61   0.108743  0.562710  0.393385  0.125522
    H   H62   0.891257  0.562710  0.606615  0.125542
    H   H63   0.608743  0.062710  0.393385  0.125523
    H   H64   0.391257  0.062710  0.606615  0.125544
    C   C113  0.157657  0.538056  0.337587  -0.139242
    C   C114  0.842343  0.538056  0.662413  -0.139218
    C   C115  0.657657  0.038056  0.337587  -0.139257
    C   C116  0.342343  0.038056  0.662413  -0.139228
    H   H65   0.171290  0.562389  0.328238  0.112405
    H   H66   0.828710  0.562389  0.671762  0.112408
    H   H67   0.671290  0.062389  0.328238  0.112412
    H   H68   0.328710  0.062389  0.671762  0.112409
    C   C117  0.175539  0.507328  0.312309  0.090461
    C   C118  0.824462  0.507328  0.687691  0.090610
    C   C119  0.675539  0.007328  0.312309  0.090438
    C   C120  0.324462  0.007328  0.687691  0.090586
    O   O17   0.970118  0.455542  0.028800  -0.620775
    O   O18   0.029882  0.455542  0.971200  -0.620847
    O   O19   0.470118  0.955542  0.028800  -0.620766
    O   O20   0.529882  0.955542  0.971200  -0.620846
    C   C121  0.000000  0.439308  0.000000  0.609764
    C   C122  0.500000  0.939308  0.000000  0.609591
    O   O21   0.973742  0.506618  0.932114  -0.651089
    O   O22   0.026258  0.506618  0.067885  -0.650985
    O   O23   0.473742  0.006618  0.932114  -0.651086
    O   O24   0.526258  0.006618  0.067885  -0.651001
    O   O25   0.033206  0.507469  0.881339  -0.590333
    O   O26   0.966794  0.507469  0.118661  -0.590296
    O   O27   0.533206  0.007469  0.881339  -0.590389
    O   O28   0.466794  0.007469  0.118661  -0.590279
    C   C123  0.004555  0.504422  0.876833  0.802921
    C   C124  0.995446  0.504422  0.123167  0.802734
    C   C125  0.504555  0.004422  0.876833  0.803154
    C   C126  0.495446  0.004422  0.123167  0.802771
    Cu  Cu5   0.965543  0.505855  0.029419  0.988778
    Cu  Cu6   0.034457  0.505855  0.970581  0.988921
    Cu  Cu7   0.465543  0.005855  0.029419  0.988842
    Cu  Cu8   0.534457  0.005855  0.970581  0.988916
    O   O29   0.970111  0.556196  0.027350  -0.582910
    O   O30   0.029889  0.556196  0.972650  -0.582979
    O   O31   0.470111  0.056196  0.027350  -0.582876
    O   O32   0.529889  0.056196  0.972650  -0.582983
    C   C127  0.000000  0.572422  0.000000  0.667011
    C   C128  0.500000  0.072422  0.000000  0.666924
    O   O33   0.490317  0.456455  0.060401  -0.592116
    O   O34   0.509683  0.456455  0.939599  -0.592031
    O   O35   0.990317  0.956455  0.060401  -0.592172
    O   O36   0.009683  0.956455  0.939599  -0.592040
    C   C129  0.500000  0.440173  0.000000  0.670245
    C   C130  0.000000  0.940173  0.000000  0.670189
    O   O37   0.450310  0.515279  0.098741  -0.589893
    O   O38   0.549690  0.515279  0.901259  -0.589767
    O   O39   0.950310  0.015279  0.098741  -0.589985
    O   O40   0.049690  0.015279  0.901259  -0.589806
    O   O41   0.450689  0.496447  0.996046  -0.615912
    O   O42   0.549312  0.496447  0.003954  -0.615831
    O   O43   0.950689  0.996447  0.996046  -0.615929
    O   O44   0.049312  0.996447  0.003954  -0.615866
    C   C131  0.434191  0.505871  0.063016  0.696034
    C   C132  0.565809  0.505871  0.936984  0.695781
    C   C133  0.934191  0.005871  0.063016  0.696258
    C   C134  0.065809  0.005871  0.936984  0.695997
    Cu  Cu9   0.499759  0.505857  0.060803  0.963954
    Cu  Cu10  0.500241  0.505857  0.939197  0.963824
    Cu  Cu11  0.999759  0.005857  0.060803  0.963948
    Cu  Cu12  0.000241  0.005857  0.939197  0.963794
    O   O45   0.509276  0.555262  0.042273  -0.596002
    O   O46   0.490724  0.555262  0.957727  -0.596025
    O   O47   0.009276  0.055262  0.042273  -0.595988
    O   O48   0.990724  0.055262  0.957727  -0.595958
    C   C135  0.500000  0.571545  0.000000  0.659396
    C   C136  0.000000  0.071545  0.000000  0.659271
    C   C137  0.508986  0.627593  0.044197  -0.099543
    C   C138  0.491014  0.627593  0.955803  -0.099574
    C   C139  0.008986  0.127593  0.044197  -0.099635
    C   C140  0.991014  0.127593  0.955803  -0.099684
    H   H69   0.515944  0.614163  0.079590  0.121101
    H   H70   0.484056  0.614163  0.920410  0.121139
    H   H71   0.015944  0.114163  0.079590  0.121113
    H   H72   0.984056  0.114163  0.920410  0.121136
    C   C141  0.509003  0.663284  0.044145  -0.154893
    C   C142  0.490997  0.663284  0.955855  -0.154885
    C   C143  0.009003  0.163284  0.044145  -0.154873
    C   C144  0.990997  0.163284  0.955855  -0.154879
    H   H73   0.515426  0.676768  0.080275  0.114374
    H   H74   0.484574  0.676768  0.919725  0.114366
    H   H75   0.015426  0.176768  0.080275  0.114376
    H   H76   0.984574  0.176768  0.919725  0.114384
    C   C145  0.500000  0.681411  0.000000  0.111423
    C   C146  0.000000  0.181411  0.000000  0.111455
    C   C147  0.500000  0.609516  0.000000  -0.025317
    C   C148  0.000000  0.109516  0.000000  -0.025131
    C   C149  0.474360  0.737606  0.994036  -0.130529
    C   C150  0.525640  0.737606  0.005964  -0.130548
    C   C151  0.974360  0.237606  0.994036  -0.130535
    C   C152  0.025640  0.237606  0.005964  -0.130498
    H   H77   0.453670  0.724133  0.990478  0.110608
    H   H78   0.546330  0.724133  0.009522  0.110615
    H   H79   0.953670  0.224133  0.990478  0.110607
    H   H80   0.046330  0.224133  0.009522  0.110597
    C   C153  0.974318  0.273293  0.994187  -0.139101
    C   C154  0.025682  0.273293  0.005813  -0.139241
    C   C155  0.474318  0.773293  0.994187  -0.139158
    C   C156  0.525682  0.773293  0.005813  -0.139181
    H   H81   0.954244  0.286766  0.988391  0.112999
    H   H82   0.045756  0.286766  0.011609  0.113069
    H   H83   0.454244  0.786766  0.988391  0.113027
    H   H84   0.545756  0.786766  0.011609  0.113048
    C   C157  0.000000  0.291426  0.000000  0.049444
    C   C158  0.500000  0.791426  0.000000  0.049410
    C   C159  0.500000  0.719473  0.000000  0.047236
    C   C160  0.000000  0.219473  0.000000  0.047186
    C   C161  0.030783  0.347613  0.965005  -0.129033
    C   C162  0.969217  0.347613  0.034995  -0.129119
    C   C163  0.530783  0.847613  0.965005  -0.129192
    C   C164  0.469217  0.847613  0.034995  -0.129033
    H   H85   0.055138  0.334132  0.935908  0.105465
    H   H86   0.944862  0.334132  0.064092  0.105481
    H   H87   0.555138  0.834132  0.935908  0.105520
    H   H88   0.444862  0.834132  0.064092  0.105474
    C   C165  0.030797  0.383302  0.965009  -0.181226
    C   C166  0.969203  0.383302  0.034991  -0.181130
    C   C167  0.530797  0.883302  0.965009  -0.181188
    C   C168  0.469203  0.883302  0.034991  -0.181285
    H   H89   0.055226  0.396754  0.936723  0.169965
    H   H90   0.944774  0.396754  0.063277  0.169939
    H   H91   0.555226  0.896754  0.936723  0.169966
    H   H92   0.444774  0.896754  0.063277  0.169978
    C   C169  0.000000  0.401361  0.000000  0.058719
    C   C170  0.500000  0.901361  0.000000  0.058893
    C   C171  0.000000  0.329488  0.000000  0.112188
    C   C172  0.500000  0.829488  0.000000  0.112229
    C   C173  0.508825  0.384142  0.938436  -0.079901
    C   C174  0.491175  0.384142  0.061564  -0.079872
    C   C175  0.008825  0.884142  0.938436  -0.079919
    C   C176  0.991175  0.884142  0.061564  -0.079878
    H   H93   0.515630  0.397575  0.889614  0.110839
    H   H94   0.484370  0.397575  0.110386  0.110839
    H   H95   0.015630  0.897575  0.889614  0.110839
    H   H96   0.984370  0.897575  0.110386  0.110847
    C   C177  0.508817  0.348455  0.938463  -0.160265
    C   C178  0.491183  0.348455  0.061537  -0.160306
    C   C179  0.008817  0.848455  0.938463  -0.160274
    C   C180  0.991183  0.848455  0.061537  -0.160324
    H   H97   0.515073  0.334982  0.889943  0.114166
    H   H98   0.484927  0.334983  0.110057  0.114186
    H   H99   0.015073  0.834982  0.889943  0.114178
    H   H100  0.984927  0.834983  0.110057  0.114188
    C   C181  0.500000  0.330329  0.000000  0.101032
    C   C182  0.000000  0.830329  0.000000  0.100973
    C   C183  0.500000  0.402212  0.000000  -0.042246
    C   C184  0.000000  0.902212  0.000000  -0.042163
    C   C185  0.474562  0.274137  0.056052  -0.142120
    C   C186  0.525438  0.274137  0.943948  -0.142097
    C   C187  0.974562  0.774137  0.056052  -0.142310
    C   C188  0.025438  0.774137  0.943948  -0.142331
    H   H101  0.454018  0.287599  0.100032  0.112742
    H   H102  0.545982  0.287599  0.899968  0.112735
    H   H103  0.954018  0.787599  0.100032  0.112782
    H   H104  0.045982  0.787599  0.899968  0.112784
    C   C189  0.974534  0.738454  0.056006  -0.148776
    C   C190  0.025467  0.738454  0.943994  -0.148765
    C   C191  0.474534  0.238454  0.056006  -0.148786
    C   C192  0.525467  0.238454  0.943994  -0.148804
    H   H105  0.954640  0.724992  0.101044  0.113434
    H   H106  0.045360  0.724992  0.898956  0.113439
    H   H107  0.454640  0.224992  0.101044  0.113412
    H   H108  0.545360  0.224992  0.898956  0.113433
    C   C193  0.000000  0.720322  0.000000  0.087207
    C   C194  0.500000  0.220322  0.000000  0.087271
    C   C195  0.500000  0.292269  0.000000  0.074330
    C   C196  0.000000  0.792269  0.000000  0.074615
    C   C197  0.030824  0.664136  0.974274  -0.136110
    C   C198  0.969176  0.664136  0.025726  -0.136076
    C   C199  0.530824  0.164136  0.974274  -0.135691
    C   C200  0.469176  0.164136  0.025726  -0.135641
    H   H109  0.055232  0.677609  0.955297  0.107282
    H   H110  0.944768  0.677609  0.044703  0.107276
    H   H111  0.555232  0.177609  0.955297  0.107217
    H   H112  0.444768  0.177609  0.044703  0.107210
    C   C201  0.030837  0.628450  0.974253  -0.094240
    C   C202  0.969163  0.628450  0.025747  -0.094274
    C   C203  0.530837  0.128450  0.974253  -0.094463
    C   C204  0.469163  0.128450  0.025747  -0.094497
    H   H113  0.055318  0.615012  0.954218  0.121833
    H   H114  0.944682  0.615012  0.045782  0.121835
    H   H115  0.555318  0.115012  0.954218  0.121851
    H   H116  0.444682  0.115012  0.045782  0.121843
    C   C205  0.000000  0.610381  0.000000  -0.055892
    C   C206  0.500000  0.110381  0.000000  -0.055688
    C   C207  0.000000  0.682263  0.000000  0.078060
    C   C208  0.500000  0.182263  0.000000  0.077494
    C   C209  0.104196  0.422888  0.711421  0.623378
    O   O49   0.127782  0.408757  0.660681  -0.550756
    O   O50   0.099537  0.416102  0.778767  -0.602649
    H   H117  0.117685  0.399119  0.776094  0.428995
    C   C210  0.895804  0.422888  0.288579  0.623362
    O   O51   0.872218  0.408757  0.339319  -0.550742
    O   O52   0.900463  0.416102  0.221233  -0.602630
    H   H118  0.882315  0.399119  0.223906  0.428991
    C   C211  0.604196  0.922888  0.711421  0.623367
    O   O53   0.627782  0.908757  0.660681  -0.550755
    O   O54   0.599537  0.916102  0.778767  -0.602652
    H   H119  0.617685  0.899119  0.776094  0.429001
    C   C212  0.395804  0.922888  0.288579  0.623367
    O   O55   0.372218  0.908757  0.339319  -0.550745
    O   O56   0.400463  0.916102  0.221233  -0.602646
    H   H120  0.382315  0.899119  0.223906  0.428994
