data_DB0-m29_o96_o102_f0_pts.sym.73_repeat
_audit_creation_date              2024-02-23
_audit_creation_method            'Materials Studio'
_symmetry_space_group_name_H-M    'P1'
_symmetry_Int_Tables_number       1
_symmetry_cell_setting            triclinic
loop_
_symmetry_equiv_pos_as_xyz
  x,y,z
_cell_length_a                    17.3897
_cell_length_b                    14.0174
_cell_length_c                    16.5528
_cell_angle_alpha                 91.0261
_cell_angle_beta                  91.0596
_cell_angle_gamma                 110.0499
loop_
_atom_site_label
_atom_site_type_symbol
_atom_site_fract_x
_atom_site_fract_y
_atom_site_fract_z
_atom_site_U_iso_or_equiv
_atom_site_adp_type
_atom_site_occupancy
C1     C     0.22226   0.05315   0.12515   0.00000  Uiso   1.00
C2     C     0.19290   0.11599   0.16819   0.00000  Uiso   1.00
C3     C     0.11717   0.10606   0.13496   0.00000  Uiso   1.00
N1     N     0.10022   0.04091   0.07071   0.00000  Uiso   1.00
C4     C     0.16499   0.00903   0.06419   0.00000  Uiso   1.00
C5     C     0.06592   0.14914   0.16488   0.00000  Uiso   1.00
C6     C     0.98050   0.12352   0.13635   0.00000  Uiso   1.00
C7     C     0.91710   0.12194   0.18561   0.00000  Uiso   1.00
C8     C     0.84761   0.09349   0.13901   0.00000  Uiso   1.00
C9     C     0.86945   0.07803   0.06126   0.00000  Uiso   1.00
N2     N     0.95118   0.09703   0.05991   0.00000  Uiso   1.00
C10    C     0.81176   0.04568   0.99168   0.00000  Uiso   1.00
C11    C     0.82040   0.98659   0.93080   0.00000  Uiso   1.00
C12    C     0.76227   0.94259   0.87072   0.00000  Uiso   1.00
C13    C     0.78951   0.87759   0.82663   0.00000  Uiso   1.00
C14    C     0.86704   0.88873   0.85903   0.00000  Uiso   1.00
N3     N     0.88470   0.95440   0.92311   0.00000  Uiso   1.00
C15    C     0.92084   0.84903   0.82941   0.00000  Uiso   1.00
C16    C     0.00645   0.87762   0.85808   0.00000  Uiso   1.00
C17    C     0.07036   0.88209   0.80852   0.00000  Uiso   1.00
C18    C     0.13945   0.90848   0.85555   0.00000  Uiso   1.00
C19    C     0.11697   0.91985   0.93374   0.00000  Uiso   1.00
N4     N     0.03510   0.90027   0.93507   0.00000  Uiso   1.00
C20    C     0.17431   0.95031   0.00365   0.00000  Uiso   1.00
H1     H     0.08432   0.19621   0.21917   0.00000  Uiso   1.00
H2     H     0.75532   0.06161   0.99540   0.00000  Uiso   1.00
H3     H     0.90639   0.80337   0.77504   0.00000  Uiso   1.00
H4     H     0.23091   0.93456   0.00051   0.00000  Uiso   1.00
H5     H     0.98560   0.09619   0.00923   0.00000  Uiso   1.00
H6     H     0.00005   0.89781   0.98587   0.00000  Uiso   1.00
C21    C     0.07204   0.86859   0.72628   0.00000  Uiso   1.00
C22    C     0.14709   0.88365   0.69209   0.00000  Uiso   1.00
C23    C     0.21860   0.91151   0.73984   0.00000  Uiso   1.00
C24    C     0.21501   0.92364   0.82311   0.00000  Uiso   1.00
C25    C     0.29635   0.04276   0.14525   0.00000  Uiso   1.00
C26    C     0.34156   0.10199   0.20938   0.00000  Uiso   1.00
C27    C     0.31228   0.16894   0.25117   0.00000  Uiso   1.00
C28    C     0.23667   0.17520   0.23187   0.00000  Uiso   1.00
C29    C     0.91620   0.13904   0.26743   0.00000  Uiso   1.00
C30    C     0.84148   0.12549   0.30183   0.00000  Uiso   1.00
C31    C     0.76948   0.09546   0.25468   0.00000  Uiso   1.00
C32    C     0.77232   0.07983   0.17170   0.00000  Uiso   1.00
C33    C     0.68905   0.95674   0.85318   0.00000  Uiso   1.00
C34    C     0.64041   0.89857   0.79106   0.00000  Uiso   1.00
C35    C     0.66482   0.82774   0.74935   0.00000  Uiso   1.00
C36    C     0.73970   0.81666   0.76507   0.00000  Uiso   1.00
H7     H     0.01721   0.84883   0.68853   0.00000  Uiso   1.00
H8     H     0.26983   0.94673   0.86104   0.00000  Uiso   1.00
H9     H     0.31939   0.99152   0.11221   0.00000  Uiso   1.00
H10    H     0.34762   0.21467   0.30128   0.00000  Uiso   1.00
H11    H     0.21423   0.22624   0.26585   0.00000  Uiso   1.00
H12    H     0.97140   0.16043   0.30473   0.00000  Uiso   1.00
H13    H     0.71709   0.05480   0.13436   0.00000  Uiso   1.00
H14    H     0.66923   0.01071   0.88648   0.00000  Uiso   1.00
H15    H     0.62551   0.78290   0.70109   0.00000  Uiso   1.00
H16    H     0.14923   0.87416   0.62734   0.00000  Uiso   1.00
H17    H     0.83997   0.13774   0.36632   0.00000  Uiso   1.00
O1     O     0.62264   0.05629   0.25095   0.00000  Uiso   1.00
C37    C     0.69099   0.07741   0.29404   0.00000  Uiso   1.00
O2     O     0.57493   0.85812   0.31932   0.00000  Uiso   1.00
O3     O     0.68853   0.07822   0.37321   0.00000  Uiso   1.00
O4     O     0.48998   0.91491   0.39310   0.00000  Uiso   1.00
C38    C     0.52626   0.84796   0.38060   0.00000  Uiso   1.00
Fe1    Fe    0.52768   0.03291   0.32162   0.00000  Uiso   1.00
O5     O     0.42853   0.00775   0.24915   0.00000  Uiso   1.00
O6     O     0.47759   0.17936   0.26218   0.00000  Uiso   1.00
C39    C     0.42036   0.09601   0.23565   0.00000  Uiso   1.00
O7     O     0.56628   0.15779   0.39365   0.00000  Uiso   1.00
O8     O     0.44181   0.07558   0.44534   0.00000  Uiso   1.00
C40    C     0.50938   0.15499   0.44566   0.00000  Uiso   1.00
C41    C     0.52314   0.67367   0.40201   0.00000  Uiso   1.00
C42    C     0.50951   0.75894   0.43238   0.00000  Uiso   1.00
C43    C     0.48069   0.75812   0.51031   0.00000  Uiso   1.00
C44    C     0.46324   0.67106   0.55468   0.00000  Uiso   1.00
C45    C     0.47881   0.58715   0.52474   0.00000  Uiso   1.00
C46    C     0.50949   0.58804   0.44844   0.00000  Uiso   1.00
C47    C     0.46575   0.50362   0.57256   0.00000  Uiso   1.00
C48    C     0.48293   0.42000   0.54455   0.00000  Uiso   1.00
C49    C     0.51381   0.41992   0.46845   0.00000  Uiso   1.00
C50    C     0.52677   0.50380   0.41978   0.00000  Uiso   1.00
C51    C     0.46838   0.33624   0.59278   0.00000  Uiso   1.00
C52    C     0.48176   0.24971   0.56470   0.00000  Uiso   1.00
C53    C     0.51076   0.24870   0.48705   0.00000  Uiso   1.00
C54    C     0.52903   0.33433   0.44096   0.00000  Uiso   1.00
H18    H     0.54535   0.67610   0.34145   0.00000  Uiso   1.00
H19    H     0.44278   0.67120   0.61590   0.00000  Uiso   1.00
H20    H     0.44188   0.50371   0.63238   0.00000  Uiso   1.00
H21    H     0.44540   0.33852   0.65272   0.00000  Uiso   1.00
H22    H     0.54995   0.32940   0.38067   0.00000  Uiso   1.00
C55    C     0.50506   0.46762   0.27310   0.00000  Uiso   1.00
H23    H     0.43968   0.43986   0.28162   0.00000  Uiso   1.00
N5     N     0.53490   0.46741   0.19874   0.00000  Uiso   1.00
C56    C     0.61629   0.50173   0.18762   0.00000  Uiso   1.00
H24    H     0.63944   0.50115   0.12752   0.00000  Uiso   1.00
N6     N     0.66904   0.53672   0.25083   0.00000  Uiso   1.00
C57    C     0.64129   0.53797   0.32601   0.00000  Uiso   1.00
H25    H     0.68396   0.56613   0.37647   0.00000  Uiso   1.00
C58    C     0.55823   0.50321   0.33836   0.00000  Uiso   1.00
O9     O     0.55931   0.99885   0.74884   0.00000  Uiso   1.00
O10    O     0.50210   0.82755   0.74317   0.00000  Uiso   1.00
C59    C     0.56276   0.90936   0.76668   0.00000  Uiso   1.00
O11    O     0.42346   0.84922   0.60277   0.00000  Uiso   1.00
O12    O     0.54963   0.93059   0.55426   0.00000  Uiso   1.00
C60    C     0.48193   0.85131   0.55282   0.00000  Uiso   1.00
O13    O     0.41732   0.15343   0.67965   0.00000  Uiso   1.00
O14    O     0.36506   0.94935   0.74503   0.00000  Uiso   1.00
C61    C     0.29747   0.93045   0.70117   0.00000  Uiso   1.00
O15    O     0.49909   0.09242   0.60445   0.00000  Uiso   1.00
C62    C     0.46482   0.16147   0.61764   0.00000  Uiso   1.00
O16    O     0.30105   0.93182   0.62207   0.00000  Uiso   1.00
Fe2    Fe    0.46088   0.97383   0.67531   0.00000  Uiso   1.00
C63    C     0.75910   0.73704   0.71677   0.00000  Uiso   1.00
O17    O     0.81531   0.78240   0.65773   0.00000  Uiso   1.00
H26    H     0.70268   0.68514   0.68613   0.00000  Uiso   1.00
H27    H     0.78226   0.68938   0.75634   0.00000  Uiso   1.00
H28    H     0.78121   0.78007   0.60868   0.00000  Uiso   1.00
