# Generated by REPEAT Assigner based on pymatgen
data_DB0-m3_o155_o52_f0_fsc.sym.12
_audit_creation_date              2022-05-24
_audit_creation_method            REPEAT_Assigner
_cell_length_a                    17.547348
_cell_length_b                    8.535480
_cell_length_c                    15.077107
_cell_angle_alpha                 90.000000
_cell_angle_beta                  90.992369
_cell_angle_gamma                 90.000000
_cell_volume                      2257.835638
_symmetry_space_group_name_H-M    P1
_symmetry_Int_Tables_number       1
loop_
    _symmetry_equiv_pos_site_id
    _symmetry_equiv_pos_as_xyz
    1  x,y,z
loop_
    _atom_site_type_symbol
    _atom_site_label
    _atom_site_fract_x
    _atom_site_fract_y
    _atom_site_fract_z
    _atom_type_partial_charge
    H   H1   0.973200  0.001018  0.561823  0.126016
    H   H2   0.026806  0.001015  0.438188  0.126044
    C   C1   0.994409  0.140472  0.675192  -0.436397
    C   C2   0.005631  0.861591  0.324800  -0.386136
    C   C3   0.005597  0.140471  0.324820  -0.436532
    C   C4   0.994374  0.861593  0.675211  -0.386180
    C   C5   0.003656  0.142018  0.766188  0.667983
    C   C6   0.996381  0.860071  0.233807  0.658940
    C   C7   0.996350  0.142017  0.233824  0.668135
    C   C8   0.003625  0.860073  0.766204  0.658874
    C   C9   0.004287  0.001054  0.813197  -0.843455
    C   C10  0.995719  0.001053  0.186815  -0.843594
    C   C11  0.984852  0.001028  0.631759  0.095881
    C   C12  0.015154  0.001026  0.368253  0.095916
    N   N1   0.001724  0.865223  0.956244  -0.306274
    N   N2   0.998282  0.136912  0.043768  -0.310303
    N   N3   0.998281  0.865223  0.043767  -0.306201
    N   N4   0.001725  0.136912  0.956243  -0.310322
    C   C13  0.996132  0.001066  0.088886  0.885659
    C   C14  0.003874  0.001066  0.911125  0.885650
    O   O1   0.063636  0.670253  0.594830  -0.657352
    O   O2   0.936354  0.331909  0.405163  -0.755094
    O   O3   0.936369  0.670251  0.405181  -0.657304
    O   O4   0.063652  0.331911  0.594850  -0.755080
    O   O5   0.932181  0.664826  0.589282  -0.618550
    O   O6   0.067788  0.337065  0.410866  -0.650099
    O   O7   0.067825  0.664825  0.410729  -0.618554
    O   O8   0.932218  0.337067  0.589146  -0.650053
    C   C15  0.996832  0.719397  0.621383  0.739075
    C   C16  0.003150  0.282654  0.378663  0.867213
    C   C17  0.003174  0.719395  0.378628  0.738938
    C   C18  0.996856  0.282656  0.621349  0.867107
    Zn  Zn1  0.914995  0.501066  0.494663  1.039592
    Zn  Zn2  0.085011  0.501067  0.505348  1.039507
    C   C19  0.779268  0.495291  0.568378  -0.264755
    C   C20  0.220738  0.495292  0.431633  -0.264782
    N   N5   0.814999  0.501069  0.490244  -0.007369
    N   N6   0.185006  0.501070  0.509767  -0.007273
    C   C21  0.774516  0.509335  0.413730  0.242441
    C   C22  0.225489  0.509335  0.586282  0.242494
    C   C23  0.658117  0.503954  0.494496  0.037287
    C   C24  0.341889  0.503954  0.505516  0.037677
    C   C25  0.700914  0.496254  0.571419  0.196936
    C   C26  0.299092  0.496254  0.428593  0.196763
    C   C27  0.665707  0.487977  0.651646  -0.220433
    C   C28  0.334298  0.487978  0.348366  -0.220373
    C   C29  0.695510  0.510890  0.415022  -0.027974
    C   C30  0.304496  0.510890  0.584990  -0.028216
    H   H3   0.699155  0.478977  0.712319  0.155370
    H   H4   0.300851  0.478978  0.287693  0.155355
    C   C31  0.463297  0.508641  0.581380  0.066315
    C   C32  0.536709  0.508642  0.418632  0.065936
    C   C33  0.457122  0.501684  0.421368  -0.004174
    C   C34  0.542884  0.501683  0.578643  -0.004518
    C   C35  0.421039  0.504816  0.502758  0.044023
    C   C36  0.578967  0.504816  0.497253  0.044533
    C   C37  0.424531  0.520512  0.661076  -0.195915
    C   C38  0.575475  0.520512  0.338936  -0.195771
    C   C39  0.346240  0.521042  0.662624  -0.121763
    C   C40  0.653765  0.521042  0.337388  -0.121880
    C   C41  0.587648  0.489926  0.655616  -0.144609
    C   C42  0.412358  0.489927  0.344395  -0.144679
    H   H5   0.318475  0.530225  0.725816  0.096048
    H   H6   0.681531  0.530226  0.274196  0.096058
    H   H7   0.452445  0.533978  0.724490  0.145061
    H   H8   0.547561  0.533979  0.275522  0.145030
    H   H9   0.564836  0.477499  0.720801  0.121536
    H   H10  0.435170  0.477500  0.279210  0.121546
    H   H11  0.812307  0.490156  0.629436  0.200934
    H   H12  0.187699  0.490157  0.370575  0.200987
    O   O9   0.010498  0.282825  0.808672  -0.535297
    H   H13  0.066004  0.303638  0.810670  0.335797
    O   O10  0.989559  0.719272  0.191311  -0.514156
    H   H14  0.934056  0.698423  0.189313  0.314729
    O   O11  0.989508  0.282824  0.191340  -0.535348
    H   H15  0.934002  0.303636  0.189341  0.335798
    O   O12  0.010447  0.719273  0.808700  -0.514172
    H   H16  0.065950  0.698425  0.810698  0.314748
    O   O13  0.811724  0.515990  0.334948  -0.360235
    H   H17  0.811260  0.406711  0.312928  0.323737
    O   O14  0.188282  0.515993  0.665064  -0.360225
    H   H18  0.188745  0.406714  0.687084  0.323728
