# Generated by REPEAT Assigner based on pymatgen
data_DB0-m29_o90_o148_f0_pts.sym.108
_audit_creation_date              2022-05-24
_audit_creation_method            REPEAT_Assigner
_cell_length_a                    9.345113
_cell_length_b                    17.194882
_cell_length_c                    15.123576
_cell_angle_alpha                 106.121462
_cell_angle_beta                  87.390579
_cell_angle_gamma                 76.982733
_cell_volume                      2259.405314
_symmetry_space_group_name_H-M    P1
_symmetry_Int_Tables_number       1
loop_
    _symmetry_equiv_pos_site_id
    _symmetry_equiv_pos_as_xyz
    1  x,y,z
loop_
    _atom_site_type_symbol
    _atom_site_label
    _atom_site_fract_x
    _atom_site_fract_y
    _atom_site_fract_z
    _atom_type_partial_charge
    C   C1   0.951198  0.023884  0.778516  -0.246294
    C   C2   0.835068  0.006886  0.824148  0.099880
    C   C3   0.848045  0.996271  0.910824  -0.199422
    C   C4   0.080594  0.028598  0.819321  -0.098683
    C   C5   0.090397  0.020544  0.908415  0.031433
    C   C6   0.973612  0.004663  0.955238  0.169758
    C   C7   0.987879  0.995539  0.044420  -0.127025
    C   C8   0.873755  0.984758  0.099242  -0.080364
    C   C9   0.895650  0.973185  0.185067  -0.101920
    C   C10  0.215557  0.029384  0.952008  0.151758
    N   N1   0.228967  0.016424  0.034842  -0.388317
    C   C11  0.120557  0.998816  0.080994  0.380746
    C   C12  0.143283  0.984334  0.165480  -0.104993
    C   C13  0.031999  0.969756  0.216081  -0.112723
    H   H1   0.304990  0.047369  0.922063  0.125362
    H   H2   0.049564  0.960882  0.283048  0.201657
    H   H3   0.756779  0.980395  0.941132  0.116982
    H   H4   0.764592  0.987689  0.078971  0.165435
    O   O1   0.639876  0.976489  0.220441  -0.627760
    C   C14  0.773340  0.968179  0.245685  0.718945
    O   O2   0.658867  0.809078  0.249479  -0.556351
    O   O3   0.794933  0.960131  0.328164  -0.585576
    O   O4   0.548205  0.891485  0.391093  -0.552069
    C   C15  0.631031  0.819871  0.338490  0.564204
    Fe  Fe1  0.500272  0.974078  0.321396  1.512288
    O   O5   0.322397  0.945262  0.264072  -0.645844
    O   O6   0.357905  0.039678  0.191321  -0.437031
    C   C16  0.282651  0.987386  0.205060  0.671642
    O   O7   0.481750  0.086969  0.412002  -0.631015
    O   O8   0.236432  0.095917  0.402123  -0.566111
    C   C17  0.342645  0.127146  0.439610  0.634451
    O   O9   0.519278  0.879272  0.571731  -0.670795
    O   O10  0.753447  0.896002  0.562738  -0.593686
    C   C18  0.659535  0.849793  0.538390  0.784810
    O   O11  0.647524  0.034304  0.723039  -0.593606
    O   O12  0.636354  0.937624  0.797173  -0.496280
    C   C19  0.702270  0.992262  0.779372  0.595675
    O   O13  0.187559  0.089431  0.714615  -0.544220
    O   O14  0.425988  0.074130  0.587351  -0.616952
    C   C20  0.414715  0.152490  0.634847  0.710488
    O   O15  0.340316  0.987375  0.758088  -0.578751
    C   C21  0.208105  0.037163  0.764262  0.602400
    O   O16  0.440364  0.170016  0.721844  -0.551070
    Fe  Fe2  0.480869  0.994810  0.660526  1.482962
    C   C22  0.305872  0.209088  0.508759  0.031364
    C   C23  0.222665  0.275211  0.483832  0.016847
    H   H5   0.186905  0.263328  0.415467  0.062538
    C   C24  0.189484  0.355338  0.543780  -0.417504
    C   C25  0.241665  0.368976  0.629258  0.113030
    H   H6   0.217690  0.430963  0.677744  0.040937
    C   C26  0.319782  0.302806  0.656044  -0.161025
    H   H7   0.353108  0.315597  0.725029  0.128552
    C   C27  0.350395  0.221853  0.597300  -0.016467
    N   N2   0.086882  0.504293  0.568339  -0.350871
    N   N3   0.003730  0.566945  0.545040  -0.189676
    C   C28  0.928313  0.552083  0.470902  0.810641
    N   N4   0.942495  0.472710  0.418882  -0.326579
    N   N5   0.026353  0.410000  0.441810  -0.242717
    C   C29  0.098937  0.425001  0.517139  0.829176
    C   C30  0.820241  0.608196  0.349766  0.044637
    H   H8   0.864914  0.547541  0.300045  0.083118
    C   C31  0.749882  0.672737  0.317990  -0.159599
    H   H9   0.739498  0.660063  0.244801  0.147589
    C   C32  0.695866  0.752295  0.377880  0.065033
    C   C33  0.711083  0.766279  0.471897  -0.076072
    C   C34  0.780881  0.700902  0.504052  0.168168
    C   C35  0.839161  0.621553  0.442348  -0.427928
    C   C36  0.784291  0.716068  0.604093  0.007759
    C   C37  0.725016  0.673214  0.654488  0.003775
    C   C38  0.756918  0.703099  0.742245  -0.206462
    C   C39  0.833612  0.761917  0.739255  0.066351
    O   O17  0.850531  0.770311  0.655197  -0.116387
    H   H10  0.666523  0.625321  0.629471  0.084107
    H   H11  0.728704  0.684219  0.801903  0.152818
    H   H12  0.876172  0.797493  0.798310  0.119751
    C   C40  0.947553  0.024517  0.682032  0.693097
    C   C41  0.879113  0.092430  0.655177  -0.182885
    C   C42  0.912187  0.068988  0.561767  -0.144970
    C   C43  0.999935  0.988891  0.538330  0.204118
    O   O18  0.023142  0.961613  0.611490  -0.282724
    H   H13  0.814636  0.152274  0.699188  0.140406
    H   H14  0.878273  0.105985  0.515603  0.143694
    H   H15  0.046657  0.952086  0.468518  0.130342
