# Generated by REPEAT Assigner based on pymatgen
data_DB0-m2_o11_o29_f0_pcu.sym.3
_audit_creation_date              2022-05-24
_audit_creation_method            REPEAT_Assigner
_cell_length_a                    27.541577
_cell_length_b                    11.073027
_cell_length_c                    9.582586
_cell_angle_alpha                 90.020520
_cell_angle_beta                  90.015552
_cell_angle_gamma                 89.993654
_cell_volume                      2922.387576
_symmetry_space_group_name_H-M    P1
_symmetry_Int_Tables_number       1
loop_
    _symmetry_equiv_pos_site_id
    _symmetry_equiv_pos_as_xyz
    1  x,y,z
loop_
    _atom_site_type_symbol
    _atom_site_label
    _atom_site_fract_x
    _atom_site_fract_y
    _atom_site_fract_z
    _atom_type_partial_charge
    O   O1   0.500133  0.322115  0.622842  -0.688605
    O   O2   0.503404  0.316892  0.383647  -0.602351
    C   C1   0.502270  0.262180  0.503808  0.930739
    O   O3   0.428409  0.486965  0.618756  -0.512854
    O   O4   0.427620  0.486394  0.378648  -0.551803
    C   C2   0.405190  0.483173  0.499225  0.614462
    Cu  Cu1  0.498971  0.498593  0.634452  0.801936
    Cu  Cu2  0.498051  0.490675  0.355679  0.903007
    O   O5   0.494147  0.672834  0.606710  -0.579880
    O   O6   0.496251  0.666783  0.367114  -0.581266
    O   O7   0.569371  0.500896  0.610545  -0.506025
    O   O8   0.568552  0.504029  0.371658  -0.564766
    C   C3   0.494666  0.726550  0.485402  0.837771
    C   C4   0.591803  0.504794  0.490615  0.571315
    C   C5   0.174475  0.379542  0.529424  0.405272
    O   O9   0.198772  0.274889  0.542394  -0.497363
    N   N1   0.199343  0.483860  0.518918  -0.110130
    C   C6   0.175644  0.589861  0.508166  0.414012
    C   C7   0.277961  0.540179  0.615125  -0.219886
    C   C8   0.327964  0.538071  0.609632  -0.063884
    C   C9   0.324644  0.419758  0.400563  0.357133
    C   C10  0.274520  0.420731  0.408471  -0.343099
    C   C11  0.251104  0.481580  0.514430  0.254197
    C   C12  0.099298  0.487084  0.516462  0.113340
    C   C13  0.124241  0.379989  0.529277  -0.106662
    C   C14  0.098880  0.273494  0.539181  -0.052826
    C   C15  0.125398  0.592644  0.505799  -0.118118
    C   C16  0.351793  0.479854  0.501788  -0.200199
    H   H1   0.253120  0.375272  0.329814  0.175006
    H   H2   0.117409  0.187667  0.545554  0.130614
    C   C17  0.645055  0.506903  0.490486  0.012891
    C   C18  0.972350  0.385447  0.539158  0.054683
    C   C19  0.973794  0.595599  0.477744  0.052907
    C   C20  0.947874  0.490779  0.506401  -0.016833
    C   C21  0.945500  0.285854  0.581149  -0.305150
    C   C22  0.895430  0.286359  0.581556  0.317270
    C   C23  0.870491  0.389825  0.538619  -0.312031
    C   C24  0.897266  0.491440  0.502337  0.154654
    C   C25  0.873030  0.594749  0.461621  -0.128148
    C   C26  0.822997  0.596808  0.456515  0.478529
    N   N2   0.797384  0.498688  0.492780  -0.220353
    C   C27  0.819674  0.396234  0.532917  0.526780
    C   C28  0.720179  0.489348  0.614565  -0.136616
    C   C29  0.670180  0.491699  0.614237  -0.141160
    C   C30  0.670603  0.521766  0.367403  -0.103167
    C   C31  0.720733  0.520885  0.368332  -0.164811
    C   C32  0.745639  0.503458  0.491751  0.235385
    O   O10  0.791658  0.300755  0.563757  -0.500393
    C   C33  0.023121  0.382055  0.531890  0.086411
    C   C34  0.048818  0.488526  0.513629  -0.003059
    C   C35  0.024385  0.596342  0.491960  0.065329
    C   C36  0.049038  0.274184  0.540400  -0.203305
    H   H3   0.651207  0.479697  0.711926  0.129366
    H   H4   0.739408  0.476744  0.711855  0.128242
    H   H5   0.962829  0.206257  0.621119  0.151838
    H   H6   0.032085  0.186715  0.542242  0.137831
    O   O11  0.201095  0.692771  0.495143  -0.496848
    C   C37  0.101153  0.700562  0.492921  -0.039266
    H   H7   0.348347  0.585168  0.689205  0.125115
    H   H8   0.259937  0.587097  0.699428  0.144031
    H   H9   0.120561  0.785223  0.487587  0.126030
    C   C38  0.948443  0.697214  0.433644  -0.178114
    C   C39  0.898801  0.696307  0.425446  -0.053002
    O   O12  0.799491  0.698038  0.418848  -0.520395
    C   C40  0.051352  0.702681  0.485803  -0.204891
    H   H10  0.965756  0.778879  0.399012  0.124292
    H   H11  0.651807  0.533995  0.269417  0.118468
    H   H12  0.880707  0.777342  0.390295  0.123814
    H   H13  0.740410  0.531413  0.271490  0.137407
    H   H14  0.035211  0.790963  0.480308  0.138041
    C   C41  0.511393  0.929589  0.389626  0.300670
    C   C42  0.490280  0.858914  0.484984  -0.560693
    H   H15  0.468789  0.900138  0.566874  0.188465
    C   C43  0.501514  0.060313  0.387141  0.314217
    C   C44  0.506199  0.128710  0.503685  -0.595078
    H   H16  0.515906  0.085197  0.601073  0.196545
    C   C45  0.461578  0.497757  0.918949  -0.059579
    N   N3   0.500324  0.505783  0.843274  0.003752
    H   H17  0.427415  0.472318  0.871786  0.107856
    C   C46  0.461740  0.520128  0.071499  0.184690
    N   N4   0.496803  0.481120  0.147233  -0.385810
    H   H18  0.431246  0.566013  0.119319  0.105699
    H   H19  0.519250  0.419832  0.098934  0.281886
    C   C47  0.347964  0.348873  0.286056  -0.442056
    H   H20  0.320263  0.295797  0.228787  0.107378
    H   H21  0.365639  0.410526  0.210488  0.109610
    H   H22  0.374798  0.284894  0.330515  0.146982
    C   C48  0.544425  0.878729  0.280224  -0.466569
    H   H23  0.563573  0.953369  0.226237  0.106726
    H   H24  0.572260  0.820091  0.329333  0.153500
    H   H25  0.523285  0.827463  0.201551  0.154206
    C   C49  0.485436  0.109959  0.248987  -0.418597
    H   H26  0.476979  0.034492  0.176955  0.094404
    H   H27  0.451611  0.163167  0.261642  0.127250
    H   H28  0.514701  0.164753  0.200945  0.142445
    C   C50  0.538782  0.582138  0.897117  -0.228646
    H   H29  0.557089  0.629373  0.810303  0.088801
    H   H30  0.524467  0.655361  0.964436  0.105159
    H   H31  0.566515  0.527294  0.951946  0.101658
    C   C51  0.870804  0.173219  0.630643  -0.346989
    H   H32  0.897591  0.104189  0.663370  0.063990
    H   H33  0.847725  0.193009  0.722716  0.127302
    H   H34  0.849222  0.132961  0.544669  0.139970
