# Generated by REPEAT Assigner based on pymatgen
data_DB0-m2_o11_o14_f0_pcu.sym.44
_audit_creation_date              2022-05-24
_audit_creation_method            REPEAT_Assigner
_cell_length_a                    10.854699
_cell_length_b                    11.053799
_cell_length_c                    9.535527
_cell_angle_alpha                 90.020583
_cell_angle_beta                  90.005088
_cell_angle_gamma                 89.999007
_cell_volume                      1144.126394
_symmetry_space_group_name_H-M    P1
_symmetry_Int_Tables_number       1
loop_
    _symmetry_equiv_pos_site_id
    _symmetry_equiv_pos_as_xyz
    1  x,y,z
loop_
    _atom_site_type_symbol
    _atom_site_label
    _atom_site_fract_x
    _atom_site_fract_y
    _atom_site_fract_z
    _atom_type_partial_charge
    O   O1   0.504779  0.320555  0.624359  -0.613427
    O   O2   0.503100  0.315023  0.382658  -0.591615
    C   C1   0.501512  0.261191  0.505047  0.719731
    O   O3   0.316992  0.486855  0.618237  -0.565628
    O   O4   0.317695  0.492381  0.376637  -0.543425
    C   C2   0.259802  0.486367  0.497263  0.616613
    Cu  Cu1  0.495743  0.496734  0.637979  0.952796
    Cu  Cu2  0.496895  0.490122  0.357566  0.811206
    O   O5   0.494819  0.672041  0.611870  -0.620732
    O   O6   0.498593  0.666242  0.372207  -0.487388
    O   O7   0.674932  0.496465  0.618711  -0.601598
    O   O8   0.675742  0.496689  0.378059  -0.558259
    C   C3   0.492588  0.726419  0.489833  0.709358
    C   C4   0.733398  0.496340  0.498381  0.789509
    H   H1   0.118412  0.640054  0.372209  0.153776
    C   C5   0.118834  0.297711  0.631451  -0.271247
    H   H2   0.217652  0.288399  0.630551  0.171245
    C   C6   0.053022  0.207548  0.696518  -0.079920
    H   H3   0.100766  0.133359  0.746505  0.098525
    C   C7   0.926785  0.209948  0.694691  -0.023020
    H   H4   0.875122  0.137571  0.743186  0.094183
    C   C8   0.865730  0.302830  0.628572  -0.347761
    H   H5   0.766775  0.296558  0.625704  0.197190
    C   C9   0.930626  0.397049  0.565826  0.309270
    C   C10  0.058671  0.393697  0.566662  0.158725
    C   C11  0.124836  0.483071  0.497126  -0.113858
    C   C12  0.063662  0.573010  0.426016  -0.169185
    C   C13  0.936469  0.579466  0.427108  -0.003026
    C   C14  0.868996  0.491407  0.498016  -0.327346
    C   C15  0.496424  0.933002  0.376173  0.040530
    C   C16  0.486929  0.860070  0.489465  -0.274932
    H   H6   0.469651  0.899927  0.591073  0.160812
    C   C17  0.484064  0.066040  0.390528  -0.077547
    C   C18  0.507983  0.128610  0.507754  -0.307266
    H   H7   0.455657  0.116380  0.298830  0.137892
    H   H8   0.536753  0.085162  0.603982  0.187293
    C   C19  0.416623  0.438939  0.918412  0.019185
    N   N1   0.495167  0.501269  0.847773  -0.308001
    H   H9   0.354710  0.377863  0.864207  0.131519
    H   H10  0.537110  0.571649  0.899618  0.254725
    C   C20  0.405474  0.451426  0.072584  0.139186
    N   N2   0.497576  0.485190  0.147763  -0.263037
    H   H11  0.319170  0.427195  0.122028  0.087164
    H   H12  0.581631  0.485818  0.098214  0.241257
    C   C21  0.874106  0.683632  0.355018  0.655589
    F   F1   0.816406  0.643377  0.234549  -0.209768
    F   F2   0.959001  0.771060  0.317719  -0.245031
    F   F3   0.788882  0.736341  0.443842  -0.213872
    C   C22  0.516004  0.885330  0.229810  0.639629
    F   F4   0.529208  0.979729  0.136042  -0.231011
    F   F5   0.415754  0.816765  0.188637  -0.236711
    F   F6   0.622540  0.817090  0.224509  -0.192297
