# Generated by REPEAT Assigner based on pymatgen
data_DB0-m29_o84_o102_f0_pts.sym.51
_audit_creation_date              2022-05-24
_audit_creation_method            REPEAT_Assigner
_cell_length_a                    13.229002
_cell_length_b                    14.226125
_cell_length_c                    11.439982
_cell_angle_alpha                 94.011463
_cell_angle_beta                  101.672919
_cell_angle_gamma                 111.161955
_cell_volume                      1942.010917
_symmetry_space_group_name_H-M    P1
_symmetry_Int_Tables_number       1
loop_
    _symmetry_equiv_pos_site_id
    _symmetry_equiv_pos_as_xyz
    1  x,y,z
loop_
    _atom_site_type_symbol
    _atom_site_label
    _atom_site_fract_x
    _atom_site_fract_y
    _atom_site_fract_z
    _atom_type_partial_charge
    C   C1   0.200965  0.989344  0.861396  -0.053193
    C   C2   0.095715  0.973413  0.790131  -0.141397
    C   C3   0.011917  0.978593  0.843763  0.177851
    C   C4   0.907368  0.964426  0.774080  -0.238220
    C   C5   0.825704  0.971767  0.826887  0.034948
    C   C6   0.217601  0.000085  0.986814  0.069057
    C   C7   0.133132  0.005104  0.039788  0.018376
    C   C8   0.031239  0.996103  0.968213  -0.003195
    C   C9   0.947753  0.002873  0.021397  0.021972
    C   C10  0.845059  0.992276  0.951116  -0.012585
    C   C11  0.761226  0.998030  0.004770  0.013261
    C   C12  0.150802  0.022962  0.164603  -0.036592
    C   C13  0.068014  0.029524  0.216391  -0.220740
    C   C14  0.966409  0.019070  0.145264  0.208270
    C   C15  0.883588  0.023514  0.199165  -0.209691
    C   C16  0.779790  0.011823  0.130428  0.008121
    H   H1   0.885030  0.947289  0.676873  0.148390
    H   H2   0.746843  0.959609  0.766761  0.068207
    H   H3   0.228761  0.033184  0.225435  0.098351
    H   H4   0.083649  0.042852  0.313764  0.168728
    H   H5   0.900848  0.035123  0.296624  0.157356
    O   O1   0.592961  0.003283  0.134152  -0.478532
    C   C17  0.692564  0.011908  0.193871  0.558415
    O   O2   0.516407  0.806171  0.220385  -0.508012
    O   O3   0.713100  0.016338  0.311700  -0.522977
    O   O4   0.467093  0.893973  0.355846  -0.479831
    C   C18  0.491408  0.815401  0.324743  0.536722
    Fe  Fe1  0.488771  0.991923  0.239435  1.399513
    O   O5   0.334399  0.942539  0.130696  -0.554373
    O   O6   0.412998  0.097775  0.074843  -0.498050
    C   C19  0.325966  0.012701  0.064462  0.547789
    O   O7   0.556169  0.132417  0.336484  -0.546811
    O   O8   0.398905  0.061785  0.402205  -0.462478
    C   C20  0.491315  0.140056  0.406579  0.572290
    O   O9   0.430526  0.852695  0.654511  -0.498509
    O   O10  0.585270  0.932017  0.587279  -0.485283
    C   C21  0.499303  0.848984  0.587608  0.531578
    O   O11  0.638867  0.051476  0.862975  -0.568879
    O   O12  0.569330  0.892801  0.912525  -0.451801
    C   C22  0.651892  0.981771  0.927243  0.597213
    O   O13  0.296757  0.039563  0.702852  -0.485927
    O   O14  0.502811  0.089782  0.632265  -0.431534
    C   C23  0.513801  0.181961  0.674503  0.494169
    O   O15  0.376754  0.973164  0.850741  -0.469701
    C   C24  0.294315  0.000111  0.802978  0.563217
    O   O16  0.518646  0.204454  0.789278  -0.485581
    Fe  Fe2  0.486023  0.992975  0.750005  1.374309
    C   C25  0.493132  0.646309  0.354849  -0.258960
    C   C26  0.490544  0.736999  0.404134  0.057680
    C   C27  0.489124  0.751001  0.525639  0.025801
    C   C28  0.493467  0.675686  0.595166  -0.160505
    C   C29  0.500367  0.586991  0.545642  0.088828
    C   C30  0.497844  0.570966  0.424509  0.229785
    C   C31  0.509249  0.513838  0.616704  -0.227935
    C   C32  0.513804  0.424840  0.567478  0.094893
    C   C33  0.509538  0.407193  0.446569  0.275839
    C   C34  0.501394  0.480282  0.374371  -0.262277
    C   C35  0.519096  0.352337  0.640201  -0.166902
    C   C36  0.514469  0.258392  0.592738  0.007492
    C   C37  0.508976  0.239859  0.469693  0.103875
    C   C38  0.509402  0.314783  0.398947  -0.346421
    H   H6   0.493333  0.636463  0.260707  0.148050
    H   H7   0.510994  0.523114  0.711562  0.169292
    H   H8   0.523213  0.368732  0.734888  0.156663
    H   H9   0.502761  0.295700  0.304022  0.174373
    C   C39  0.386461  0.425806  0.165254  0.477267
    H   H10  0.312810  0.414004  0.198923  0.038723
    N   N1   0.377126  0.408091  0.045818  -0.711957
    C   C40  0.468484  0.422876  0.003149  0.789528
    H   H11  0.459678  0.408599  0.906995  -0.023868
    N   N2   0.570597  0.455525  0.079398  -0.715751
    C   C41  0.582912  0.473967  0.199421  0.538250
    H   H12  0.665112  0.500470  0.260116  0.025237
    C   C42  0.490261  0.459355  0.244376  -0.177899
    C   C43  0.071050  0.945554  0.658042  0.439216
    H   H13  0.031867  0.984880  0.597821  0.012740
    O   O17  0.092939  0.876448  0.614992  -0.399963
    C   C44  0.500318  0.693990  0.724777  0.504854
    H   H14  0.578315  0.708398  0.789864  -0.053328
    O   O18  0.416153  0.682800  0.759822  -0.376827
