# Generated by REPEAT Assigner based on pymatgen
data_DB0-m3_o18_o23_f0_pcu.sym.78_sqe
_audit_creation_date              2022-05-24
_audit_creation_method            REPEAT_Assigner
_cell_length_a                    14.848362
_cell_length_b                    16.029980
_cell_length_c                    15.958285
_cell_angle_alpha                 89.973640
_cell_angle_beta                  103.587330
_cell_angle_gamma                 86.041856
_cell_volume                      3682.717668
_symmetry_space_group_name_H-M    P1
_symmetry_Int_Tables_number       1
loop_
    _symmetry_equiv_pos_site_id
    _symmetry_equiv_pos_as_xyz
    1  x,y,z
loop_
    _atom_site_type_symbol
    _atom_site_label
    _atom_site_fract_x
    _atom_site_fract_y
    _atom_site_fract_z
    _atom_type_partial_charge
    O   O1   0.380162  0.604330  0.470832  -0.646959
    O   O2   0.533282  0.636763  0.504194  -0.636053
    C   C1   0.443918  0.658813  0.484933  0.687725
    O   O3   0.421530  0.482350  0.604104  -0.728437
    O   O4   0.574891  0.514744  0.637447  -0.727568
    C   C2   0.498320  0.498344  0.659722  0.946529
    Zn  Zn1  0.396647  0.477751  0.473873  1.055172
    Zn  Zn2  0.598659  0.520662  0.517732  1.064433
    O   O5   0.462022  0.361650  0.487379  -0.648065
    O   O6   0.615146  0.394083  0.520737  -0.653811
    O   O7   0.420417  0.483645  0.354159  -0.734098
    O   O8   0.573791  0.516046  0.387503  -0.750367
    C   C3   0.551387  0.339601  0.506610  0.734440
    C   C4   0.496986  0.500069  0.331897  0.968426
    C   C5   0.404649  0.534213  0.927476  -0.101378
    C   C6   0.574432  0.549657  0.965391  -0.110088
    C   C7   0.571934  0.553140  0.059799  -0.114762
    H   H1   0.394876  0.601933  0.041145  0.017298
    H   H2   0.391712  0.598848  0.900450  0.012949
    H   H3   0.642926  0.521376  0.959526  0.015330
    H   H4   0.564271  0.614010  0.937648  0.012722
    H   H5   0.555775  0.618650  0.076747  0.015802
    H   H6   0.640833  0.531106  0.100420  0.013101
    C   C8   0.496985  0.499940  0.242019  -0.202841
    C   C9   0.497984  0.497476  0.916685  0.666397
    C   C10  0.404915  0.535970  0.022400  -0.109116
    C   C11  0.497773  0.498499  0.075047  0.663841
    C   C12  0.521721  0.409599  0.048233  -0.059596
    C   C13  0.514241  0.408320  0.951572  -0.196276
    C   C14  0.497267  0.499383  0.166587  -0.382781
    C   C15  0.498345  0.497709  0.825125  -0.339377
    C   C16  0.498465  0.497976  0.749657  -0.245430
    H   H7   0.458517  0.370383  0.916299  0.014028
    H   H8   0.580823  0.380717  0.940256  0.044257
    H   H9   0.348781  0.495856  0.892687  -0.000679
    H   H10  0.346544  0.502876  0.035248  0.003649
    H   H11  0.596431  0.396121  0.076782  0.005603
    C   C17  0.413684  0.748317  0.478492  -0.079023
    C   C18  0.581613  0.250101  0.512425  -0.124488
    C   C19  0.292281  0.856462  0.452541  -0.279717
    C   C20  0.320353  0.772942  0.458795  -0.052452
    C   C21  0.478439  0.808133  0.491883  -0.124509
    C   C22  0.450903  0.893617  0.485510  -0.003792
    C   C23  0.356598  0.916080  0.465669  0.280398
    C   C24  0.514139  0.956980  0.498250  0.060555
    C   C25  0.481139  0.041440  0.491161  0.062448
    C   C26  0.385485  0.060432  0.470897  -0.167494
    C   C27  0.324883  0.998587  0.458499  -0.280769
    C   C28  0.609783  0.937988  0.517773  -0.172750
    C   C29  0.670382  0.999834  0.530019  -0.277135
    C   C30  0.638676  0.082341  0.523589  0.279244
    C   C31  0.544379  0.104803  0.504301  -0.008418
    C   C32  0.702994  0.141960  0.536803  -0.299972
    C   C33  0.674931  0.225479  0.531279  -0.019799
    C   C34  0.516857  0.190286  0.499031  -0.076955
    H   H12  0.251097  0.015754  0.442837  0.133077
    H   H13  0.445405  0.213290  0.484892  0.072772
    H   H14  0.726985  0.270696  0.541928  0.083007
    H   H15  0.744159  0.982667  0.545043  0.134567
    H   H16  0.218834  0.875137  0.437060  0.129634
    H   H17  0.268297  0.727727  0.448096  0.094530
    H   H18  0.549909  0.785126  0.507238  0.093586
    H   H19  0.353228  0.122798  0.463484  0.141370
    H   H20  0.642030  0.875622  0.524250  0.143483
    H   H21  0.776433  0.123286  0.551735  0.134716
    N   N1   0.731385  0.549041  0.546467  -0.017010
    N   N2   0.263933  0.449338  0.445087  -0.006111
    C   C35  0.848535  0.629177  0.624095  -0.252205
    C   C36  0.757999  0.608535  0.604328  -0.025234
    C   C37  0.791946  0.508683  0.506828  -0.109935
    C   C38  0.885055  0.527621  0.524666  -0.001913
    C   C39  0.911817  0.588945  0.584376  0.290127
    C   C40  0.951644  0.487782  0.485063  0.101619
    C   C41  0.043655  0.510606  0.506446  -0.006590
    C   C42  0.066837  0.572800  0.567013  -0.090280
    C   C43  0.001692  0.610968  0.605051  -0.286036
    C   C44  0.928456  0.425608  0.424472  -0.205494
    C   C45  0.993605  0.387447  0.386429  -0.235666
    C   C46  0.083489  0.409455  0.407127  0.251836
    C   C47  0.110250  0.470761  0.466856  0.071647
    C   C48  0.146779  0.369232  0.367407  -0.244624
    C   C49  0.237320  0.389868  0.387193  -0.046197
    C   C50  0.203366  0.489679  0.484728  -0.138257
    H   H22  0.022039  0.659036  0.651795  0.154518
    H   H23  0.231140  0.536104  0.530087  0.168117
    H   H24  0.287138  0.358149  0.356304  0.159493
    H   H25  0.973254  0.339399  0.339662  0.150993
    H   H26  0.869586  0.677191  0.670727  0.141757
    H   H27  0.708182  0.640268  0.635204  0.142499
    H   H28  0.764178  0.462228  0.461501  0.156596
    H   H29  0.135124  0.594614  0.587518  0.126180
    H   H30  0.860156  0.403822  0.403937  0.190714
    H   H31  0.125729  0.321237  0.320752  0.138269
    C   C51  0.467928  0.343944  0.079718  0.152603
    C   C52  0.509582  0.291752  0.150388  0.026195
    Cl  Cl1  0.624422  0.299131  0.209905  -0.113507
    C   C53  0.459639  0.232244  0.177958  -0.100124
    C   C54  0.368767  0.223073  0.136459  -0.101610
    C   C55  0.327062  0.273729  0.066791  -0.129510
    C   C56  0.375961  0.333530  0.038623  -0.215879
    H   H32  0.492280  0.192575  0.233035  0.101686
    H   H33  0.330293  0.176242  0.158589  0.109019
    H   H34  0.255665  0.266575  0.033852  0.108217
    H   H35  0.340586  0.371306  0.983229  0.153960
