data_DB0-m3_o12_o29_f0_pcu.sym.16_repeat
_audit_creation_date              2024-02-23
_audit_creation_method            'Materials Studio'
_symmetry_space_group_name_H-M    'P1'
_symmetry_Int_Tables_number       1
_symmetry_cell_setting            triclinic
loop_
_symmetry_equiv_pos_as_xyz
  x,y,z
_cell_length_a                    10.0059
_cell_length_b                    11.2529
_cell_length_c                    27.6650
_cell_angle_alpha                 89.9795
_cell_angle_beta                  80.7849
_cell_angle_gamma                 92.4457
loop_
_atom_site_label
_atom_site_type_symbol
_atom_site_fract_x
_atom_site_fract_y
_atom_site_fract_z
_atom_site_U_iso_or_equiv
_atom_site_adp_type
_atom_site_occupancy
O1     O     0.42526   0.69092   0.50428   0.00000  Uiso   1.00
O2     O     0.57460   0.30919   0.49571   0.00000  Uiso   1.00
O3     O     0.65462   0.65933   0.49046   0.00000  Uiso   1.00
O4     O     0.34523   0.34078   0.50953   0.00000  Uiso   1.00
C1     C     0.55229   0.72998   0.49657   0.00000  Uiso   1.00
C2     C     0.44757   0.27012   0.50342   0.00000  Uiso   1.00
O5     O     0.38769   0.51657   0.57878   0.00000  Uiso   1.00
O6     O     0.61216   0.48353   0.42121   0.00000  Uiso   1.00
O7     O     0.61678   0.48434   0.56501   0.00000  Uiso   1.00
O8     O     0.38307   0.51578   0.43499   0.00000  Uiso   1.00
C3     C     0.50264   0.50070   0.59450   0.00000  Uiso   1.00
C4     C     0.49721   0.49942   0.40549   0.00000  Uiso   1.00
Zn1    Zn    0.34876   0.52097   0.50914   0.00000  Uiso   1.00
Zn2    Zn    0.65110   0.47913   0.49085   0.00000  Uiso   1.00
C5     C     0.49385   0.60324   0.82405   0.00000  Uiso   1.00
C6     C     0.50337   0.39674   0.17615   0.00000  Uiso   1.00
O9     O     0.49008   0.70603   0.79966   0.00000  Uiso   1.00
O10    O     0.50545   0.29391   0.20068   0.00000  Uiso   1.00
N1     N     0.50160   0.50052   0.79926   0.00000  Uiso   1.00
N2     N     0.49776   0.49968   0.20078   0.00000  Uiso   1.00
C7     C     0.50636   0.39640   0.82269   0.00000  Uiso   1.00
C8     C     0.49471   0.60388   0.17723   0.00000  Uiso   1.00
C9     C     0.61658   0.46991   0.71609   0.00000  Uiso   1.00
C10    C     0.38330   0.53098   0.28395   0.00000  Uiso   1.00
C11    C     0.61726   0.47046   0.66618   0.00000  Uiso   1.00
C12    C     0.38272   0.53035   0.33384   0.00000  Uiso   1.00
C13    C     0.38912   0.53288   0.67928   0.00000  Uiso   1.00
C14    C     0.61039   0.46676   0.32070   0.00000  Uiso   1.00
C15    C     0.38936   0.53364   0.72909   0.00000  Uiso   1.00
C16    C     0.61002   0.46602   0.27090   0.00000  Uiso   1.00
C17    C     0.50272   0.50163   0.74766   0.00000  Uiso   1.00
C18    C     0.49684   0.49866   0.25236   0.00000  Uiso   1.00
C19    C     0.49786   0.49852   0.89921   0.00000  Uiso   1.00
C20    C     0.50112   0.50143   0.10086   0.00000  Uiso   1.00
C21    C     0.49296   0.60354   0.87404   0.00000  Uiso   1.00
C22    C     0.50380   0.39631   0.12618   0.00000  Uiso   1.00
C23    C     0.48646   0.70904   0.89888   0.00000  Uiso   1.00
C24    C     0.50668   0.29051   0.10159   0.00000  Uiso   1.00
C25    C     0.50221   0.39335   0.87328   0.00000  Uiso   1.00
C26    C     0.49885   0.60679   0.12663   0.00000  Uiso   1.00
C27    C     0.50318   0.50142   0.64750   0.00000  Uiso   1.00
C28    C     0.49661   0.49877   0.35250   0.00000  Uiso   1.00
H1     H     0.29876   0.55783   0.66571   0.00000  Uiso   1.00
H2     H     0.70058   0.44131   0.33426   0.00000  Uiso   1.00
H3     H     0.29953   0.55795   0.75362   0.00000  Uiso   1.00
H4     H     0.69956   0.44118   0.24635   0.00000  Uiso   1.00
H5     H     0.48112   0.79256   0.88021   0.00000  Uiso   1.00
H6     H     0.50864   0.20677   0.12048   0.00000  Uiso   1.00
C29    C     0.49706   0.60723   0.02540   0.00000  Uiso   1.00
C30    C     0.50287   0.39265   0.97460   0.00000  Uiso   1.00
C31    C     0.50354   0.39321   0.02536   0.00000  Uiso   1.00
C32    C     0.49392   0.60651   0.97481   0.00000  Uiso   1.00
C33    C     0.50087   0.50066   0.05036   0.00000  Uiso   1.00
C34    C     0.49798   0.49918   0.94971   0.00000  Uiso   1.00
C35    C     0.49834   0.71261   0.05186   0.00000  Uiso   1.00
C36    C     0.50555   0.28753   0.94786   0.00000  Uiso   1.00
C37    C     0.50178   0.71307   0.10129   0.00000  Uiso   1.00
C38    C     0.50185   0.28710   0.89844   0.00000  Uiso   1.00
O11    O     0.48869   0.70443   0.20347   0.00000  Uiso   1.00
O12    O     0.51416   0.29604   0.79632   0.00000  Uiso   1.00
C39    C     0.48633   0.71093   0.94835   0.00000  Uiso   1.00
C40    C     0.50653   0.28850   0.05213   0.00000  Uiso   1.00
H7     H     0.29261   0.55599   0.35785   0.00000  Uiso   1.00
H8     H     0.70760   0.44529   0.64219   0.00000  Uiso   1.00
H9     H     0.29400   0.55614   0.26968   0.00000  Uiso   1.00
H10    H     0.70605   0.44526   0.73037   0.00000  Uiso   1.00
H11    H     0.49824   0.79927   0.03581   0.00000  Uiso   1.00
H12    H     0.51041   0.20106   0.96354   0.00000  Uiso   1.00
H13    H     0.47892   0.79792   0.96408   0.00000  Uiso   1.00
H14    H     0.50832   0.20102   0.03679   0.00000  Uiso   1.00
H15    H     0.62199   0.09512   0.49250   0.00000  Uiso   1.00
H16    H     0.37787   0.90498   0.50750   0.00000  Uiso   1.00
C41    C     0.58222   0.85877   0.49475   0.00000  Uiso   1.00
C42    C     0.41763   0.14133   0.50525   0.00000  Uiso   1.00
C43    C     0.48330   0.93587   0.50096   0.00000  Uiso   1.00
C44    C     0.51656   0.06424   0.49903   0.00000  Uiso   1.00
H17    H     0.31276   0.10873   0.51170   0.00000  Uiso   1.00
H18    H     0.68710   0.89138   0.48829   0.00000  Uiso   1.00
H19    H     0.11669   0.42818   0.46896   0.00000  Uiso   1.00
H20    H     0.88317   0.57192   0.53104   0.00000  Uiso   1.00
N3     N     0.84974   0.45128   0.47850   0.00000  Uiso   1.00
N4     N     0.15012   0.54883   0.52149   0.00000  Uiso   1.00
C45    C     0.92673   0.50924   0.50386   0.00000  Uiso   1.00
C46    C     0.07312   0.49086   0.49614   0.00000  Uiso   1.00
H21    H     0.10279   0.60698   0.54665   0.00000  Uiso   1.00
H22    H     0.89706   0.39313   0.45334   0.00000  Uiso   1.00
O13    O     0.50551   0.82063   0.12437   0.00000  Uiso   1.00
C47    C     0.64091   0.86235   0.11461   0.00000  Uiso   1.00
H23    H     0.65994   0.91139   0.07922   0.00000  Uiso   1.00
H24    H     0.70918   0.78688   0.11303   0.00000  Uiso   1.00
C48    C     0.67038   0.94627   0.15477   0.00000  Uiso   1.00
H25    H     0.65977   0.89731   0.19004   0.00000  Uiso   1.00
H26    H     0.77538   0.98450   0.14547   0.00000  Uiso   1.00
H27    H     0.59821   0.01900   0.15820   0.00000  Uiso   1.00
O14    O     0.50026   0.17965   0.87521   0.00000  Uiso   1.00
C49    C     0.36588   0.13531   0.88545   0.00000  Uiso   1.00
H28    H     0.29564   0.20953   0.88841   0.00000  Uiso   1.00
H29    H     0.34996   0.08405   0.92030   0.00000  Uiso   1.00
C50    C     0.33599   0.05342   0.84469   0.00000  Uiso   1.00
H30    H     0.41076   0.98277   0.83955   0.00000  Uiso   1.00
H31    H     0.23251   0.01222   0.85454   0.00000  Uiso   1.00
H32    H     0.34214   0.10474   0.81016   0.00000  Uiso   1.00
