# Generated by REPEAT Assigner based on pymatgen
data_DB0-m3_o27_nab
_audit_creation_date              2022-05-24
_audit_creation_method            REPEAT_Assigner
_cell_length_a                    41.366944
_cell_length_b                    38.849831
_cell_length_c                    41.397459
_cell_angle_alpha                 73.203459
_cell_angle_beta                  93.439244
_cell_angle_gamma                 70.344719
_cell_volume                      59061.642918
_symmetry_space_group_name_H-M    P1
_symmetry_Int_Tables_number       1
loop_
    _symmetry_equiv_pos_site_id
    _symmetry_equiv_pos_as_xyz
    1  x,y,z
loop_
    _atom_site_type_symbol
    _atom_site_label
    _atom_site_fract_x
    _atom_site_fract_y
    _atom_site_fract_z
    _atom_type_partial_charge
    C   C1    0.959623  0.522911  0.420585  0.658571
    C   C2    0.728890  0.635075  0.773417  0.726927
    C   C3    0.516105  0.763534  0.144632  -0.242655
    C   C4    0.546044  0.766117  0.158133  0.108300
    C   C5    0.548725  0.771408  0.189584  -0.324377
    C   C6    0.522438  0.770703  0.208674  0.329735
    C   C7    0.493303  0.765494  0.195868  -0.668105
    C   C8    0.347365  0.208741  0.614813  -0.151240
    C   C9    0.349717  0.241651  0.592512  0.080556
    C   C10   0.381690  0.245561  0.591157  -0.520890
    C   C11   0.411364  0.215648  0.611232  0.161392
    C   C12   0.408814  0.183472  0.634167  -0.171677
    C   C13   0.676342  0.613319  0.664557  0.716780
    C   C14   0.376823  0.180157  0.636476  0.055903
    C   C15   0.390288  0.348930  0.537127  0.998427
    C   C16   0.384254  0.281926  0.570613  0.983436
    C   C17   0.367656  0.420654  0.513888  0.166509
    C   C18   0.370957  0.454684  0.495175  -0.195546
    C   C19   0.400173  0.453581  0.480378  0.096863
    C   C20   0.426601  0.418436  0.485588  -0.201745
    C   C21   0.423729  0.384596  0.504910  0.145098
    C   C22   0.393913  0.385399  0.518525  -0.559591
    C   C23   0.703972  0.686450  0.032912  -0.224443
    C   C24   0.759357  0.562666  0.728053  0.761448
    C   C25   0.721096  0.677191  0.007416  0.231008
    C   C26   0.720311  0.706038  0.978175  -0.597402
    C   C27   0.704511  0.744406  0.976134  0.232479
    C   C28   0.687974  0.753639  0.002296  -0.211070
    C   C29   0.686573  0.724556  0.030127  0.073670
    C   C30   0.745362  0.674456  0.892998  0.990834
    C   C31   0.732422  0.695326  0.948551  0.935197
    C   C32   0.748351  0.626104  0.864763  0.184600
    C   C33   0.743949  0.616694  0.835675  -0.227882
    C   C34   0.739540  0.643262  0.803794  0.068522
    C   C35   0.566861  0.783441  0.047509  0.656046
    C   C36   0.740952  0.678968  0.801202  -0.161400
    C   C37   0.744293  0.688926  0.830356  0.186651
    C   C38   0.747257  0.662763  0.862271  -0.567233
    C   C39   0.418326  0.981029  0.698985  -0.148324
    C   C40   0.440348  0.945669  0.698377  0.140100
    C   C41   0.475999  0.935597  0.705066  -0.578317
    C   C42   0.489414  0.961137  0.712459  0.128821
    C   C43   0.467387  0.995988  0.714064  -0.169198
    C   C44   0.431771  0.006111  0.707221  0.070611
    C   C45   0.543322  0.829927  0.703558  1.060696
    C   C46   0.575520  0.757619  0.140307  0.792243
    C   C47   0.499594  0.898167  0.704389  1.074753
    C   C48   0.563154  0.758472  0.717980  0.143125
    C   C49   0.588398  0.723620  0.719595  -0.154593
    C   C50   0.617973  0.723226  0.705596  0.069146
    C   C51   0.621724  0.757810  0.689516  -0.170503
    C   C52   0.597080  0.792253  0.688573  0.105448
    C   C53   0.567863  0.792857  0.703077  -0.560816
    C   C54   0.519614  0.791916  0.002376  -0.227513
    C   C55   0.488916  0.815426  0.979562  0.215719
    C   C56   0.472285  0.853234  0.978638  -0.626618
    C   C57   0.663609  0.732681  0.054688  0.759730
    C   C58   0.486547  0.867190  0.000604  0.194373
    C   C59   0.517506  0.844279  0.022363  -0.253037
    C   C60   0.534329  0.806699  0.023279  0.150046
    C   C61   0.393354  0.935493  0.901084  0.955224
    C   C62   0.441633  0.880153  0.952852  1.045989
    C   C63   0.365605  0.962827  0.839970  0.215738
    C   C64   0.355536  0.993445  0.809641  -0.206575
    C   C65   0.354695  0.029191  0.809815  0.071744
    C   C66   0.360181  0.035343  0.840408  -0.230331
    C   C67   0.368846  0.005327  0.870735  0.236835
    C   C68   0.672226  0.707762  0.151143  0.635704
    C   C69   0.373678  0.968407  0.870504  -0.605968
    C   C70   0.373940  0.150086  0.665604  0.723953
    C   C71   0.320828  0.163842  0.733626  0.761909
    C   C72   0.408305  0.042121  0.710583  0.687411
    C   C73   0.974353  0.481032  0.517649  0.701586
    C   C74   0.355435  0.057751  0.778433  0.750682
    C   C75   0.317419  0.509242  0.353038  -0.185076
    C   C76   0.286914  0.503366  0.346351  0.218352
    C   C77   0.255021  0.533275  0.340343  -0.593200
    C   C78   0.254086  0.569612  0.338889  0.216447
    C   C79   0.284401  0.575031  0.346655  -0.257613
    C   C80   0.316032  0.544678  0.354717  0.076396
    C   C81   0.164013  0.513339  0.353268  0.951941
    C   C82   0.222540  0.525834  0.340736  0.970191
    C   C83   0.133694  0.470670  0.382064  0.239003
    C   C84   0.056236  0.493899  0.425166  0.748351
    C   C85   0.107188  0.465876  0.399513  -0.214455
    C   C86   0.080626  0.497811  0.401512  0.076983
    C   C87   0.079203  0.534400  0.383763  -0.218523
    C   C88   0.105042  0.539262  0.365726  0.235669
    C   C89   0.133239  0.507467  0.365926  -0.614003
    C   C90   0.785476  0.502239  0.715434  -0.272606
    C   C91   0.812619  0.480290  0.703340  0.281823
    C   C92   0.844133  0.485434  0.704843  -0.634726
    C   C93   0.849291  0.509661  0.721671  0.270279
    C   C94   0.821896  0.532362  0.732558  -0.258298
    C   C95   0.067105  0.452161  0.522288  0.697728
    C   C96   0.789654  0.529857  0.728211  0.072274
    C   C97   0.907687  0.464263  0.634396  1.095129
    C   C98   0.869113  0.472252  0.683252  0.926381
    C   C99   0.922995  0.446504  0.582601  0.151621
    C   C100  0.939031  0.450744  0.554081  -0.158183
    C   C101  0.956591  0.475954  0.547145  0.088033
    C   C102  0.958897  0.495864  0.569326  -0.196429
    C   C103  0.944000  0.490723  0.598177  0.162259
    C   C104  0.925680  0.466337  0.604904  -0.587945
    C   C105  0.716745  0.708881  0.192372  -0.210781
    C   C106  0.346449  0.548623  0.370639  0.748670
    C   C107  0.744182  0.690619  0.219382  0.191553
    C   C108  0.756453  0.650899  0.234491  -0.580505
    C   C109  0.740675  0.629689  0.222428  0.179536
    C   C110  0.712989  0.648084  0.195452  -0.226285
    C   C111  0.701047  0.687758  0.180217  0.143039
    C   C112  0.841128  0.596982  0.313685  0.979229
    C   C113  0.786195  0.631681  0.262775  0.986978
    C   C114  0.884645  0.599828  0.355412  0.174113
    C   C115  0.913307  0.581943  0.381282  -0.216814
    C   C116  0.929184  0.542119  0.393165  0.125843
    C   C117  0.401800  0.488474  0.456050  0.692111
    C   C118  0.916080  0.520328  0.379070  -0.199225
    C   C119  0.887339  0.538148  0.353353  0.184018
    C   C120  0.871479  0.578014  0.341317  -0.572303
    C   C121  0.303870  0.233080  0.725870  -0.224561
    C   C122  0.277373  0.269035  0.715810  0.239469
    C   C123  0.243107  0.271887  0.715571  -0.616112
    C   C124  0.235983  0.238715  0.728723  0.259390
    C   C125  0.262264  0.203016  0.737540  -0.222802
    C   C126  0.295953  0.200150  0.734731  0.060889
    C   C127  0.163707  0.363997  0.646235  1.073880
    C   C128  0.398432  0.612131  0.357344  0.713864
    C   C129  0.214475  0.307692  0.695179  0.893980
    C   C130  0.112812  0.376462  0.605306  0.115341
    C   C131  0.090590  0.396921  0.574614  -0.211049
    C   C132  0.092008  0.431188  0.554262  0.114217
    C   C133  0.115840  0.445145  0.564961  -0.187682
    C   C134  0.139292  0.423687  0.595270  0.160013
    C   C135  0.137690  0.389290  0.615599  -0.562027
    C   C136  0.475238  0.592408  0.469347  -0.136767
    C   C137  0.501539  0.598547  0.485903  0.112685
    C   C138  0.534777  0.570725  0.495426  -0.509484
    C   C139  0.453496  0.553697  0.443116  0.736273
    C   C140  0.541689  0.537131  0.487274  0.076102
    C   C141  0.515532  0.531689  0.469399  -0.125161
    C   C142  0.482066  0.559049  0.460986  0.026926
    C   C143  0.606661  0.586603  0.557561  1.031188
    C   C144  0.561640  0.576288  0.515733  1.024533
    C   C145  0.633174  0.626929  0.577522  0.079905
    C   C146  0.650640  0.633308  0.603377  -0.118264
    C   C147  0.662083  0.605579  0.635461  0.049033
    C   C148  0.657898  0.570697  0.640962  -0.162529
    C   C149  0.641798  0.563692  0.614861  0.142426
    C   C150  0.646733  0.687162  0.709018  0.680917
    C   C151  0.628450  0.592170  0.583293  -0.523850
    C   C152  0.402710  0.643636  0.298403  -0.249460
    C   C153  0.410407  0.671308  0.274553  0.176609
    C   C154  0.417983  0.699614  0.283717  -0.555645
    C   C155  0.415233  0.701672  0.316265  0.141255
    C   C156  0.405919  0.674846  0.339723  -0.198284
    C   C157  0.400876  0.645022  0.331098  0.102339
    C   C158  0.469179  0.755456  0.217959  0.940125
    C   C159  0.432830  0.723688  0.260099  1.082971
    C   C160  0.489633  0.763843  0.163031  0.266776
    H   H1    0.342021  0.485024  0.359964  0.130911
    H   H2    0.807875  0.461650  0.690229  -0.015974
    H   H3    0.873510  0.514405  0.723446  -0.005218
    H   H4    0.825125  0.554368  0.742065  0.149434
    H   H5    0.908689  0.427357  0.587388  0.022240
    H   H6    0.937164  0.434806  0.536999  0.124588
    H   H7    0.972971  0.515240  0.564811  0.133133
    H   H8    0.946165  0.507111  0.614736  0.061330
    H   H9    0.707846  0.739961  0.180969  0.143098
    H   H10   0.755940  0.708023  0.228134  0.014781
    H   H11   0.749695  0.598597  0.233809  0.019537
    H   H12   0.288322  0.474697  0.347675  0.007690
    H   H13   0.701076  0.631043  0.186284  0.147048
    H   H14   0.872774  0.631042  0.346567  0.019420
    H   H15   0.923143  0.599537  0.391945  0.144326
    H   H16   0.928022  0.489117  0.387995  0.140556
    H   H17   0.877718  0.520335  0.342810  0.017155
    H   H18   0.330158  0.231085  0.722915  0.168727
    H   H19   0.283624  0.294498  0.705605  -0.013611
    H   H20   0.209588  0.239757  0.729053  -0.001390
    H   H21   0.255884  0.177330  0.744386  0.126761
    H   H22   0.111232  0.349420  0.620262  0.081908
    H   H23   0.229685  0.593582  0.334461  0.036116
    H   H24   0.071635  0.385964  0.567012  0.138598
    H   H25   0.117021  0.472112  0.549221  0.138350
    H   H26   0.158718  0.434050  0.602895  0.016138
    H   H27   0.449297  0.614365  0.462559  0.114084
    H   H28   0.495386  0.624769  0.492404  0.065354
    H   H29   0.567591  0.515061  0.494505  0.056153
    H   H30   0.521200  0.505425  0.463017  0.121177
    H   H31   0.622886  0.649554  0.552954  0.050973
    H   H32   0.653487  0.660877  0.598899  0.118911
    H   H33   0.666934  0.548654  0.665930  0.119664
    H   H34   0.282984  0.602880  0.347952  0.144130
    H   H35   0.638010  0.536535  0.620156  0.056738
    H   H36   0.399039  0.620213  0.291557  0.147913
    H   H37   0.412967  0.668581  0.249503  0.059725
    H   H38   0.421248  0.723498  0.323897  0.018810
    H   H39   0.405259  0.675610  0.365576  0.148130
    H   H40   0.467227  0.760147  0.151960  -0.026537
    H   H41   0.513860  0.759630  0.119887  0.158310
    H   H42   0.572416  0.772910  0.200493  0.169230
    H   H43   0.526011  0.771855  0.234359  -0.010152
    H   H44   0.322036  0.206910  0.616934  0.150934
    H   H45   0.155445  0.445321  0.382655  0.007324
    H   H46   0.326185  0.264624  0.576933  0.048390
    H   H47   0.436657  0.217950  0.610907  0.031832
    H   H48   0.432044  0.161434  0.651146  0.119208
    H   H49   0.344207  0.422024  0.524518  0.028457
    H   H50   0.349777  0.481924  0.490872  0.146441
    H   H51   0.449634  0.416972  0.474168  0.133547
    H   H52   0.444629  0.357531  0.507997  0.035450
    H   H53   0.703428  0.663335  0.054692  0.137338
    H   H54   0.733273  0.646943  0.010123  0.002416
    H   H55   0.703477  0.767524  0.953535  0.010251
    H   H56   0.108791  0.437024  0.413577  0.141340
    H   H57   0.674076  0.783638  0.999625  0.142249
    H   H58   0.750395  0.605028  0.889217  0.046896
    H   H59   0.742928  0.588633  0.838126  0.134682
    H   H60   0.736979  0.700297  0.776342  0.125962
    H   H61   0.743350  0.717752  0.827752  0.015595
    H   H62   0.390494  0.988257  0.693971  0.136497
    H   H63   0.429318  0.926266  0.692279  0.026131
    H   H64   0.517228  0.953766  0.718028  0.043766
    H   H65   0.478327  0.015236  0.720615  0.134512
    H   H66   0.540498  0.758377  0.729660  0.031068
    H   H67   0.058404  0.559720  0.384758  0.133862
    H   H68   0.585050  0.696846  0.732340  0.129323
    H   H69   0.644485  0.758592  0.678307  0.129412
    H   H70   0.601202  0.818675  0.676334  0.051409
    H   H71   0.532454  0.762407  0.003023  0.148568
    H   H72   0.478226  0.803987  0.962505  0.007437
    H   H73   0.474569  0.896631  0.000389  0.045306
    H   H74   0.528091  0.856243  0.038988  0.142639
    H   H75   0.369298  0.934216  0.839166  -0.015823
    H   H76   0.352050  0.988239  0.785630  0.162750
    H   H77   0.359782  0.063232  0.840645  0.131285
    H   H78   0.103672  0.568420  0.353376  0.006236
    H   H79   0.375052  0.010768  0.894044  0.022376
    H   H80   0.759938  0.500998  0.710971  0.166094
    N   N1    0.191978  0.555758  0.333535  -0.404060
    N   N2    0.827259  0.575699  0.301200  -0.357738
    N   N3    0.827159  0.635799  0.300480  -0.365973
    N   N4    0.800046  0.652928  0.275303  -0.358411
    N   N5    0.221167  0.336801  0.673497  -0.307778
    N   N6    0.195999  0.364786  0.649325  -0.406886
    N   N7    0.156803  0.335834  0.668800  -0.488157
    N   N8    0.181844  0.308060  0.692942  -0.271216
    N   N9    0.587637  0.545521  0.537848  -0.366728
    N   N10   0.609742  0.550639  0.558702  -0.429457
    N   N11   0.581158  0.617372  0.534887  -0.370627
    N   N12   0.163121  0.549588  0.339674  -0.320915
    N   N13   0.558791  0.612246  0.514347  -0.419210
    N   N14   0.455675  0.736797  0.272132  -0.378956
    N   N15   0.473782  0.752397  0.251294  -0.378280
    N   N16   0.445472  0.743547  0.205895  -0.231874
    N   N17   0.427618  0.727761  0.226675  -0.528968
    N   N18   0.415529  0.282829  0.564383  -0.393107
    N   N19   0.418466  0.315864  0.547645  -0.353675
    N   N20   0.358933  0.348101  0.543310  -0.377712
    N   N21   0.355944  0.314949  0.559854  -0.358780
    N   N22   0.726975  0.722495  0.917806  -0.373058
    N   N23   0.194414  0.483233  0.359528  -0.378999
    N   N24   0.733432  0.712160  0.890334  -0.356441
    N   N25   0.751554  0.647429  0.923843  -0.426493
    N   N26   0.745216  0.657727  0.951216  -0.300232
    N   N27   0.532651  0.893242  0.700415  -0.413656
    N   N28   0.554178  0.859589  0.699838  -0.378952
    N   N29   0.510288  0.834670  0.707803  -0.405167
    N   N30   0.488587  0.868550  0.708017  -0.388724
    N   N31   0.424237  0.914858  0.955792  -0.412602
    N   N32   0.400466  0.942181  0.930244  -0.356266
    N   N33   0.409729  0.900220  0.898552  -0.325080
    N   N34   0.223358  0.489418  0.353311  -0.342020
    N   N35   0.433589  0.872760  0.924223  -0.391912
    N   N36   0.897624  0.481475  0.682826  -0.279788
    N   N37   0.916655  0.477510  0.658758  -0.494516
    N   N38   0.879906  0.453562  0.635437  -0.431832
    N   N39   0.860718  0.457697  0.659543  -0.311653
    N   N40   0.800082  0.592844  0.276047  -0.370422
    O   O1    0.971133  0.543215  0.435412  -0.698841
    O   O2    0.421418  0.484541  0.432697  -0.666899
    O   O3    0.381643  0.523140  0.455341  -0.746886
    O   O4    0.378189  0.527255  0.369111  -0.780703
    O   O5    0.415738  0.577190  0.356852  -0.701162
    O   O6    0.421544  0.571750  0.446550  -0.725934
    O   O7    0.459331  0.533444  0.422109  -0.746121
    O   O8    0.381598  0.617088  0.382498  -0.731552
    O   O9    0.673335  0.689690  0.694347  -0.653273
    O   O10   0.711369  0.612098  0.776503  -0.703375
    O   O11   0.733788  0.653013  0.743083  -0.771394
    O   O12   0.984201  0.454143  0.503128  -0.721698
    O   O13   0.647634  0.653311  0.728519  -0.724089
    O   O14   0.670391  0.597454  0.694934  -0.718914
    O   O15   0.757970  0.597236  0.710488  -0.689768
    O   O16   0.732451  0.558033  0.741285  -0.741586
    O   O17   0.695058  0.635225  0.660717  -0.754173
    O   O18   0.583645  0.801534  0.059567  -0.667799
    O   O19   0.582432  0.727367  0.130160  -0.746089
    O   O20   0.591191  0.782193  0.130098  -0.769136
    O   O21   0.577014  0.745595  0.060008  -0.719860
    O   O22   0.649815  0.707299  0.068290  -0.716542
    O   O23   0.983663  0.511049  0.508312  -0.723110
    O   O24   0.663482  0.744974  0.135835  -0.700595
    O   O25   0.655346  0.688856  0.140327  -0.693166
    O   O26   0.655858  0.764760  0.062368  -0.783641
    O   O27   0.395481  0.139004  0.694320  -0.689613
    O   O28   0.309347  0.144109  0.718114  -0.691946
    O   O29   0.354375  0.153918  0.743341  -0.776269
    O   O30   0.347977  0.137878  0.664613  -0.762838
    O   O31   0.375175  0.055442  0.697307  -0.723732
    O   O32   0.378400  0.074044  0.779312  -0.700473
    O   O33   0.336707  0.063707  0.749252  -0.770548
    O   O34   0.975205  0.485204  0.430415  -0.715595
    O   O35   0.419885  0.059374  0.728959  -0.705936
    O   O36   0.048854  0.462493  0.435111  -0.766287
    O   O37   0.054096  0.490142  0.510802  -0.722821
    O   O38   0.054501  0.432423  0.507798  -0.699716
    O   O39   0.043177  0.521828  0.437847  -0.720083
    O   O40   0.341488  0.570694  0.389984  -0.696083
    Zn  Zn1   0.012420  0.525745  0.473271  1.365477
    Zn  Zn2   0.335419  0.099707  0.702328  1.383293
    Zn  Zn3   0.016202  0.449869  0.467804  1.378790
    Zn  Zn4   0.375839  0.576374  0.422603  1.372988
    Zn  Zn5   0.424512  0.524824  0.391341  1.377466
    Zn  Zn6   0.719159  0.649194  0.696869  1.366444
    Zn  Zn7   0.686439  0.599692  0.740640  1.370163
    Zn  Zn8   0.625334  0.781751  0.096409  1.385899
    Zn  Zn9   0.615501  0.708349  0.100301  1.367204
    Zn  Zn10  0.394060  0.107076  0.741338  1.359520
