data_DB0-m29_o96_o1530_f0_pts.sym.101_repeat
_audit_creation_date              2024-02-24
_audit_creation_method            'Materials Studio'
_symmetry_space_group_name_H-M    'P1'
_symmetry_Int_Tables_number       1
_symmetry_cell_setting            triclinic
loop_
_symmetry_equiv_pos_as_xyz
  x,y,z
_cell_length_a                    17.2721
_cell_length_b                    13.8665
_cell_length_c                    18.3774
_cell_angle_alpha                 84.3071
_cell_angle_beta                  90.6356
_cell_angle_gamma                 116.6925
loop_
_atom_site_label
_atom_site_type_symbol
_atom_site_fract_x
_atom_site_fract_y
_atom_site_fract_z
_atom_site_U_iso_or_equiv
_atom_site_adp_type
_atom_site_occupancy
C1     C     0.25244   0.08938   0.09824   0.00000  Uiso   1.00
C2     C     0.23035   0.15889   0.12914   0.00000  Uiso   1.00
C3     C     0.15096   0.14349   0.10295   0.00000  Uiso   1.00
N1     N     0.12507   0.06881   0.05447   0.00000  Uiso   1.00
C4     C     0.18777   0.03622   0.05112   0.00000  Uiso   1.00
C5     C     0.10350   0.18894   0.12628   0.00000  Uiso   1.00
C6     C     0.01319   0.15622   0.10639   0.00000  Uiso   1.00
C7     C     0.94971   0.15350   0.15258   0.00000  Uiso   1.00
C8     C     0.87519   0.11795   0.11568   0.00000  Uiso   1.00
C9     C     0.89390   0.09913   0.04720   0.00000  Uiso   1.00
N2     N     0.97880   0.12321   0.04160   0.00000  Uiso   1.00
C10    C     0.83016   0.05838   0.99026   0.00000  Uiso   1.00
C11    C     0.83168   0.99155   0.94340   0.00000  Uiso   1.00
C12    C     0.76626   0.93847   0.89701   0.00000  Uiso   1.00
C13    C     0.78726   0.86848   0.86483   0.00000  Uiso   1.00
C14    C     0.86792   0.88441   0.89030   0.00000  Uiso   1.00
N3     N     0.89426   0.95913   0.93888   0.00000  Uiso   1.00
C15    C     0.91666   0.83976   0.86778   0.00000  Uiso   1.00
C16    C     0.00724   0.87406   0.88768   0.00000  Uiso   1.00
C17    C     0.07113   0.87777   0.84139   0.00000  Uiso   1.00
C18    C     0.14533   0.91226   0.87870   0.00000  Uiso   1.00
C19    C     0.12610   0.92927   0.94752   0.00000  Uiso   1.00
N4     N     0.04114   0.90526   0.95294   0.00000  Uiso   1.00
C20    C     0.18954   0.96904   0.00482   0.00000  Uiso   1.00
H1     H     0.12817   0.24275   0.16872   0.00000  Uiso   1.00
H2     H     0.77409   0.07347   0.99279   0.00000  Uiso   1.00
H3     H     0.89386   0.78468   0.82638   0.00000  Uiso   1.00
H4     H     0.24556   0.95365   0.00300   0.00000  Uiso   1.00
H5     H     0.01214   0.12148   0.99523   0.00000  Uiso   1.00
H6     H     0.00730   0.90559   0.99943   0.00000  Uiso   1.00
C21    C     0.06938   0.85794   0.76944   0.00000  Uiso   1.00
C22    C     0.14641   0.87519   0.73550   0.00000  Uiso   1.00
C23    C     0.22313   0.91135   0.77346   0.00000  Uiso   1.00
C24    C     0.22268   0.92964   0.84644   0.00000  Uiso   1.00
C25    C     0.32660   0.08013   0.11655   0.00000  Uiso   1.00
C26    C     0.38006   0.14771   0.16573   0.00000  Uiso   1.00
C27    C     0.35911   0.22253   0.19447   0.00000  Uiso   1.00
C28    C     0.28285   0.22743   0.17737   0.00000  Uiso   1.00
C29    C     0.95211   0.17484   0.22422   0.00000  Uiso   1.00
C30    C     0.87541   0.15836   0.25830   0.00000  Uiso   1.00
C31    C     0.79843   0.12151   0.22075   0.00000  Uiso   1.00
C32    C     0.79815   0.10143   0.14809   0.00000  Uiso   1.00
C33    C     0.69217   0.94926   0.88097   0.00000  Uiso   1.00
C34    C     0.63581   0.88189   0.83350   0.00000  Uiso   1.00
C35    C     0.65392   0.80553   0.80411   0.00000  Uiso   1.00
C36    C     0.73085   0.80003   0.81740   0.00000  Uiso   1.00
H7     H     0.01052   0.83176   0.73932   0.00000  Uiso   1.00
H8     H     0.28151   0.95932   0.87660   0.00000  Uiso   1.00
H9     H     0.34283   0.02201   0.09427   0.00000  Uiso   1.00
H10    H     0.40049   0.27424   0.23345   0.00000  Uiso   1.00
H11    H     0.26622   0.28381   0.20163   0.00000  Uiso   1.00
H12    H     0.01123   0.20176   0.25399   0.00000  Uiso   1.00
H13    H     0.73900   0.07104   0.11837   0.00000  Uiso   1.00
H14    H     0.67805   0.00879   0.90365   0.00000  Uiso   1.00
H15    H     0.61016   0.75397   0.76631   0.00000  Uiso   1.00
H16    H     0.14613   0.86086   0.67874   0.00000  Uiso   1.00
H17    H     0.87620   0.17408   0.31480   0.00000  Uiso   1.00
O1     O     0.64679   0.07766   0.22109   0.00000  Uiso   1.00
C37    C     0.71745   0.10216   0.25832   0.00000  Uiso   1.00
O2     O     0.57851   0.86566   0.31692   0.00000  Uiso   1.00
O3     O     0.71513   0.10683   0.32915   0.00000  Uiso   1.00
O4     O     0.48414   0.92674   0.35326   0.00000  Uiso   1.00
C38    C     0.51808   0.85869   0.36273   0.00000  Uiso   1.00
Fe1    Fe    0.54507   0.05597   0.28161   0.00000  Uiso   1.00
O5     O     0.44995   0.04034   0.21296   0.00000  Uiso   1.00
O6     O     0.52282   0.22337   0.21141   0.00000  Uiso   1.00
C39    C     0.45598   0.13710   0.19242   0.00000  Uiso   1.00
O7     O     0.59651   0.18465   0.33930   0.00000  Uiso   1.00
O8     O     0.45266   0.10790   0.36805   0.00000  Uiso   1.00
C40    C     0.53134   0.18406   0.37597   0.00000  Uiso   1.00
C41    C     0.50457   0.64374   0.51221   0.00000  Uiso   1.00
C42    C     0.49178   0.68942   0.57246   0.00000  Uiso   1.00
C43    C     0.48779   0.64012   0.64241   0.00000  Uiso   1.00
C44    C     0.49556   0.54576   0.65335   0.00000  Uiso   1.00
C45    C     0.50734   0.49849   0.59492   0.00000  Uiso   1.00
C46    C     0.51253   0.54642   0.52400   0.00000  Uiso   1.00
C47    C     0.51310   0.40203   0.60884   0.00000  Uiso   1.00
C48    C     0.52346   0.34988   0.55222   0.00000  Uiso   1.00
C49    C     0.53127   0.39845   0.48140   0.00000  Uiso   1.00
C50    C     0.52524   0.49463   0.46742   0.00000  Uiso   1.00
C51    C     0.52631   0.25051   0.56439   0.00000  Uiso   1.00
C52    C     0.53848   0.20393   0.50540   0.00000  Uiso   1.00
C53    C     0.54491   0.25153   0.43526   0.00000  Uiso   1.00
C54    C     0.54130   0.34877   0.42306   0.00000  Uiso   1.00
C55    C     0.51175   0.69899   0.44253   0.00000  Uiso   1.00
C56    C     0.50165   0.79279   0.43365   0.00000  Uiso   1.00
C57    C     0.48608   0.83384   0.49378   0.00000  Uiso   1.00
C58    C     0.48410   0.78536   0.56284   0.00000  Uiso   1.00
H18    H     0.47640   0.67241   0.68994   0.00000  Uiso   1.00
H19    H     0.49132   0.50826   0.70857   0.00000  Uiso   1.00
H20    H     0.53467   0.12361   0.51297   0.00000  Uiso   1.00
H21    H     0.54192   0.38284   0.36743   0.00000  Uiso   1.00
H22    H     0.52967   0.52542   0.41088   0.00000  Uiso   1.00
H23    H     0.50986   0.36882   0.66497   0.00000  Uiso   1.00
H24    H     0.52587   0.67275   0.39350   0.00000  Uiso   1.00
H25    H     0.48488   0.91147   0.48817   0.00000  Uiso   1.00
O9     O     0.57175   0.99474   0.78484   0.00000  Uiso   1.00
O10    O     0.49184   0.81223   0.78992   0.00000  Uiso   1.00
C59    C     0.56120   0.89661   0.80772   0.00000  Uiso   1.00
O11    O     0.43047   0.86097   0.65195   0.00000  Uiso   1.00
O12    O     0.57530   0.91917   0.63793   0.00000  Uiso   1.00
C60    C     0.49590   0.85196   0.62285   0.00000  Uiso   1.00
O13    O     0.43664   0.16446   0.67399   0.00000  Uiso   1.00
O14    O     0.37544   0.95872   0.77336   0.00000  Uiso   1.00
C61    C     0.30464   0.93229   0.73598   0.00000  Uiso   1.00
O15    O     0.54313   0.11843   0.64703   0.00000  Uiso   1.00
C62    C     0.50613   0.18303   0.63518   0.00000  Uiso   1.00
O16    O     0.30735   0.92825   0.66510   0.00000  Uiso   1.00
Fe2    Fe    0.47947   0.98463   0.71429   0.00000  Uiso   1.00
N5     N     0.74789   0.72446   0.78341   0.00000  Uiso   1.00
C63    C     0.78136   0.76119   0.71446   0.00000  Uiso   1.00
O17    O     0.81761   0.85849   0.69546   0.00000  Uiso   1.00
C64    C     0.77498   0.68364   0.66119   0.00000  Uiso   1.00
H26    H     0.69861   0.64642   0.78831   0.00000  Uiso   1.00
H27    H     0.74298   0.59880   0.68731   0.00000  Uiso   1.00
H28    H     0.84109   0.70246   0.64116   0.00000  Uiso   1.00
H29    H     0.73692   0.69238   0.61423   0.00000  Uiso   1.00
