# Generated by REPEAT Assigner based on pymatgen
data_DB0-m2_o26_o29_f0_pcu.sym.54_sqe
_audit_creation_date              2022-05-24
_audit_creation_method            REPEAT_Assigner
_cell_length_a                    15.882660
_cell_length_b                    17.388304
_cell_length_c                    27.534969
_cell_angle_alpha                 89.994900
_cell_angle_beta                  92.971938
_cell_angle_gamma                 96.699860
_cell_volume                      7542.177080
_symmetry_space_group_name_H-M    P1
_symmetry_Int_Tables_number       1
loop_
    _symmetry_equiv_pos_site_id
    _symmetry_equiv_pos_as_xyz
    1  x,y,z
loop_
    _atom_site_type_symbol
    _atom_site_label
    _atom_site_fract_x
    _atom_site_fract_y
    _atom_site_fract_z
    _atom_type_partial_charge
    O   O1   0.420185  0.384161  0.495499  -0.594356
    O   O2   0.579419  0.616431  0.504055  -0.610129
    O   O3   0.565566  0.391808  0.502330  -0.573578
    O   O4   0.433540  0.608784  0.497596  -0.574823
    C   C1   0.490745  0.351707  0.498582  0.659769
    C   C2   0.508601  0.648908  0.501293  0.665931
    O   O5   0.425101  0.500552  0.427570  -0.590666
    O   O6   0.574385  0.500534  0.572062  -0.576337
    O   O7   0.570165  0.502371  0.430823  -0.611698
    O   O8   0.429083  0.498035  0.568814  -0.607833
    C   C3   0.497187  0.501914  0.406457  0.699736
    C   C4   0.502256  0.499184  0.593308  0.679492
    Cu  Cu1  0.414998  0.495882  0.498052  0.916121
    Cu  Cu2  0.584313  0.504720  0.501815  0.915514
    C   C5   0.508124  0.436117  0.177239  0.462953
    C   C6   0.482734  0.562209  0.822327  0.457102
    O   O9   0.519146  0.371804  0.202697  -0.526265
    O   O10  0.462801  0.623873  0.796628  -0.522952
    N   N1   0.494022  0.500843  0.200840  -0.199676
    N   N2   0.505735  0.500453  0.799009  -0.191962
    C   C7   0.481456  0.565488  0.175992  0.458398
    C   C8   0.527355  0.438848  0.824257  0.459058
    C   C9   0.568174  0.492673  0.279409  -0.164598
    C   C10  0.430111  0.502190  0.720268  -0.186723
    C   C11  0.569682  0.493193  0.329503  -0.093263
    C   C12  0.428818  0.501692  0.670223  -0.077665
    C   C13  0.422237  0.509945  0.326121  -0.077901
    C   C14  0.578478  0.496473  0.673484  -0.062660
    C   C15  0.421190  0.510224  0.276052  -0.188796
    C   C16  0.579627  0.496703  0.723605  -0.186088
    C   C17  0.494225  0.501309  0.252605  0.278302
    C   C18  0.505364  0.499634  0.747211  0.278255
    C   C19  0.496509  0.500601  0.100874  0.120433
    C   C20  0.503271  0.500765  0.899107  0.130336
    C   C21  0.509484  0.435202  0.127066  -0.126685
    C   C22  0.481347  0.563070  0.872536  -0.131517
    C   C23  0.522903  0.368939  0.102974  -0.046807
    C   C24  0.457196  0.625757  0.896177  -0.043364
    C   C25  0.482262  0.566068  0.125791  -0.134533
    C   C26  0.526423  0.438350  0.874490  -0.142120
    C   C27  0.496424  0.501976  0.353167  -0.068635
    C   C28  0.503151  0.498900  0.646528  -0.073168
    H   H1   0.364072  0.516094  0.343777  0.110999
    H   H2   0.637376  0.494394  0.655744  0.102015
    H   H3   0.362591  0.516651  0.255442  0.140478
    H   H4   0.639465  0.495619  0.744172  0.135935
    H   H5   0.531702  0.316218  0.122405  0.129064
    H   H6   0.437918  0.674856  0.876283  0.128583
    C   C29  0.521164  0.436077  0.975507  0.055137
    C   C30  0.482978  0.566739  0.024643  0.054482
    C   C31  0.480435  0.565425  0.973713  0.050213
    C   C32  0.515493  0.434703  0.026111  0.051203
    C   C33  0.501603  0.500755  0.949616  0.011672
    C   C34  0.498280  0.500669  0.050386  0.017086
    C   C35  0.546751  0.374429  0.949873  -0.194891
    C   C36  0.471245  0.633013  0.050749  -0.195602
    C   C37  0.548880  0.375600  0.900163  -0.032616
    C   C38  0.470491  0.632392  0.100541  -0.037262
    O   O11  0.548133  0.376973  0.800325  -0.516262
    O   O12  0.469400  0.629926  0.200351  -0.517737
    C   C39  0.525755  0.368486  0.053268  -0.192419
    C   C40  0.456469  0.627089  0.945949  -0.190783
    H   H7   0.369020  0.503908  0.650152  0.111897
    H   H8   0.628329  0.485691  0.349607  0.114406
    H   H9   0.371603  0.504234  0.738329  0.138488
    H   H10  0.625061  0.486096  0.260815  0.131228
    H   H11  0.568782  0.326252  0.882018  0.122397
    H   H12  0.461209  0.685202  0.119154  0.123852
    H   H13  0.568194  0.324081  0.966804  0.135751
    H   H14  0.464688  0.688080  0.034260  0.139003
    H   H15  0.534230  0.313621  0.037524  0.137810
    H   H16  0.434158  0.677453  0.961043  0.134706
    C   C41  0.485488  0.266901  0.497123  -0.075473
    C   C42  0.514149  0.733545  0.502535  -0.067613
    C   C43  0.559058  0.231517  0.498578  -0.060943
    C   C44  0.440774  0.769195  0.500695  -0.067750
    C   C45  0.555353  0.151906  0.497061  -0.209282
    C   C46  0.444668  0.848564  0.502184  -0.206065
    C   C47  0.477632  0.106321  0.494324  0.264830
    C   C48  0.522518  0.893927  0.505121  0.276005
    C   C49  0.404313  0.141908  0.492192  -0.236019
    C   C50  0.595846  0.858271  0.507743  -0.240765
    C   C51  0.407828  0.221618  0.493602  -0.043644
    C   C52  0.592044  0.778576  0.506138  -0.063290
    C   C53  0.469279  0.020983  0.491772  -0.213959
    C   C54  0.531013  0.979234  0.507253  -0.234965
    H   H17  0.620480  0.265599  0.500303  0.095650
    H   H18  0.378916  0.735715  0.498346  0.100533
    H   H19  0.650452  0.752276  0.507684  0.108303
    H   H20  0.349252  0.247781  0.491800  0.096150
    H   H21  0.590980  0.007804  0.521827  0.140011
    H   H22  0.409381  0.992242  0.477122  0.137606
    H   H23  0.343443  0.106583  0.489692  0.122185
    H   H24  0.656844  0.893170  0.510672  0.129045
    H   H25  0.385254  0.872842  0.502069  0.124555
    H   H26  0.614478  0.127070  0.496716  0.125095
    N   N3   0.711113  0.511657  0.504444  -0.151741
    N   N4   0.288254  0.488437  0.495362  -0.136661
    C   C55  0.748380  0.467662  0.473440  0.059309
    C   C56  0.250398  0.531969  0.525955  0.042246
    C   C57  0.835625  0.471503  0.473963  -0.267219
    C   C58  0.163331  0.526079  0.526214  -0.234273
    C   C59  0.885494  0.520514  0.506125  0.286693
    C   C60  0.113847  0.475543  0.494759  0.250364
    C   C61  0.845815  0.566152  0.537242  -0.208934
    C   C62  0.154150  0.428775  0.464975  -0.177235
    C   C63  0.758218  0.561247  0.535034  0.092154
    C   C64  0.241665  0.436447  0.465660  0.064673
    C   C65  0.978790  0.529240  0.504413  -0.193476
    C   C66  0.020462  0.468927  0.494650  -0.204283
    H   H27  0.709727  0.428809  0.448343  0.126959
    H   H28  0.288431  0.572339  0.550248  0.121799
    H   H29  0.272472  0.400684  0.441606  0.094425
    H   H30  0.727273  0.596272  0.559434  0.095456
    H   H31  0.984944  0.412925  0.487635  0.121861
    H   H32  0.013625  0.585842  0.511436  0.123993
    H   H33  0.135050  0.559921  0.552412  0.124616
    H   H34  0.864141  0.437464  0.447762  0.131669
    C   C67  0.893948  0.618922  0.572886  0.263894
    C   C68  0.950663  0.591477  0.606485  -0.202732
    C   C69  0.994138  0.640700  0.640847  0.020275
    C   C70  0.980126  0.717391  0.642390  -0.106052
    Br  Br1  0.039705  0.785375  0.690119  -0.045809
    C   C71  0.922539  0.744866  0.609572  0.051792
    C   C72  0.879498  0.695823  0.574853  -0.306869
    H   H35  0.960186  0.530956  0.606502  0.121180
    H   H36  0.038286  0.618661  0.666981  0.082282
    H   H37  0.910862  0.804866  0.611334  0.078466
    H   H38  0.834622  0.718296  0.549281  0.163001
    C   C73  0.106618  0.372585  0.431482  0.313151
    C   C74  0.069396  0.302732  0.448481  -0.241545
    C   C75  0.025819  0.249417  0.416573  0.029246
    C   C76  0.020458  0.265319  0.367537  -0.110284
    Br  Br2  0.960153  0.191308  0.323665  -0.048727
    C   C77  0.059408  0.334342  0.350376  0.059802
    C   C78  0.102989  0.387659  0.382327  -0.322579
    H   H39  0.073876  0.289963  0.486887  0.124718
    H   H40  0.995667  0.195189  0.430002  0.079480
    H   H41  0.055647  0.346831  0.311916  0.079305
    H   H42  0.133665  0.441723  0.368875  0.159970
