data_DB0-m3_o12_o29_f0_pcu.sym.88_repeat
_audit_creation_date              2024-02-23
_audit_creation_method            'Materials Studio'
_symmetry_space_group_name_H-M    'P1'
_symmetry_Int_Tables_number       1
_symmetry_cell_setting            triclinic
loop_
_symmetry_equiv_pos_as_xyz
  x,y,z
_cell_length_a                    10.2524
_cell_length_b                    11.3039
_cell_length_c                    27.5970
_cell_angle_alpha                 89.9953
_cell_angle_beta                  80.5324
_cell_angle_gamma                 92.4947
loop_
_atom_site_label
_atom_site_type_symbol
_atom_site_fract_x
_atom_site_fract_y
_atom_site_fract_z
_atom_site_U_iso_or_equiv
_atom_site_adp_type
_atom_site_occupancy
O1     O     0.42394   0.70234   0.49869   0.00000  Uiso   1.00
O2     O     0.58376   0.32256   0.49237   0.00000  Uiso   1.00
O3     O     0.64803   0.67288   0.48883   0.00000  Uiso   1.00
O4     O     0.35939   0.35207   0.50337   0.00000  Uiso   1.00
C1     C     0.54786   0.74223   0.49305   0.00000  Uiso   1.00
C2     C     0.45972   0.28272   0.49863   0.00000  Uiso   1.00
O5     O     0.37885   0.52991   0.57345   0.00000  Uiso   1.00
O6     O     0.62856   0.49639   0.41802   0.00000  Uiso   1.00
O7     O     0.60250   0.49761   0.56371   0.00000  Uiso   1.00
O8     O     0.40462   0.52569   0.42779   0.00000  Uiso   1.00
C3     C     0.48781   0.51365   0.59138   0.00000  Uiso   1.00
C4     C     0.51934   0.51077   0.40005   0.00000  Uiso   1.00
Zn1    Zn    0.35572   0.53101   0.50189   0.00000  Uiso   1.00
Zn2    Zn    0.65172   0.49394   0.48958   0.00000  Uiso   1.00
C5     C     0.50099   0.61351   0.81963   0.00000  Uiso   1.00
C6     C     0.48212   0.40829   0.17352   0.00000  Uiso   1.00
O9     O     0.52327   0.71443   0.79326   0.00000  Uiso   1.00
O10    O     0.43839   0.31296   0.20159   0.00000  Uiso   1.00
N1     N     0.47491   0.51167   0.79712   0.00000  Uiso   1.00
N2     N     0.53201   0.50435   0.19414   0.00000  Uiso   1.00
C7     C     0.45413   0.40916   0.82256   0.00000  Uiso   1.00
C8     C     0.57746   0.60047   0.16667   0.00000  Uiso   1.00
C9     C     0.57898   0.46171   0.71482   0.00000  Uiso   1.00
C10    C     0.41098   0.50567   0.27734   0.00000  Uiso   1.00
C11    C     0.58268   0.46301   0.66472   0.00000  Uiso   1.00
C12    C     0.40782   0.50813   0.32739   0.00000  Uiso   1.00
C13    C     0.37760   0.56004   0.67559   0.00000  Uiso   1.00
C14    C     0.64404   0.50937   0.31503   0.00000  Uiso   1.00
C15    C     0.37547   0.56071   0.72575   0.00000  Uiso   1.00
C16    C     0.64691   0.50878   0.26482   0.00000  Uiso   1.00
C17    C     0.47607   0.51125   0.74543   0.00000  Uiso   1.00
C18    C     0.53027   0.50624   0.24589   0.00000  Uiso   1.00
C19    C     0.48747   0.50995   0.89604   0.00000  Uiso   1.00
C20    C     0.52056   0.50515   0.09509   0.00000  Uiso   1.00
C21    C     0.50876   0.61373   0.86924   0.00000  Uiso   1.00
C22    C     0.47695   0.40709   0.12374   0.00000  Uiso   1.00
C23    C     0.53779   0.71725   0.89211   0.00000  Uiso   1.00
C24    C     0.42597   0.30902   0.10274   0.00000  Uiso   1.00
C25    C     0.45870   0.40723   0.87238   0.00000  Uiso   1.00
C26    C     0.57129   0.60239   0.11693   0.00000  Uiso   1.00
C27    C     0.48208   0.51217   0.64480   0.00000  Uiso   1.00
C28    C     0.52427   0.50936   0.34661   0.00000  Uiso   1.00
H1     H     0.29821   0.59933   0.66076   0.00000  Uiso   1.00
H2     H     0.73640   0.51078   0.32912   0.00000  Uiso   1.00
H3     H     0.29433   0.59938   0.74963   0.00000  Uiso   1.00
H4     H     0.74083   0.50889   0.24036   0.00000  Uiso   1.00
H5     H     0.55223   0.80051   0.87232   0.00000  Uiso   1.00
H6     H     0.38849   0.23162   0.12445   0.00000  Uiso   1.00
C29    C     0.54988   0.60842   0.01762   0.00000  Uiso   1.00
C30    C     0.46733   0.40427   0.97273   0.00000  Uiso   1.00
C31    C     0.46722   0.40519   0.02347   0.00000  Uiso   1.00
C32    C     0.53253   0.61192   0.96836   0.00000  Uiso   1.00
C33    C     0.51271   0.50620   0.04523   0.00000  Uiso   1.00
C34    C     0.49565   0.50874   0.94586   0.00000  Uiso   1.00
C35    C     0.60478   0.70455   0.04005   0.00000  Uiso   1.00
C36    C     0.44094   0.30091   0.94787   0.00000  Uiso   1.00
C37    C     0.61541   0.70120   0.08899   0.00000  Uiso   1.00
C38    C     0.43712   0.30264   0.89840   0.00000  Uiso   1.00
O11    O     0.62494   0.69605   0.18817   0.00000  Uiso   1.00
O12    O     0.42792   0.30873   0.79924   0.00000  Uiso   1.00
C39    C     0.54986   0.71662   0.94093   0.00000  Uiso   1.00
C40    C     0.42133   0.30768   0.05332   0.00000  Uiso   1.00
H7     H     0.31279   0.50806   0.35107   0.00000  Uiso   1.00
H8     H     0.66432   0.42347   0.64150   0.00000  Uiso   1.00
H9     H     0.31929   0.50457   0.26276   0.00000  Uiso   1.00
H10    H     0.65809   0.42302   0.73005   0.00000  Uiso   1.00
H11    H     0.65839   0.77794   0.10481   0.00000  Uiso   1.00
H12    H     0.41701   0.22020   0.88065   0.00000  Uiso   1.00
H13    H     0.64518   0.78376   0.02063   0.00000  Uiso   1.00
H14    H     0.42727   0.21486   0.96499   0.00000  Uiso   1.00
H15    H     0.56884   0.80184   0.95625   0.00000  Uiso   1.00
H16    H     0.37590   0.22906   0.04029   0.00000  Uiso   1.00
H17    H     0.62640   0.10444   0.48897   0.00000  Uiso   1.00
H18    H     0.38132   0.92055   0.50229   0.00000  Uiso   1.00
C41    C     0.57883   0.87011   0.49145   0.00000  Uiso   1.00
C42    C     0.42883   0.15482   0.50044   0.00000  Uiso   1.00
C43    C     0.48504   0.94902   0.49667   0.00000  Uiso   1.00
C44    C     0.52267   0.07595   0.49490   0.00000  Uiso   1.00
H19    H     0.32580   0.12413   0.50631   0.00000  Uiso   1.00
H20    H     0.68190   0.90069   0.48608   0.00000  Uiso   1.00
N3     N     0.84691   0.47295   0.48222   0.00000  Uiso   1.00
N4     N     0.16065   0.55256   0.50899   0.00000  Uiso   1.00
C45    C     0.92848   0.50599   0.51118   0.00000  Uiso   1.00
C46    C     0.07011   0.47801   0.49872   0.00000  Uiso   1.00
H21    H     0.12743   0.63154   0.52354   0.00000  Uiso   1.00
H22    H     0.88900   0.43426   0.45006   0.00000  Uiso   1.00
C47    C     0.10470   0.36609   0.47375   0.00000  Uiso   1.00
C48    C     0.03562   0.26005   0.48509   0.00000  Uiso   1.00
C49    C     0.09279   0.18197   0.45166   0.00000  Uiso   1.00
C50    C     0.19189   0.24590   0.42200   0.00000  Uiso   1.00
O13    O     0.19907   0.35848   0.43506   0.00000  Uiso   1.00
H23    H     0.95271   0.24232   0.51420   0.00000  Uiso   1.00
H24    H     0.06542   0.08912   0.44873   0.00000  Uiso   1.00
H25    H     0.25653   0.20963   0.39119   0.00000  Uiso   1.00
C51    C     0.88415   0.57206   0.55637   0.00000  Uiso   1.00
C52    C     0.92974   0.55479   0.59987   0.00000  Uiso   1.00
C53    C     0.87211   0.63752   0.63095   0.00000  Uiso   1.00
C54    C     0.79636   0.70015   0.60420   0.00000  Uiso   1.00
O14    O     0.80405   0.66127   0.55858   0.00000  Uiso   1.00
H26    H     0.99758   0.48962   0.60778   0.00000  Uiso   1.00
H27    H     0.88406   0.65169   0.66874   0.00000  Uiso   1.00
H28    H     0.73764   0.77357   0.61827   0.00000  Uiso   1.00
