data_DB1-Zn2O8N2-AZO_A-irmof6_A_No291_repeat
_audit_creation_date              2024-02-20
_audit_creation_method            'Materials Studio'
_symmetry_space_group_name_H-M    'P1'
_symmetry_Int_Tables_number       1
_symmetry_cell_setting            triclinic
loop_
_symmetry_equiv_pos_as_xyz
  x,y,z
_cell_length_a                    16.4924
_cell_length_b                    17.4766
_cell_length_c                    11.0052
_cell_angle_alpha                 89.8521
_cell_angle_beta                  92.2860
_cell_angle_gamma                 84.4493
loop_
_atom_site_label
_atom_site_type_symbol
_atom_site_fract_x
_atom_site_fract_y
_atom_site_fract_z
_atom_site_U_iso_or_equiv
_atom_site_adp_type
_atom_site_occupancy
O1     O     0.58923   0.38595   0.50651   0.00000  Uiso   1.00
O2     O     0.42376   0.39251   0.49547   0.00000  Uiso   1.00
C1     C     0.50882   0.35020   0.50098   0.00000  Uiso   1.00
Zn1    Zn    0.60091   0.49602   0.50636   0.00000  Uiso   1.00
O3     O     0.41711   0.50330   0.66998   0.00000  Uiso   1.00
O4     O     0.58258   0.49687   0.68049   0.00000  Uiso   1.00
C2     C     0.49988   0.50005   0.73700   0.00000  Uiso   1.00
O5     O     0.41077   0.61407   0.49373   0.00000  Uiso   1.00
O6     O     0.57624   0.60751   0.50431   0.00000  Uiso   1.00
C3     C     0.49118   0.64982   0.49892   0.00000  Uiso   1.00
Zn2    Zn    0.39909   0.50400   0.49365   0.00000  Uiso   1.00
O7     O     0.58289   0.49656   0.33003   0.00000  Uiso   1.00
O8     O     0.41741   0.50328   0.31952   0.00000  Uiso   1.00
C4     C     0.50014   0.49971   0.26301   0.00000  Uiso   1.00
N1     N     0.28037   0.50869   0.48618   0.00000  Uiso   1.00
C5     C     0.23923   0.46130   0.56174   0.00000  Uiso   1.00
C6     C     0.15389   0.46481   0.55615   0.00000  Uiso   1.00
C7     C     0.10795   0.51569   0.47501   0.00000  Uiso   1.00
C8     C     0.14848   0.56288   0.39976   0.00000  Uiso   1.00
C9     C     0.23377   0.55957   0.40505   0.00000  Uiso   1.00
N2     N     0.02046   0.52060   0.46718   0.00000  Uiso   1.00
N3     N     0.97954   0.47942   0.53285   0.00000  Uiso   1.00
C10    C     0.85152   0.43714   0.60027   0.00000  Uiso   1.00
C11    C     0.89204   0.48432   0.52502   0.00000  Uiso   1.00
C12    C     0.84611   0.53521   0.44388   0.00000  Uiso   1.00
C13    C     0.76077   0.53872   0.43829   0.00000  Uiso   1.00
N4     N     0.71963   0.49133   0.51385   0.00000  Uiso   1.00
C14    C     0.76622   0.44045   0.59498   0.00000  Uiso   1.00
H1     H     0.27350   0.42169   0.62491   0.00000  Uiso   1.00
H2     H     0.12343   0.42801   0.61482   0.00000  Uiso   1.00
H3     H     0.88637   0.39776   0.66305   0.00000  Uiso   1.00
H4     H     0.87656   0.57201   0.38521   0.00000  Uiso   1.00
C15    C     0.51393   0.26446   0.50120   0.00000  Uiso   1.00
C16    C     0.44265   0.22589   0.49658   0.00000  Uiso   1.00
C17    C     0.44764   0.14536   0.49679   0.00000  Uiso   1.00
C18    C     0.52389   0.10178   0.50162   0.00000  Uiso   1.00
C19    C     0.59487   0.13978   0.50621   0.00000  Uiso   1.00
C20    C     0.59017   0.22026   0.50602   0.00000  Uiso   1.00
N5     N     0.53098   0.01921   0.50196   0.00000  Uiso   1.00
N6     N     0.46902   0.98081   0.49794   0.00000  Uiso   1.00
C21    C     0.40513   0.86025   0.49369   0.00000  Uiso   1.00
C22    C     0.47611   0.89825   0.49829   0.00000  Uiso   1.00
C23    C     0.55236   0.85466   0.50311   0.00000  Uiso   1.00
C24    C     0.55735   0.77413   0.50332   0.00000  Uiso   1.00
C25    C     0.48607   0.73556   0.49871   0.00000  Uiso   1.00
C26    C     0.40983   0.77976   0.49389   0.00000  Uiso   1.00
H5     H     0.38328   0.25841   0.49282   0.00000  Uiso   1.00
H6     H     0.39230   0.11681   0.49321   0.00000  Uiso   1.00
H7     H     0.34612   0.89332   0.48996   0.00000  Uiso   1.00
H8     H     0.60771   0.88321   0.50669   0.00000  Uiso   1.00
C27    C     0.50007   0.49979   0.13268   0.00000  Uiso   1.00
C28    C     0.49994   0.49996   0.86733   0.00000  Uiso   1.00
C29    C     0.43575   0.50234   0.06244   0.00000  Uiso   1.00
C30    C     0.56427   0.49742   0.93757   0.00000  Uiso   1.00
C31    C     0.43568   0.50242   0.93000   0.00000  Uiso   1.00
C32    C     0.56433   0.49734   0.07001   0.00000  Uiso   1.00
C33    C     0.34431   0.50590   0.05423   0.00000  Uiso   1.00
C34    C     0.34425   0.50598   0.92743   0.00000  Uiso   1.00
H9     H     0.62439   0.49501   0.11506   0.00000  Uiso   1.00
H10    H     0.31445   0.55731   0.09713   0.00000  Uiso   1.00
H11    H     0.32092   0.45653   0.09839   0.00000  Uiso   1.00
H12    H     0.32032   0.45665   0.88135   0.00000  Uiso   1.00
H13    H     0.31484   0.55740   0.88016   0.00000  Uiso   1.00
O9     O     0.26973   0.60399   0.33422   0.00000  Uiso   1.00
Li1    Li    0.23416   0.67130   0.22688   0.00000  Uiso   1.00
O10    O     0.10667   0.61012   0.32444   0.00000  Uiso   1.00
Li2    Li    0.00438   0.63000   0.29274   0.00000  Uiso   1.00
O11    O     0.73027   0.39603   0.66581   0.00000  Uiso   1.00
Li3    Li    0.76584   0.32872   0.77315   0.00000  Uiso   1.00
O12    O     0.71969   0.58620   0.36257   0.00000  Uiso   1.00
Li4    Li    0.74789   0.65098   0.25928   0.00000  Uiso   1.00
O13    O     0.65698   0.25396   0.51034   0.00000  Uiso   1.00
Li5    Li    0.75793   0.22007   0.51676   0.00000  Uiso   1.00
O14    O     0.66566   0.10010   0.51069   0.00000  Uiso   1.00
Li6    Li    0.69518   0.00350   0.51246   0.00000  Uiso   1.00
O15    O     0.34302   0.74606   0.48956   0.00000  Uiso   1.00
Li7    Li    0.24207   0.77995   0.48315   0.00000  Uiso   1.00
O16    O     0.62852   0.73515   0.50783   0.00000  Uiso   1.00
Li8    Li    0.72587   0.76144   0.51410   0.00000  Uiso   1.00
Cl1    Cl    0.66145   0.49367   0.87608   0.00000  Uiso   1.00
