# Generated by REPEAT Assigner based on pymatgen
data_DB1-Zn2O8N2-AZO_A-irmof6_A_No298
_audit_creation_date              2022-05-24
_audit_creation_method            REPEAT_Assigner
_cell_length_a                    16.492400
_cell_length_b                    17.476600
_cell_length_c                    11.005200
_cell_angle_alpha                 89.852100
_cell_angle_beta                  92.286000
_cell_angle_gamma                 84.449300
_cell_volume                      3154.588253
_symmetry_space_group_name_H-M    P1
_symmetry_Int_Tables_number       1
loop_
    _symmetry_equiv_pos_site_id
    _symmetry_equiv_pos_as_xyz
    1  x,y,z
loop_
    _atom_site_type_symbol
    _atom_site_label
    _atom_site_fract_x
    _atom_site_fract_y
    _atom_site_fract_z
    _atom_type_partial_charge
    O   O1   0.589230  0.385950  0.506510  -0.377356
    O   O2   0.423760  0.392510  0.495470  -0.557249
    C   C1   0.508820  0.350200  0.500980  0.412604
    Zn  Zn1  0.600910  0.496020  0.506360  0.892616
    O   O3   0.417110  0.503300  0.669980  -0.480413
    O   O4   0.582580  0.496870  0.680490  -0.208735
    C   C2   0.499880  0.500050  0.737000  0.182190
    O   O5   0.410770  0.614070  0.493730  -0.440002
    O   O6   0.576240  0.607510  0.504310  -0.537615
    C   C3   0.491180  0.649820  0.498920  0.432539
    Zn  Zn2  0.399090  0.504000  0.493650  0.920855
    O   O7   0.582890  0.496560  0.330030  -0.357457
    O   O8   0.417410  0.503280  0.319520  -0.434011
    C   C4   0.500140  0.499710  0.263010  0.246746
    N   N1   0.280370  0.508690  0.486180  -0.088664
    C   C5   0.239230  0.461300  0.561740  -0.256546
    C   C6   0.153890  0.464810  0.556150  -0.122966
    C   C7   0.107950  0.515690  0.475010  -0.073239
    C   C8   0.148480  0.562880  0.399760  0.399700
    C   C9   0.233770  0.559570  0.405050  0.310209
    N   N2   0.020460  0.520600  0.467180  0.056468
    N   N3   0.979540  0.479420  0.532850  -0.317604
    C   C10  0.851520  0.437140  0.600270  -0.685556
    C   C11  0.892040  0.484320  0.525020  0.541515
    C   C12  0.846110  0.535210  0.443880  -0.565996
    C   C13  0.760770  0.538720  0.438290  0.526938
    N   N4   0.719630  0.491330  0.513850  -0.405391
    C   C14  0.766220  0.440450  0.594980  0.715870
    H   H1   0.273500  0.421690  0.624910  0.207824
    H   H2   0.123430  0.428010  0.614820  0.067438
    H   H3   0.886370  0.397760  0.663050  0.111992
    H   H4   0.876560  0.572010  0.385210  -0.104043
    C   C15  0.513930  0.264460  0.501200  -0.040987
    C   C16  0.442650  0.225890  0.496580  -0.334206
    C   C17  0.447640  0.145360  0.496790  -0.105487
    C   C18  0.523890  0.101780  0.501620  0.041921
    C   C19  0.594870  0.139780  0.506210  0.325309
    C   C20  0.590170  0.220260  0.506020  0.302349
    N   N5   0.530980  0.019210  0.501960  -0.072937
    N   N6   0.469020  0.980810  0.497940  -0.293639
    C   C21  0.405130  0.860250  0.493690  -0.637978
    C   C22  0.476110  0.898250  0.498290  0.547511
    C   C23  0.552360  0.854660  0.503110  -0.525214
    C   C24  0.557350  0.774130  0.503320  0.263969
    C   C25  0.486070  0.735560  0.498710  -0.198271
    C   C26  0.409830  0.779760  0.493890  0.570635
    H   H5   0.383280  0.258410  0.492820  0.179253
    H   H6   0.392300  0.116810  0.493210  0.054418
    H   H7   0.346120  0.893320  0.489960  0.093404
    H   H8   0.607710  0.883210  0.506690  -0.025372
    C   C27  0.500070  0.499790  0.132680  0.226533
    C   C28  0.499940  0.499960  0.867330  0.216451
    C   C29  0.435750  0.502340  0.062440  -0.039164
    C   C30  0.564270  0.497420  0.937570  -0.272549
    C   C31  0.435680  0.502420  0.930000  0.091009
    C   C32  0.564330  0.497340  0.070010  -0.241707
    C   C33  0.344310  0.505900  0.054230  -0.154388
    C   C34  0.344250  0.505980  0.927430  -0.036876
    H   H9   0.314450  0.557310  0.097130  0.090840
    H   H10  0.320920  0.456530  0.098390  0.102439
    H   H11  0.320320  0.456650  0.881350  0.048123
    H   H12  0.314840  0.557400  0.880160  0.004548
    O   O9   0.269730  0.603990  0.334220  -0.668095
    Li  Li1  0.234160  0.671300  0.226880  0.777023
    O   O10  0.106670  0.610120  0.324440  -0.955945
    Li  Li2  0.004380  0.630000  0.292740  0.642914
    O   O11  0.730270  0.396030  0.665810  -0.822071
    Li  Li3  0.765840  0.328720  0.773150  0.815512
    O   O12  0.719690  0.586200  0.362570  -0.528796
    Li  Li4  0.747890  0.650980  0.259280  0.560474
    O   O13  0.656980  0.253960  0.510340  -0.738552
    Li  Li5  0.757930  0.220070  0.516760  0.780195
    O   O14  0.665660  0.100100  0.510690  -0.939176
    Li  Li6  0.695180  0.003500  0.512460  0.700385
    O   O15  0.343020  0.746060  0.489560  -0.786038
    Li  Li7  0.242070  0.779950  0.483150  0.761764
    O   O16  0.628520  0.735150  0.507830  -0.447909
    Li  Li8  0.725870  0.761440  0.514100  0.500295
    C   C35  0.648100  0.494180  0.884530  0.416567
    O   O17  0.707860  0.525300  0.944890  -0.522513
    O   O18  0.659750  0.464550  0.784530  -0.170750
    H   H13  0.689280  0.538100  0.029850  0.343104
    C   C36  0.648220  0.494080  0.132930  0.350504
    O   O19  0.711910  0.458170  0.079850  -0.437171
    O   O20  0.656490  0.522970  0.234090  -0.093542
    H   H14  0.694690  0.446730  0.992790  0.269226
