# Generated by REPEAT Assigner based on pymatgen
data_DB1-Zn2O8N2-BDC_A-irmof14_A_No396
_audit_creation_date              2022-05-24
_audit_creation_method            REPEAT_Assigner
_cell_length_a                    25.998500
_cell_length_b                    10.900600
_cell_length_c                    10.017000
_cell_angle_alpha                 90.035800
_cell_angle_beta                  89.875900
_cell_angle_gamma                 89.865000
_cell_volume                      2838.795176
_symmetry_space_group_name_H-M    P1
_symmetry_Int_Tables_number       1
loop_
    _symmetry_equiv_pos_site_id
    _symmetry_equiv_pos_as_xyz
    1  x,y,z
loop_
    _atom_site_type_symbol
    _atom_site_label
    _atom_site_fract_x
    _atom_site_fract_y
    _atom_site_fract_z
    _atom_type_partial_charge
    O   O1   0.500330  0.323080  0.635570  -0.582227
    O   O2   0.500070  0.323100  0.364220  -0.535016
    C   C1   0.500130  0.260750  0.499920  0.526534
    Zn  Zn1  0.500000  0.500020  0.665480  0.991009
    O   O3   0.574160  0.499970  0.364060  -0.598490
    O   O4   0.574200  0.500140  0.635420  -0.580973
    C   C2   0.600330  0.499970  0.499780  0.459617
    O   O5   0.499760  0.676960  0.364430  -0.573187
    O   O6   0.499830  0.676940  0.635780  -0.557282
    C   C3   0.499830  0.739280  0.500080  0.539752
    Zn  Zn2  0.500000  0.500010  0.334510  0.971676
    O   O7   0.425840  0.499820  0.635940  -0.602035
    O   O8   0.425810  0.500110  0.364580  -0.572300
    C   C4   0.399680  0.499650  0.500220  0.535987
    O   O9   0.080530  0.320960  0.364580  -0.590314
    O   O10  0.080790  0.321320  0.635930  -0.541882
    C   C5   0.080780  0.258800  0.500240  0.540838
    Zn  Zn3  0.080720  0.497870  0.334650  0.991676
    O   O11  0.006560  0.498690  0.636070  -0.602513
    O   O12  0.006520  0.498520  0.364710  -0.582578
    C   C6   0.980390  0.498690  0.500350  0.460818
    O   O13  0.080810  0.675180  0.635680  -0.570140
    O   O14  0.080750  0.674820  0.364330  -0.555107
    C   C7   0.080700  0.737340  0.500020  0.533065
    Zn  Zn4  0.080720  0.498270  0.665620  0.981935
    O   O15  0.154880  0.497200  0.364190  -0.606212
    O   O16  0.154910  0.497830  0.635550  -0.576690
    C   C8   0.181040  0.497030  0.499910  0.539453
    N   N1   0.500000  0.500020  0.860170  -0.213646
    N   N2   0.500010  0.500010  0.139830  -0.146387
    C   C9   0.467270  0.577730  0.930810  0.297725
    C   C10  0.532740  0.422300  0.069190  0.259266
    C   C11  0.467270  0.577730  0.069670  -0.004565
    C   C12  0.532740  0.422300  0.930320  0.056737
    H   H1   0.444580  0.631600  0.117750  0.186082
    H   H2   0.555430  0.368430  0.882240  0.160199
    C   C13  0.499910  0.871520  0.500040  -0.170584
    C   C14  0.500050  0.128510  0.499960  -0.148212
    C   C15  0.499910  0.936110  0.380290  0.344023
    C   C16  0.500050  0.063920  0.619720  0.322694
    C   C17  0.499990  0.063720  0.380250  -0.166509
    C   C18  0.499970  0.936310  0.619760  -0.139816
    H   H3   0.499990  0.107680  0.297230  0.187524
    H   H4   0.499970  0.892360  0.702770  0.175895
    C   C19  0.680060  0.499620  0.380980  -0.391123
    C   C20  0.733880  0.499450  0.386880  0.335682
    C   C21  0.763760  0.499270  0.270920  -0.550887
    H   H5   0.663350  0.499630  0.298920  0.243223
    H   H6   0.746920  0.499280  0.188860  0.370763
    C   C22  0.679810  0.499770  0.618820  -0.281222
    C   C23  0.733640  0.499590  0.613080  0.127294
    C   C24  0.763270  0.499560  0.729130  0.133471
    H   H7   0.662930  0.499880  0.700830  0.186756
    C   C25  0.900650  0.499030  0.619150  -0.390497
    C   C26  0.846840  0.499210  0.613250  0.337893
    C   C27  0.816960  0.499380  0.729210  -0.552849
    H   H8   0.917360  0.499030  0.701210  0.242707
    H   H9   0.833800  0.499380  0.811270  0.370983
    C   C28  0.900910  0.498880  0.381310  -0.282487
    C   C29  0.847080  0.499070  0.387050  0.132765
    C   C30  0.817450  0.499090  0.271000  0.129467
    H   H10  0.917790  0.498780  0.299300  0.187694
    C   C31  0.651770  0.499790  0.499850  0.183434
    C   C32  0.764970  0.499410  0.500030  -0.010402
    C   C33  0.928950  0.498860  0.500270  0.183294
    C   C34  0.815750  0.499240  0.500100  -0.018082
    C   C35  0.344230  0.498980  0.500140  -0.133979
    C   C36  0.236490  0.497690  0.499990  -0.134055
    C   C37  0.316990  0.498530  0.619840  0.346599
    C   C38  0.263730  0.498150  0.380290  0.345186
    C   C39  0.263480  0.497890  0.619760  -0.199573
    C   C40  0.317240  0.498790  0.380370  -0.196992
    H   H11  0.244940  0.497580  0.702740  0.201942
    H   H12  0.335780  0.499100  0.297390  0.200467
    N   N3   0.080720  0.497620  0.139960  -0.210564
    N   N4   0.080710  0.497260  0.860300  -0.151799
    C   C41  0.113390  0.575020  0.069310  0.294096
    C   C42  0.048040  0.419860  0.930950  0.264740
    C   C43  0.113390  0.574850  0.930450  -0.001209
    C   C44  0.048040  0.420030  0.069820  0.051705
    H   H13  0.136040  0.628500  0.882360  0.185689
    H   H14  0.025390  0.366380  0.117900  0.161087
    C   C45  0.080520  0.869580  0.500040  -0.158332
    C   C46  0.080170  0.126560  0.500090  -0.163375
    C   C47  0.080460  0.934320  0.619790  0.335732
    C   C48  0.080220  0.061830  0.380340  0.330876
    C   C49  0.080280  0.061930  0.619820  -0.158194
    C   C50  0.080400  0.934220  0.380320  -0.147607
    H   H15  0.080250  0.105990  0.702830  0.187019
    H   H16  0.080440  0.890150  0.297310  0.176701
    O   O17  0.431570  0.662470  0.855710  -0.440553
    H   H17  0.437110  0.649330  0.746730  0.354227
    O   O18  0.568440  0.337560  0.144280  -0.466154
    H   H18  0.562900  0.350700  0.253260  0.358297
    O   O19  0.499840  0.866760  0.249750  -0.614725
    H   H19  0.499790  0.766660  0.270030  0.408728
    O   O20  0.500120  0.133280  0.750250  -0.609028
    H   H20  0.500170  0.233370  0.729970  0.413444
    O   O21  0.345880  0.498740  0.750440  -0.614058
    H   H21  0.387880  0.499260  0.730250  0.431378
    O   O22  0.234840  0.497940  0.249690  -0.614785
    H   H22  0.192840  0.497410  0.269880  0.434628
    O   O23  0.149020  0.659610  0.144400  -0.439072
    H   H23  0.143490  0.646650  0.253380  0.353582
    O   O24  0.012410  0.335270  0.855870  -0.466926
    H   H24  0.017930  0.348230  0.746880  0.359553
    O   O25  0.080580  0.865120  0.750330  -0.613523
    H   H25  0.080720  0.765000  0.730060  0.406999
    O   O26  0.080100  0.131020  0.249810  -0.610737
    H   H26  0.079970  0.231140  0.270070  0.416847
    Br  Br1  0.855360  0.498850  0.088260  -0.203766
    Br  Br2  0.725360  0.499800  0.911870  -0.204234
