data_DB1-Zn2O8N2-ADC_A-irmof14_A_No193_repeat
_audit_creation_date              2024-02-20
_audit_creation_method            'Materials Studio'
_symmetry_space_group_name_H-M    'P1'
_symmetry_Int_Tables_number       1
_symmetry_cell_setting            triclinic
loop_
_symmetry_equiv_pos_as_xyz
  x,y,z
_cell_length_a                    33.4715
_cell_length_b                    22.1282
_cell_length_c                    22.1163
_cell_angle_alpha                 122.2240
_cell_angle_beta                  43.0170
_cell_angle_gamma                 137.0130
loop_
_atom_site_label
_atom_site_type_symbol
_atom_site_fract_x
_atom_site_fract_y
_atom_site_fract_z
_atom_site_U_iso_or_equiv
_atom_site_adp_type
_atom_site_occupancy
O1     O     0.47299   0.49595   0.63119   0.00000  Uiso   1.00
O2     O     0.39884   0.50334   0.62425   0.00000  Uiso   1.00
C1     C     0.41348   0.49977   0.67272   0.00000  Uiso   1.00
Zn1    Zn    0.54537   0.49576   0.50421   0.00000  Uiso   1.00
O3     O     0.39889   0.37577   0.49652   0.00000  Uiso   1.00
O4     O     0.47331   0.36876   0.50332   0.00000  Uiso   1.00
C2     C     0.41358   0.32724   0.49997   0.00000  Uiso   1.00
O5     O     0.52694   0.50388   0.36878   0.00000  Uiso   1.00
O6     O     0.60125   0.49682   0.37572   0.00000  Uiso   1.00
C3     C     0.58657   0.50029   0.32725   0.00000  Uiso   1.00
Zn2    Zn    0.45464   0.50423   0.49576   0.00000  Uiso   1.00
O7     O     0.60103   0.62423   0.50364   0.00000  Uiso   1.00
O8     O     0.52678   0.63123   0.49650   0.00000  Uiso   1.00
C4     C     0.58628   0.67275   0.50031   0.00000  Uiso   1.00
O9     O     0.02673   0.63121   0.49668   0.00000  Uiso   1.00
O10    O     0.10088   0.62426   0.50404   0.00000  Uiso   1.00
C5     C     0.08615   0.67274   0.50072   0.00000  Uiso   1.00
Zn3    Zn    0.95460   0.50423   0.49585   0.00000  Uiso   1.00
O11    O     0.10134   0.49718   0.37582   0.00000  Uiso   1.00
O12    O     0.02691   0.50399   0.36885   0.00000  Uiso   1.00
C6     C     0.08674   0.50086   0.32731   0.00000  Uiso   1.00
O13    O     0.97330   0.36880   0.50328   0.00000  Uiso   1.00
O14    O     0.89898   0.37575   0.49626   0.00000  Uiso   1.00
C7     C     0.91376   0.32727   0.49948   0.00000  Uiso   1.00
Zn4    Zn    0.04535   0.49578   0.50427   0.00000  Uiso   1.00
O15    O     0.89870   0.50301   0.62431   0.00000  Uiso   1.00
O16    O     0.97296   0.49587   0.63127   0.00000  Uiso   1.00
C8     C     0.91336   0.49945   0.67282   0.00000  Uiso   1.00
N1     N     0.90123   0.50921   0.49088   0.00000  Uiso   1.00
C9     C     0.82473   0.45423   0.54559   0.00000  Uiso   1.00
C10    C     0.78632   0.45773   0.54210   0.00000  Uiso   1.00
C11    C     0.82354   0.51658   0.48354   0.00000  Uiso   1.00
C12    C     0.89995   0.57142   0.42898   0.00000  Uiso   1.00
C13    C     0.93829   0.56788   0.43251   0.00000  Uiso   1.00
C14    C     0.78625   0.52391   0.47624   0.00000  Uiso   1.00
C15    C     0.71370   0.47606   0.52385   0.00000  Uiso   1.00
C16    C     0.60000   0.42856   0.57109   0.00000  Uiso   1.00
C17    C     0.67641   0.48339   0.51654   0.00000  Uiso   1.00
C18    C     0.71364   0.54225   0.45797   0.00000  Uiso   1.00
C19    C     0.67523   0.54576   0.45448   0.00000  Uiso   1.00
N2     N     0.59873   0.49078   0.50918   0.00000  Uiso   1.00
C20    C     0.56167   0.43210   0.56756   0.00000  Uiso   1.00
H1     H     0.79481   0.40845   0.59114   0.00000  Uiso   1.00
H2     H     0.72782   0.41402   0.58558   0.00000  Uiso   1.00
H3     H     0.93030   0.61739   0.38324   0.00000  Uiso   1.00
H4     H     0.99711   0.61099   0.38963   0.00000  Uiso   1.00
H5     H     0.56965   0.38259   0.61683   0.00000  Uiso   1.00
H6     H     0.77214   0.58596   0.41449   0.00000  Uiso   1.00
H7     H     0.70516   0.59154   0.40893   0.00000  Uiso   1.00
H8     H     0.50285   0.38900   0.61044   0.00000  Uiso   1.00
N3     N     0.09873   0.49080   0.50922   0.00000  Uiso   1.00
C21    C     0.17522   0.54565   0.45437   0.00000  Uiso   1.00
C22    C     0.21364   0.54216   0.45786   0.00000  Uiso   1.00
C23    C     0.17643   0.48345   0.51657   0.00000  Uiso   1.00
C24    C     0.10002   0.42875   0.57127   0.00000  Uiso   1.00
C25    C     0.06167   0.43228   0.56774   0.00000  Uiso   1.00
C26    C     0.21373   0.47614   0.52387   0.00000  Uiso   1.00
C27    C     0.28628   0.52388   0.47613   0.00000  Uiso   1.00
C28    C     0.39998   0.57126   0.42875   0.00000  Uiso   1.00
C29    C     0.32357   0.51656   0.48344   0.00000  Uiso   1.00
C30    C     0.28635   0.45785   0.54215   0.00000  Uiso   1.00
C31    C     0.32477   0.45436   0.54564   0.00000  Uiso   1.00
N4     N     0.40127   0.50920   0.49080   0.00000  Uiso   1.00
C32    C     0.43832   0.56772   0.43227   0.00000  Uiso   1.00
H9     H     0.20514   0.59131   0.40871   0.00000  Uiso   1.00
H10    H     0.27215   0.58575   0.41426   0.00000  Uiso   1.00
H11    H     0.06968   0.38290   0.61712   0.00000  Uiso   1.00
H12    H     0.00285   0.38929   0.61074   0.00000  Uiso   1.00
H13    H     0.43033   0.61711   0.38290   0.00000  Uiso   1.00
H14    H     0.22785   0.41425   0.58576   0.00000  Uiso   1.00
H15    H     0.29485   0.40869   0.59131   0.00000  Uiso   1.00
H16    H     0.49715   0.61072   0.38928   0.00000  Uiso   1.00
C33    C     0.62241   0.50321   0.18721   0.00000  Uiso   1.00
C34    C     0.67028   0.50294   0.09467   0.00000  Uiso   1.00
C35    C     0.66406   0.50589   0.04055   0.00000  Uiso   1.00
H17    H     0.58547   0.50538   0.21408   0.00000  Uiso   1.00
H18    H     0.62701   0.50806   0.06765   0.00000  Uiso   1.00
C36    C     0.68763   0.49702   0.19313   0.00000  Uiso   1.00
C37    C     0.73231   0.49705   0.10031   0.00000  Uiso   1.00
C38    C     0.78970   0.49397   0.05197   0.00000  Uiso   1.00
H19    H     0.69568   0.49493   0.22410   0.00000  Uiso   1.00
C39    C     0.87752   0.49653   0.81286   0.00000  Uiso   1.00
C40    C     0.82964   0.49680   0.90539   0.00000  Uiso   1.00
C41    C     0.83587   0.49385   0.95952   0.00000  Uiso   1.00
H20    H     0.91445   0.49436   0.78598   0.00000  Uiso   1.00
H21    H     0.87292   0.49168   0.93241   0.00000  Uiso   1.00
C42    C     0.81230   0.50272   0.80693   0.00000  Uiso   1.00
C43    C     0.76762   0.50269   0.89975   0.00000  Uiso   1.00
C44    C     0.71022   0.50577   0.94810   0.00000  Uiso   1.00
H22    H     0.80424   0.50482   0.77597   0.00000  Uiso   1.00
C45    C     0.63080   0.50018   0.23867   0.00000  Uiso   1.00
C46    C     0.72813   0.49993   0.04375   0.00000  Uiso   1.00
C47    C     0.86913   0.49956   0.76139   0.00000  Uiso   1.00
C48    C     0.77179   0.49982   0.95631   0.00000  Uiso   1.00
C49    C     0.31261   0.50341   0.80684   0.00000  Uiso   1.00
C50    C     0.26800   0.50352   0.89967   0.00000  Uiso   1.00
C51    C     0.21072   0.50683   0.94802   0.00000  Uiso   1.00
H23    H     0.30458   0.50556   0.77589   0.00000  Uiso   1.00
H24    H     0.20280   0.50898   0.91683   0.00000  Uiso   1.00
C52    C     0.37769   0.49693   0.81276   0.00000  Uiso   1.00
C53    C     0.32989   0.49736   0.90529   0.00000  Uiso   1.00
C54    C     0.33610   0.49435   0.95941   0.00000  Uiso   1.00
H25    H     0.41455   0.49461   0.78588   0.00000  Uiso   1.00
C55    C     0.18812   0.49803   0.19303   0.00000  Uiso   1.00
C56    C     0.23272   0.49792   0.10021   0.00000  Uiso   1.00
C57    C     0.29001   0.49461   0.05186   0.00000  Uiso   1.00
H26    H     0.19615   0.49588   0.22399   0.00000  Uiso   1.00
H27    H     0.29792   0.49246   0.08305   0.00000  Uiso   1.00
C58    C     0.12304   0.50451   0.18712   0.00000  Uiso   1.00
C59    C     0.17083   0.50408   0.09459   0.00000  Uiso   1.00
C60    C     0.16463   0.50709   0.04047   0.00000  Uiso   1.00
H28    H     0.08618   0.50683   0.21400   0.00000  Uiso   1.00
C61    C     0.36933   0.50003   0.76130   0.00000  Uiso   1.00
C62    C     0.27216   0.50059   0.95622   0.00000  Uiso   1.00
C63    C     0.13140   0.50141   0.23858   0.00000  Uiso   1.00
C64    C     0.22857   0.50085   0.04366   0.00000  Uiso   1.00
C65    C     0.31226   0.19297   0.49714   0.00000  Uiso   1.00
C66    C     0.26749   0.10015   0.49739   0.00000  Uiso   1.00
C67    C     0.20993   0.05166   0.49454   0.00000  Uiso   1.00
H29    H     0.30415   0.22384   0.49505   0.00000  Uiso   1.00
H30    H     0.20193   0.08276   0.49246   0.00000  Uiso   1.00
C68    C     0.37773   0.18732   0.50311   0.00000  Uiso   1.00
C69    C     0.32975   0.09477   0.50307   0.00000  Uiso   1.00
C70    C     0.33605   0.04078   0.50603   0.00000  Uiso   1.00
H31    H     0.41478   0.21429   0.50513   0.00000  Uiso   1.00
C71    C     0.18747   0.80701   0.50354   0.00000  Uiso   1.00
C72    C     0.23223   0.89983   0.50329   0.00000  Uiso   1.00
C73    C     0.28980   0.94832   0.50614   0.00000  Uiso   1.00
H32    H     0.19558   0.77614   0.50563   0.00000  Uiso   1.00
H33    H     0.29780   0.91722   0.50823   0.00000  Uiso   1.00
C74    C     0.12200   0.81266   0.49758   0.00000  Uiso   1.00
C75    C     0.16997   0.90521   0.49762   0.00000  Uiso   1.00
C76    C     0.16367   0.95921   0.49465   0.00000  Uiso   1.00
H34    H     0.08495   0.78569   0.49555   0.00000  Uiso   1.00
C77    C     0.36926   0.23865   0.50007   0.00000  Uiso   1.00
C78    C     0.27174   0.04372   0.50029   0.00000  Uiso   1.00
C79    C     0.13047   0.76133   0.50061   0.00000  Uiso   1.00
C80    C     0.22799   0.95627   0.50039   0.00000  Uiso   1.00
C81    C     0.62177   0.81267   0.49791   0.00000  Uiso   1.00
C82    C     0.66944   0.90522   0.49855   0.00000  Uiso   1.00
C83    C     0.66304   0.95921   0.49577   0.00000  Uiso   1.00
H35    H     0.58486   0.78570   0.49559   0.00000  Uiso   1.00
H36    H     0.62603   0.93202   0.49346   0.00000  Uiso   1.00
C84    C     0.68709   0.80701   0.50416   0.00000  Uiso   1.00
C85    C     0.73156   0.89983   0.50450   0.00000  Uiso   1.00
C86    C     0.78888   0.94831   0.50782   0.00000  Uiso   1.00
H37    H     0.69524   0.77614   0.50617   0.00000  Uiso   1.00
C87    C     0.87612   0.18731   0.50617   0.00000  Uiso   1.00
C88    C     0.82845   0.09477   0.50553   0.00000  Uiso   1.00
C89    C     0.83484   0.04077   0.50831   0.00000  Uiso   1.00
H38    H     0.91302   0.21428   0.50849   0.00000  Uiso   1.00
H39    H     0.87186   0.06797   0.51062   0.00000  Uiso   1.00
C90    C     0.81080   0.19297   0.49992   0.00000  Uiso   1.00
C91    C     0.76633   0.10015   0.49958   0.00000  Uiso   1.00
C92    C     0.70900   0.05167   0.49626   0.00000  Uiso   1.00
H40    H     0.80265   0.22384   0.49791   0.00000  Uiso   1.00
C93    C     0.63032   0.76134   0.50078   0.00000  Uiso   1.00
C94    C     0.72721   0.95627   0.50181   0.00000  Uiso   1.00
C95    C     0.86757   0.23865   0.50330   0.00000  Uiso   1.00
C96    C     0.77067   0.04371   0.50227   0.00000  Uiso   1.00
C97    C     0.83701   0.59273   0.40777   0.00000  Uiso   1.00
H41    H     0.82783   0.63640   0.43756   0.00000  Uiso   1.00
H42    H     0.88675   0.62114   0.37931   0.00000  Uiso   1.00
H43    H     0.82782   0.56319   0.36409   0.00000  Uiso   1.00
C98    C     0.66294   0.40724   0.59231   0.00000  Uiso   1.00
H44    H     0.67197   0.43682   0.63614   0.00000  Uiso   1.00
H45    H     0.61320   0.37864   0.62058   0.00000  Uiso   1.00
H46    H     0.67226   0.36372   0.56256   0.00000  Uiso   1.00
C99    C     0.16298   0.40750   0.59251   0.00000  Uiso   1.00
H47    H     0.17210   0.43719   0.63625   0.00000  Uiso   1.00
H48    H     0.11324   0.37897   0.62086   0.00000  Uiso   1.00
H49    H     0.17222   0.36390   0.56286   0.00000  Uiso   1.00
C100   C     0.33703   0.59252   0.40749   0.00000  Uiso   1.00
H50    H     0.32795   0.63627   0.43718   0.00000  Uiso   1.00
H51    H     0.38678   0.62086   0.37896   0.00000  Uiso   1.00
H52    H     0.32776   0.56287   0.36390   0.00000  Uiso   1.00
O17    O     0.69917   0.50869   0.90466   0.00000  Uiso   1.00
Li1    Li    0.63657   0.51294   0.93721   0.00000  Uiso   1.00
O18    O     0.80076   0.49105   0.09540   0.00000  Uiso   1.00
Li2    Li    0.86335   0.48680   0.06286   0.00000  Uiso   1.00
O19    O     0.11314   0.51032   0.07821   0.00000  Uiso   1.00
Li3    Li    0.08714   0.51462   0.03762   0.00000  Uiso   1.00
O20    O     0.38758   0.49112   0.92167   0.00000  Uiso   1.00
Li4    Li    0.41359   0.48682   0.96226   0.00000  Uiso   1.00
O21    O     0.11192   0.92133   0.49183   0.00000  Uiso   1.00
Li5    Li    0.08572   0.96175   0.48774   0.00000  Uiso   1.00
O22    O     0.38780   0.07865   0.50885   0.00000  Uiso   1.00
Li6    Li    0.41401   0.03824   0.51294   0.00000  Uiso   1.00
O23    O     0.69780   0.09498   0.49347   0.00000  Uiso   1.00
Li7    Li    0.63522   0.06225   0.48902   0.00000  Uiso   1.00
O24    O     0.80008   0.90501   0.51061   0.00000  Uiso   1.00
Li8    Li    0.86266   0.93774   0.51506   0.00000  Uiso   1.00
