data_DB1-Cu2O8N2-DPAC_A-fum_A_No277_repeat
_audit_creation_date              2024-02-23
_audit_creation_method            'Materials Studio'
_symmetry_space_group_name_H-M    'P1'
_symmetry_Int_Tables_number       1
_symmetry_cell_setting            triclinic
loop_
_symmetry_equiv_pos_as_xyz
  x,y,z
_cell_length_a                    26.0847
_cell_length_b                    15.8500
_cell_length_c                    17.3722
_cell_angle_alpha                 89.9944
_cell_angle_beta                  89.8685
_cell_angle_gamma                 87.6069
loop_
_atom_site_label
_atom_site_type_symbol
_atom_site_fract_x
_atom_site_fract_y
_atom_site_fract_z
_atom_site_U_iso_or_equiv
_atom_site_adp_type
_atom_site_occupancy
Cu1    Cu    0.50001   0.41971   0.50000   0.00000  Uiso   1.00
Cu2    Cu    0.50000   0.58029   0.49999   0.00000  Uiso   1.00
O1     O     0.56672   0.42055   0.49998   0.00000  Uiso   1.00
O2     O     0.43315   0.42971   0.50024   0.00000  Uiso   1.00
O3     O     0.49987   0.42513   0.60030   0.00000  Uiso   1.00
O4     O     0.50001   0.42513   0.39992   0.00000  Uiso   1.00
O5     O     0.50012   0.57488   0.39969   0.00000  Uiso   1.00
O6     O     0.50002   0.57487   0.60007   0.00000  Uiso   1.00
O7     O     0.43323   0.57946   0.50012   0.00000  Uiso   1.00
O8     O     0.56685   0.57029   0.49972   0.00000  Uiso   1.00
C1     C     0.59624   0.49340   0.49983   0.00000  Uiso   1.00
C2     C     0.40377   0.50660   0.50016   0.00000  Uiso   1.00
C3     C     0.49995   0.49999   0.64436   0.00000  Uiso   1.00
C4     C     0.50006   0.50001   0.35563   0.00000  Uiso   1.00
Cu3    Cu    0.83343   0.62597   0.49940   0.00000  Uiso   1.00
Cu4    Cu    0.83344   0.46539   0.49994   0.00000  Uiso   1.00
O9     O     0.76671   0.62514   0.49948   0.00000  Uiso   1.00
O10    O     0.90028   0.61598   0.49958   0.00000  Uiso   1.00
O11    O     0.83332   0.62097   0.59972   0.00000  Uiso   1.00
O12    O     0.83368   0.62014   0.39934   0.00000  Uiso   1.00
O13    O     0.83357   0.47040   0.39962   0.00000  Uiso   1.00
O14    O     0.83317   0.47122   0.60000   0.00000  Uiso   1.00
O15    O     0.90021   0.46623   0.49997   0.00000  Uiso   1.00
O16    O     0.76658   0.47539   0.49974   0.00000  Uiso   1.00
C5     C     0.73720   0.55228   0.49963   0.00000  Uiso   1.00
C6     C     0.92966   0.53908   0.49971   0.00000  Uiso   1.00
C7     C     0.83313   0.54628   0.64404   0.00000  Uiso   1.00
C8     C     0.83373   0.54509   0.35530   0.00000  Uiso   1.00
N1     N     0.50001   0.30038   0.50000   0.00000  Uiso   1.00
C9     C     0.46707   0.25618   0.54947   0.00000  Uiso   1.00
C10    C     0.46697   0.16734   0.54962   0.00000  Uiso   1.00
C11    C     0.50000   0.12006   0.50000   0.00000  Uiso   1.00
C12    C     0.53304   0.16280   0.45037   0.00000  Uiso   1.00
C13    C     0.53295   0.25165   0.45052   0.00000  Uiso   1.00
C14    C     0.49999   0.03772   0.50000   0.00000  Uiso   1.00
C15    C     0.49999   0.96228   0.50000   0.00000  Uiso   1.00
C16    C     0.49999   0.87995   0.49999   0.00000  Uiso   1.00
C17    C     0.46694   0.83719   0.54960   0.00000  Uiso   1.00
C18    C     0.46704   0.74834   0.54945   0.00000  Uiso   1.00
N2     N     0.49999   0.69962   0.49999   0.00000  Uiso   1.00
C19    C     0.53294   0.74383   0.45053   0.00000  Uiso   1.00
C20    C     0.53304   0.83266   0.45039   0.00000  Uiso   1.00
H1     H     0.44265   0.28869   0.58615   0.00000  Uiso   1.00
H2     H     0.44259   0.13784   0.58623   0.00000  Uiso   1.00
H3     H     0.55741   0.12996   0.41376   0.00000  Uiso   1.00
H4     H     0.44256   0.87003   0.58620   0.00000  Uiso   1.00
H5     H     0.55737   0.71132   0.41386   0.00000  Uiso   1.00
H6     H     0.55742   0.86217   0.41379   0.00000  Uiso   1.00
C21    C     0.50004   0.50000   0.27406   0.00000  Uiso   1.00
C22    C     0.49997   0.42345   0.23168   0.00000  Uiso   1.00
C23    C     0.49996   0.42322   0.15062   0.00000  Uiso   1.00
C24    C     0.50001   0.49999   0.10953   0.00000  Uiso   1.00
C25    C     0.50008   0.57677   0.15059   0.00000  Uiso   1.00
C26    C     0.50010   0.57655   0.23165   0.00000  Uiso   1.00
C27    C     0.50000   0.49999   0.03441   0.00000  Uiso   1.00
C28    C     0.49999   0.49998   0.96558   0.00000  Uiso   1.00
C29    C     0.49997   0.49999   0.89046   0.00000  Uiso   1.00
C30    C     0.49989   0.42321   0.84939   0.00000  Uiso   1.00
C31    C     0.49988   0.42344   0.76833   0.00000  Uiso   1.00
C32    C     0.49995   0.49999   0.72593   0.00000  Uiso   1.00
C33    C     0.50003   0.57654   0.76832   0.00000  Uiso   1.00
C34    C     0.50004   0.57676   0.84938   0.00000  Uiso   1.00
H7     H     0.49994   0.36670   0.25982   0.00000  Uiso   1.00
H8     H     0.49991   0.36657   0.12219   0.00000  Uiso   1.00
H9     H     0.50012   0.63342   0.12214   0.00000  Uiso   1.00
H10    H     0.49984   0.36656   0.87784   0.00000  Uiso   1.00
H11    H     0.50008   0.63329   0.74019   0.00000  Uiso   1.00
H12    H     0.50010   0.63341   0.87782   0.00000  Uiso   1.00
C35    C     0.68070   0.55731   0.49966   0.00000  Uiso   1.00
C36    C     0.65273   0.48838   0.49980   0.00000  Uiso   1.00
C37    C     0.98404   0.53536   0.49977   0.00000  Uiso   1.00
C38    C     0.01229   0.60998   0.49972   0.00000  Uiso   1.00
C39    C     0.06632   0.60651   0.49977   0.00000  Uiso   1.00
C40    C     0.09370   0.52785   0.49988   0.00000  Uiso   1.00
C41    C     0.06633   0.45295   0.49994   0.00000  Uiso   1.00
C42    C     0.01230   0.45687   0.49989   0.00000  Uiso   1.00
C43    C     0.14378   0.52443   0.49993   0.00000  Uiso   1.00
C44    C     0.18966   0.52129   0.49998   0.00000  Uiso   1.00
C45    C     0.23973   0.51785   0.50002   0.00000  Uiso   1.00
C46    C     0.26711   0.59276   0.49999   0.00000  Uiso   1.00
C47    C     0.32114   0.58882   0.50004   0.00000  Uiso   1.00
C48    C     0.34940   0.51033   0.50012   0.00000  Uiso   1.00
C49    C     0.32114   0.43572   0.50016   0.00000  Uiso   1.00
C50    C     0.26711   0.43919   0.50011   0.00000  Uiso   1.00
H13    H     0.99353   0.66802   0.49964   0.00000  Uiso   1.00
H14    H     0.08527   0.66187   0.49973   0.00000  Uiso   1.00
H15    H     0.08530   0.39500   0.50002   0.00000  Uiso   1.00
H16    H     0.24814   0.65071   0.49993   0.00000  Uiso   1.00
H17    H     0.33990   0.37768   0.50022   0.00000  Uiso   1.00
H18    H     0.24816   0.38384   0.50014   0.00000  Uiso   1.00
N3     N     0.83342   0.74531   0.50243   0.00000  Uiso   1.00
C51    C     0.86624   0.78971   0.55170   0.00000  Uiso   1.00
C52    C     0.86634   0.87855   0.55154   0.00000  Uiso   1.00
C53    C     0.83343   0.92563   0.50180   0.00000  Uiso   1.00
C54    C     0.80052   0.88268   0.45238   0.00000  Uiso   1.00
C55    C     0.80061   0.79383   0.45283   0.00000  Uiso   1.00
C56    C     0.83344   0.00797   0.50152   0.00000  Uiso   1.00
C57    C     0.83344   0.08340   0.50126   0.00000  Uiso   1.00
C58    C     0.83344   0.16574   0.50097   0.00000  Uiso   1.00
C59    C     0.86637   0.20870   0.55038   0.00000  Uiso   1.00
C60    C     0.86627   0.29755   0.54993   0.00000  Uiso   1.00
N4     N     0.83344   0.34606   0.50035   0.00000  Uiso   1.00
C61    C     0.80062   0.30166   0.45109   0.00000  Uiso   1.00
C62    C     0.80052   0.21282   0.45125   0.00000  Uiso   1.00
H19    H     0.89056   0.75735   0.58845   0.00000  Uiso   1.00
H20    H     0.89063   0.90819   0.58801   0.00000  Uiso   1.00
H21    H     0.77623   0.91538   0.41569   0.00000  Uiso   1.00
H22    H     0.89066   0.17600   0.58706   0.00000  Uiso   1.00
H23    H     0.77628   0.33401   0.41435   0.00000  Uiso   1.00
H24    H     0.77623   0.18317   0.41479   0.00000  Uiso   1.00
C63    C     0.83145   0.54884   0.27373   0.00000  Uiso   1.00
C64    C     0.83163   0.62522   0.23108   0.00000  Uiso   1.00
C65    C     0.83185   0.62512   0.15002   0.00000  Uiso   1.00
C66    C     0.83190   0.54818   0.10920   0.00000  Uiso   1.00
C67    C     0.83173   0.47157   0.15053   0.00000  Uiso   1.00
C68    C     0.83151   0.47212   0.23159   0.00000  Uiso   1.00
C69    C     0.83210   0.54788   0.03408   0.00000  Uiso   1.00
C70    C     0.83228   0.54761   0.96525   0.00000  Uiso   1.00
C71    C     0.83248   0.54729   0.89013   0.00000  Uiso   1.00
C72    C     0.83267   0.62390   0.84880   0.00000  Uiso   1.00
C73    C     0.83288   0.62334   0.76774   0.00000  Uiso   1.00
C74    C     0.83292   0.54662   0.72561   0.00000  Uiso   1.00
C75    C     0.83273   0.47024   0.76826   0.00000  Uiso   1.00
C76    C     0.83252   0.47035   0.84932   0.00000  Uiso   1.00
H25    H     0.83160   0.68209   0.25903   0.00000  Uiso   1.00
H26    H     0.83197   0.68166   0.12140   0.00000  Uiso   1.00
H27    H     0.83176   0.41481   0.12227   0.00000  Uiso   1.00
H28    H     0.83265   0.68067   0.87705   0.00000  Uiso   1.00
H29    H     0.83275   0.41338   0.74032   0.00000  Uiso   1.00
H30    H     0.83239   0.41382   0.87795   0.00000  Uiso   1.00
O17    O     0.56391   0.28862   0.40402   0.00000  Uiso   1.00
Li1    Li    0.60796   0.25136   0.33785   0.00000  Uiso   1.00
O18    O     0.43607   0.71137   0.59594   0.00000  Uiso   1.00
Li2    Li    0.39200   0.74862   0.66208   0.00000  Uiso   1.00
O19    O     0.50016   0.64851   0.26731   0.00000  Uiso   1.00
Li3    Li    0.50023   0.75088   0.23606   0.00000  Uiso   1.00
O20    O     0.49980   0.35149   0.73267   0.00000  Uiso   1.00
Li4    Li    0.49970   0.24911   0.76391   0.00000  Uiso   1.00
O21    O     0.98853   0.38654   0.49994   0.00000  Uiso   1.00
Li5    Li    0.00936   0.28273   0.50008   0.00000  Uiso   1.00
O22    O     0.34491   0.65915   0.50000   0.00000  Uiso   1.00
Li6    Li    0.32409   0.76296   0.49990   0.00000  Uiso   1.00
O23    O     0.76976   0.75668   0.40650   0.00000  Uiso   1.00
Li7    Li    0.72588   0.79366   0.34027   0.00000  Uiso   1.00
O24    O     0.89713   0.33471   0.59624   0.00000  Uiso   1.00
Li8    Li    0.94103   0.29773   0.66245   0.00000  Uiso   1.00
O25    O     0.83136   0.40031   0.26749   0.00000  Uiso   1.00
Li9    Li    0.83136   0.29781   0.23660   0.00000  Uiso   1.00
O26    O     0.83305   0.69515   0.73183   0.00000  Uiso   1.00
Li10   Li    0.83307   0.79765   0.76272   0.00000  Uiso   1.00
C77    C     0.65361   0.64640   0.49953   0.00000  Uiso   1.00
H31    H     0.66349   0.67655   0.45429   0.00000  Uiso   1.00
H32    H     0.61710   0.64092   0.49968   0.00000  Uiso   1.00
H33    H     0.66350   0.67682   0.54453   0.00000  Uiso   1.00
C78    C     0.67982   0.39928   0.49993   0.00000  Uiso   1.00
H34    H     0.67006   0.36895   0.45481   0.00000  Uiso   1.00
H35    H     0.71634   0.40476   0.50001   0.00000  Uiso   1.00
H36    H     0.66982   0.36904   0.54505   0.00000  Uiso   1.00
