# Generated by REPEAT Assigner based on pymatgen
data_DB1-Zn2O8-fum_A-irmof20_A_No77
_audit_creation_date              2022-05-24
_audit_creation_method            REPEAT_Assigner
_cell_length_a                    12.701400
_cell_length_b                    17.781100
_cell_length_c                    10.000000
_cell_angle_alpha                 90.000000
_cell_angle_beta                  90.000000
_cell_angle_gamma                 89.865100
_cell_volume                      2258.442376
_symmetry_space_group_name_H-M    P1
_symmetry_Int_Tables_number       1
loop_
    _symmetry_equiv_pos_site_id
    _symmetry_equiv_pos_as_xyz
    1  x,y,z
loop_
    _atom_site_type_symbol
    _atom_site_label
    _atom_site_fract_x
    _atom_site_fract_y
    _atom_site_fract_z
    _atom_type_partial_charge
    O   O1   0.348090  0.500650  0.635790  -0.503517
    O   O2   0.348250  0.499980  0.363980  -0.611209
    C   C1   0.294670  0.500210  0.499910  0.353064
    Zn  Zn1  0.499930  0.500180  0.665770  1.234609
    O   O3   0.500070  0.608290  0.363880  -0.459909
    O   O4   0.500080  0.608630  0.635700  -0.567302
    C   C2   0.500010  0.646690  0.499850  0.299198
    O   O5   0.651940  0.499490  0.364210  -0.553975
    O   O6   0.651780  0.499880  0.636020  -0.367957
    C   C3   0.705360  0.499730  0.500090  0.244176
    Zn  Zn2  0.500100  0.499830  0.334230  1.226480
    O   O7   0.499740  0.391710  0.636120  -0.585911
    O   O8   0.500130  0.391370  0.364300  -0.453972
    C   C4   0.499660  0.353310  0.500150  0.269274
    O   O9   0.347240  0.999650  0.255610  -0.502820
    O   O10  0.347400  0.000320  0.527420  -0.610408
    C   C5   0.293820  0.000180  0.391490  0.347668
    Zn  Zn3  0.499080  0.999880  0.225630  1.234793
    O   O11  0.499590  0.891770  0.527510  -0.460064
    O   O12  0.499590  0.891430  0.255700  -0.567069
    C   C6   0.499660  0.853370  0.391550  0.300586
    O   O13  0.651090  0.000320  0.527180  -0.553087
    O   O14  0.650920  0.999930  0.255370  -0.367062
    C   C7   0.704510  0.000000  0.391290  0.240583
    Zn  Zn4  0.499250  0.000230  0.557160  1.226927
    O   O15  0.498520  0.108350  0.255280  -0.587365
    O   O16  0.498910  0.108690  0.527090  -0.454972
    C   C8   0.498310  0.146750  0.391240  0.272667
    C   C9   0.499800  0.770560  0.389580  0.103455
    C   C10  0.499870  0.729500  0.501810  0.104568
    C   C11  0.498910  0.229560  0.389520  0.109631
    C   C12  0.499050  0.270500  0.501870  0.108807
    C   C13  0.891120  0.500030  0.606110  -0.211494
    S   S1   0.886200  0.499660  0.346960  0.112377
    C   C14  0.108910  0.499910  0.393900  -0.254442
    H   H1   0.130950  0.499800  0.305160  0.230154
    S   S2   0.113830  0.500280  0.653040  0.053245
    C   C15  0.822840  0.499820  0.500060  0.128979
    C   C16  0.177190  0.500120  0.499950  0.102245
    C   C17  0.000000  0.499870  0.431650  0.063450
    C   C18  0.000030  0.500070  0.568350  -0.043659
    C   C19  0.890270  0.999390  0.285270  -0.208354
    S   S3   0.885360  0.999770  0.544420  0.112435
    C   C20  0.108060  0.999160  0.497470  -0.254881
    H   H2   0.130100  0.999230  0.586220  0.230252
    S   S4   0.112970  0.998780  0.238330  0.053222
    C   C21  0.821990  0.999710  0.391320  0.129679
    C   C22  0.176340  0.998840  0.391420  0.106482
    C   C23  0.999150  0.999370  0.459720  0.062667
    C   C24  0.999180  0.999180  0.323030  -0.045406
    Cl  Cl1  0.499870  0.725630  0.232750  0.009540
    Cl  Cl2  0.499800  0.774420  0.658640  0.009585
    Cl  Cl3  0.499470  0.274620  0.232820  0.011508
    Cl  Cl4  0.498500  0.225440  0.658570  0.011801
    C   C25  0.855160  0.500210  0.750890  0.655247
    O   O17  0.914460  0.467540  0.843580  -0.466253
    O   O18  0.770080  0.528870  0.781170  -0.441014
    H   H3   0.985540  0.455640  0.802350  0.312973
    C   C26  0.854310  0.999270  0.140490  0.653532
    O   O19  0.913490  0.031850  0.047800  -0.465368
    O   O20  0.769320  0.970750  0.110210  -0.440939
    H   H4   0.984530  0.043630  0.089020  0.312553
