data_DB1-Zn2O8N2-irmof10_A-irmof8_A_No400_repeat
_audit_creation_date              2024-02-20
_audit_creation_method            'Materials Studio'
_symmetry_space_group_name_H-M    'P1'
_symmetry_Int_Tables_number       1
_symmetry_cell_setting            triclinic
loop_
_symmetry_equiv_pos_as_xyz
  x,y,z
_cell_length_a                    13.1908
_cell_length_b                    28.3365
_cell_length_c                    14.2624
_cell_angle_alpha                 90.0417
_cell_angle_beta                  89.8742
_cell_angle_gamma                 89.7895
loop_
_atom_site_label
_atom_site_type_symbol
_atom_site_fract_x
_atom_site_fract_y
_atom_site_fract_z
_atom_site_U_iso_or_equiv
_atom_site_adp_type
_atom_site_occupancy
O1     O     0.50094   0.43194   0.59520   0.00000  Uiso   1.00
O2     O     0.50043   0.43195   0.40462   0.00000  Uiso   1.00
C1     C     0.50063   0.40797   0.49993   0.00000  Uiso   1.00
Zn1    Zn    0.50000   0.50001   0.61623   0.00000  Uiso   1.00
O3     O     0.64617   0.50003   0.40452   0.00000  Uiso   1.00
O4     O     0.64624   0.50009   0.59511   0.00000  Uiso   1.00
C2     C     0.69774   0.50004   0.49984   0.00000  Uiso   1.00
O5     O     0.49926   0.56807   0.40480   0.00000  Uiso   1.00
O6     O     0.49939   0.56806   0.59537   0.00000  Uiso   1.00
C3     C     0.49929   0.59205   0.50008   0.00000  Uiso   1.00
Zn2    Zn    0.50001   0.50001   0.38377   0.00000  Uiso   1.00
O7     O     0.35383   0.49989   0.59548   0.00000  Uiso   1.00
O8     O     0.35377   0.50000   0.40489   0.00000  Uiso   1.00
C4     C     0.30227   0.49981   0.50016   0.00000  Uiso   1.00
O9     O     0.50008   0.03357   0.40484   0.00000  Uiso   1.00
O10    O     0.49983   0.03356   0.59542   0.00000  Uiso   1.00
C5     C     0.49984   0.05754   0.50012   0.00000  Uiso   1.00
Zn3    Zn    0.49928   0.96550   0.38382   0.00000  Uiso   1.00
O11    O     0.64574   0.96506   0.59476   0.00000  Uiso   1.00
O12    O     0.64555   0.96499   0.40418   0.00000  Uiso   1.00
C6     C     0.69718   0.96490   0.49917   0.00000  Uiso   1.00
O13    O     0.49899   0.89744   0.59525   0.00000  Uiso   1.00
O14    O     0.49886   0.89745   0.40468   0.00000  Uiso   1.00
C7     C     0.49895   0.87346   0.49997   0.00000  Uiso   1.00
Zn4    Zn    0.49960   0.96550   0.61627   0.00000  Uiso   1.00
O15    O     0.35314   0.96604   0.40533   0.00000  Uiso   1.00
O16    O     0.35333   0.96593   0.59592   0.00000  Uiso   1.00
C8     C     0.30171   0.96627   0.50092   0.00000  Uiso   1.00
N1     N     0.50000   0.50001   0.75296   0.00000  Uiso   1.00
N2     N     0.50002   0.50000   0.24704   0.00000  Uiso   1.00
C9     C     0.43536   0.52988   0.80258   0.00000  Uiso   1.00
C10    C     0.43476   0.53016   0.90091   0.00000  Uiso   1.00
C11    C     0.56466   0.47013   0.19742   0.00000  Uiso   1.00
C12    C     0.56526   0.46985   0.09909   0.00000  Uiso   1.00
C13    C     0.43538   0.52988   0.19777   0.00000  Uiso   1.00
C14    C     0.43477   0.53016   0.09945   0.00000  Uiso   1.00
C15    C     0.56465   0.47013   0.80222   0.00000  Uiso   1.00
C16    C     0.56525   0.46985   0.90055   0.00000  Uiso   1.00
C17    C     0.50001   0.50001   0.95046   0.00000  Uiso   1.00
C18    C     0.50001   0.50001   0.04954   0.00000  Uiso   1.00
H1     H     0.39055   0.55060   0.76905   0.00000  Uiso   1.00
H2     H     0.60948   0.44941   0.23095   0.00000  Uiso   1.00
H3     H     0.39057   0.55059   0.23155   0.00000  Uiso   1.00
H4     H     0.38978   0.55096   0.06633   0.00000  Uiso   1.00
H5     H     0.60946   0.44942   0.76845   0.00000  Uiso   1.00
H6     H     0.61025   0.44905   0.93367   0.00000  Uiso   1.00
C19    C     0.49901   0.78933   0.43138   0.00000  Uiso   1.00
C20    C     0.49910   0.80703   0.59548   0.00000  Uiso   1.00
C21    C     0.49917   0.75915   0.62086   0.00000  Uiso   1.00
C22    C     0.49917   0.72534   0.54747   0.00000  Uiso   1.00
C23    C     0.49924   0.67619   0.56867   0.00000  Uiso   1.00
C24    C     0.49915   0.65848   0.40457   0.00000  Uiso   1.00
C25    C     0.49907   0.70636   0.37919   0.00000  Uiso   1.00
C26    C     0.49908   0.74017   0.45258   0.00000  Uiso   1.00
C27    C     0.49902   0.82121   0.49999   0.00000  Uiso   1.00
C28    C     0.49923   0.64430   0.50006   0.00000  Uiso   1.00
H7     H     0.49897   0.80033   0.35800   0.00000  Uiso   1.00
H8     H     0.49911   0.83378   0.64956   0.00000  Uiso   1.00
H9     H     0.49928   0.66518   0.64205   0.00000  Uiso   1.00
H10    H     0.49914   0.63173   0.35050   0.00000  Uiso   1.00
C29    C     0.50051   0.35709   0.49995   0.00000  Uiso   1.00
C30    C     0.49996   0.10841   0.50009   0.00000  Uiso   1.00
C31    C     0.50068   0.33225   0.58406   0.00000  Uiso   1.00
C32    C     0.50057   0.28276   0.58487   0.00000  Uiso   1.00
C33    C     0.49979   0.13326   0.41598   0.00000  Uiso   1.00
C34    C     0.49990   0.18275   0.41517   0.00000  Uiso   1.00
C35    C     0.50024   0.13334   0.58417   0.00000  Uiso   1.00
C36    C     0.50035   0.18283   0.58493   0.00000  Uiso   1.00
C37    C     0.50023   0.33217   0.41587   0.00000  Uiso   1.00
C38    C     0.50012   0.28267   0.41512   0.00000  Uiso   1.00
C39    C     0.50029   0.25769   0.50001   0.00000  Uiso   1.00
C40    C     0.50018   0.20782   0.50004   0.00000  Uiso   1.00
H11    H     0.50088   0.34922   0.64235   0.00000  Uiso   1.00
H12    H     0.49959   0.11629   0.35770   0.00000  Uiso   1.00
H13    H     0.50036   0.11643   0.64248   0.00000  Uiso   1.00
H14    H     0.50054   0.19959   0.64345   0.00000  Uiso   1.00
H15    H     0.50012   0.34907   0.35757   0.00000  Uiso   1.00
H16    H     0.49993   0.26592   0.35660   0.00000  Uiso   1.00
C41    C     0.12139   0.49990   0.56869   0.00000  Uiso   1.00
C42    C     0.15975   0.49983   0.40460   0.00000  Uiso   1.00
C43    C     0.05694   0.49986   0.37919   0.00000  Uiso   1.00
C44    C     0.98418   0.49992   0.45255   0.00000  Uiso   1.00
C45    C     0.87862   0.49995   0.43131   0.00000  Uiso   1.00
C46    C     0.84026   0.50002   0.59540   0.00000  Uiso   1.00
C47    C     0.94307   0.49999   0.62081   0.00000  Uiso   1.00
C48    C     0.01583   0.49994   0.54745   0.00000  Uiso   1.00
C49    C     0.19003   0.49985   0.50010   0.00000  Uiso   1.00
C50    C     0.80998   0.50000   0.49990   0.00000  Uiso   1.00
H17    H     0.14488   0.49993   0.64208   0.00000  Uiso   1.00
H18    H     0.21732   0.49980   0.35054   0.00000  Uiso   1.00
H19    H     0.85512   0.49992   0.35792   0.00000  Uiso   1.00
H20    H     0.78268   0.50006   0.64945   0.00000  Uiso   1.00
N3     N     0.49910   0.96550   0.24709   0.00000  Uiso   1.00
N4     N     0.49845   0.96551   0.75301   0.00000  Uiso   1.00
C51    C     0.43446   0.93581   0.19781   0.00000  Uiso   1.00
C52    C     0.43373   0.93554   0.09948   0.00000  Uiso   1.00
C53    C     0.56309   0.99520   0.80229   0.00000  Uiso   1.00
C54    C     0.56382   0.99547   0.90062   0.00000  Uiso   1.00
C55    C     0.43394   0.93582   0.80261   0.00000  Uiso   1.00
C56    C     0.43347   0.93554   0.90094   0.00000  Uiso   1.00
C57    C     0.56361   0.99519   0.19749   0.00000  Uiso   1.00
C58    C     0.56408   0.99547   0.09916   0.00000  Uiso   1.00
C59    C     0.49884   0.96551   0.04959   0.00000  Uiso   1.00
C60    C     0.49871   0.96550   0.95051   0.00000  Uiso   1.00
H21    H     0.38975   0.91523   0.23157   0.00000  Uiso   1.00
H22    H     0.60781   0.01578   0.76853   0.00000  Uiso   1.00
H23    H     0.38914   0.91523   0.76907   0.00000  Uiso   1.00
H24    H     0.38857   0.91487   0.93430   0.00000  Uiso   1.00
H25    H     0.60841   0.01577   0.23103   0.00000  Uiso   1.00
H26    H     0.60898   0.01614   0.06580   0.00000  Uiso   1.00
C61    C     0.12073   0.96381   0.42811   0.00000  Uiso   1.00
C62    C     0.15931   0.96377   0.59200   0.00000  Uiso   1.00
C63    C     0.05654   0.96403   0.61795   0.00000  Uiso   1.00
C64    C     0.98368   0.96419   0.54497   0.00000  Uiso   1.00
C65    C     0.87815   0.96446   0.56676   0.00000  Uiso   1.00
C66    C     0.83957   0.96450   0.40287   0.00000  Uiso   1.00
C67    C     0.94234   0.96424   0.37692   0.00000  Uiso   1.00
C68    C     0.01520   0.96408   0.44991   0.00000  Uiso   1.00
C69    C     0.18947   0.96366   0.49635   0.00000  Uiso   1.00
C70    C     0.80941   0.96461   0.49853   0.00000  Uiso   1.00
H27    H     0.14413   0.96371   0.35460   0.00000  Uiso   1.00
H28    H     0.21696   0.96364   0.64577   0.00000  Uiso   1.00
H29    H     0.85475   0.96456   0.64027   0.00000  Uiso   1.00
H30    H     0.78192   0.96463   0.34912   0.00000  Uiso   1.00
H31    H     0.32171   0.54985   0.01551   0.00000  Uiso   1.00
H32    H     0.35427   0.59994   0.92984   0.00000  Uiso   1.00
N5     N     0.36400   0.56287   0.95339   0.00000  Uiso   1.00
H33    H     0.60836   0.41736   0.98459   0.00000  Uiso   1.00
H34    H     0.71572   0.43288   0.07006   0.00000  Uiso   1.00
N6     N     0.63603   0.43714   0.04661   0.00000  Uiso   1.00
H35    H     0.45098   0.22537   0.68669   0.00000  Uiso   1.00
H36    H     0.55068   0.26830   0.73489   0.00000  Uiso   1.00
N7     N     0.50076   0.25649   0.67695   0.00000  Uiso   1.00
H37    H     0.45001   0.24035   0.31378   0.00000  Uiso   1.00
H38    H     0.54927   0.19699   0.26473   0.00000  Uiso   1.00
N8     N     0.49971   0.20902   0.32310   0.00000  Uiso   1.00
H39    H     0.32057   0.91618   0.98547   0.00000  Uiso   1.00
H40    H     0.35337   0.86600   0.07096   0.00000  Uiso   1.00
N9     N     0.36298   0.90303   0.04737   0.00000  Uiso   1.00
H41    H     0.60694   0.04783   0.01490   0.00000  Uiso   1.00
H42    H     0.71423   0.03201   0.92887   0.00000  Uiso   1.00
N10    N     0.63458   0.02797   0.95273   0.00000  Uiso   1.00
O17    O     0.49900   0.71980   0.29221   0.00000  Uiso   1.00
Li1    Li    0.49897   0.68967   0.18821   0.00000  Uiso   1.00
O18    O     0.49926   0.74571   0.70784   0.00000  Uiso   1.00
Li2    Li    0.49930   0.77585   0.81184   0.00000  Uiso   1.00
O19    O     0.97177   0.50001   0.70781   0.00000  Uiso   1.00
Li3    Li    0.90683   0.50007   0.81179   0.00000  Uiso   1.00
O20    O     0.02825   0.49985   0.29219   0.00000  Uiso   1.00
Li4    Li    0.09319   0.49979   0.18821   0.00000  Uiso   1.00
O21    O     0.97093   0.96413   0.28978   0.00000  Uiso   1.00
Li5    Li    0.90585   0.96426   0.18614   0.00000  Uiso   1.00
O22    O     0.02796   0.96413   0.70510   0.00000  Uiso   1.00
Li6    Li    0.09305   0.96400   0.80874   0.00000  Uiso   1.00
