data_DB1-Cu2O8N2-irmof10_A-irmof6_A_No316_repeat
_audit_creation_date              2024-02-23
_audit_creation_method            'Materials Studio'
_symmetry_space_group_name_H-M    'P1'
_symmetry_Int_Tables_number       1
_symmetry_cell_setting            triclinic
loop_
_symmetry_equiv_pos_as_xyz
  x,y,z
_cell_length_a                    10.8046
_cell_length_b                    25.7504
_cell_length_c                    13.3747
_cell_angle_alpha                 90.0005
_cell_angle_beta                  89.9974
_cell_angle_gamma                 89.9057
loop_
_atom_site_label
_atom_site_type_symbol
_atom_site_fract_x
_atom_site_fract_y
_atom_site_fract_z
_atom_site_U_iso_or_equiv
_atom_site_adp_type
_atom_site_occupancy
Cu1    Cu    0.50001   0.50000   0.40485   0.00000  Uiso   1.00
Cu2    Cu    0.50001   0.50000   0.59515   0.00000  Uiso   1.00
O1     O     0.66093   0.50003   0.41126   0.00000  Uiso   1.00
O2     O     0.33875   0.50011   0.41127   0.00000  Uiso   1.00
O3     O     0.49966   0.56766   0.41127   0.00000  Uiso   1.00
O4     O     0.50003   0.43248   0.41126   0.00000  Uiso   1.00
O5     O     0.50031   0.43233   0.58873   0.00000  Uiso   1.00
O6     O     0.50003   0.56751   0.58873   0.00000  Uiso   1.00
O7     O     0.33895   0.50003   0.58874   0.00000  Uiso   1.00
O8     O     0.66126   0.49986   0.58873   0.00000  Uiso   1.00
C1     C     0.73213   0.49996   0.49999   0.00000  Uiso   1.00
C2     C     0.26788   0.50003   0.50001   0.00000  Uiso   1.00
C3     C     0.49984   0.59739   0.50000   0.00000  Uiso   1.00
C4     C     0.50017   0.40260   0.50000   0.00000  Uiso   1.00
Cu3    Cu    0.50043   0.91959   0.59517   0.00000  Uiso   1.00
Cu4    Cu    0.49964   0.91959   0.40487   0.00000  Uiso   1.00
O9     O     0.66133   0.91932   0.58831   0.00000  Uiso   1.00
O10    O     0.33915   0.91970   0.58920   0.00000  Uiso   1.00
O11    O     0.50004   0.85192   0.58875   0.00000  Uiso   1.00
O12    O     0.50043   0.98710   0.58876   0.00000  Uiso   1.00
O13    O     0.49998   0.98726   0.41129   0.00000  Uiso   1.00
O14    O     0.49967   0.85207   0.41129   0.00000  Uiso   1.00
O15    O     0.33860   0.91978   0.41173   0.00000  Uiso   1.00
O16    O     0.66092   0.91950   0.41084   0.00000  Uiso   1.00
C5     C     0.73215   0.91930   0.49938   0.00000  Uiso   1.00
C6     C     0.26791   0.91988   0.50066   0.00000  Uiso   1.00
C7     C     0.49986   0.82219   0.50002   0.00000  Uiso   1.00
C8     C     0.50021   0.01698   0.50002   0.00000  Uiso   1.00
N1     N     0.50001   0.50000   0.73656   0.00000  Uiso   1.00
N2     N     0.50001   0.50000   0.26343   0.00000  Uiso   1.00
C9     C     0.57858   0.46704   0.78928   0.00000  Uiso   1.00
C10    C     0.57931   0.46673   0.89414   0.00000  Uiso   1.00
C11    C     0.42143   0.53295   0.21072   0.00000  Uiso   1.00
C12    C     0.42070   0.53326   0.10586   0.00000  Uiso   1.00
C13    C     0.57858   0.46704   0.21071   0.00000  Uiso   1.00
C14    C     0.57931   0.46673   0.10585   0.00000  Uiso   1.00
C15    C     0.42143   0.53295   0.78929   0.00000  Uiso   1.00
C16    C     0.42070   0.53326   0.89415   0.00000  Uiso   1.00
C17    C     0.50001   0.50000   0.94717   0.00000  Uiso   1.00
C18    C     0.50001   0.50000   0.05283   0.00000  Uiso   1.00
H1     H     0.63305   0.44419   0.75340   0.00000  Uiso   1.00
H2     H     0.36696   0.55580   0.24660   0.00000  Uiso   1.00
H3     H     0.63305   0.44419   0.24659   0.00000  Uiso   1.00
H4     H     0.63400   0.44380   0.07040   0.00000  Uiso   1.00
H5     H     0.36696   0.55580   0.75341   0.00000  Uiso   1.00
H6     H     0.36601   0.55620   0.92960   0.00000  Uiso   1.00
C19    C     0.49986   0.76649   0.50001   0.00000  Uiso   1.00
C20    C     0.49985   0.65309   0.50001   0.00000  Uiso   1.00
C21    C     0.49969   0.73809   0.42104   0.00000  Uiso   1.00
C22    C     0.50001   0.68149   0.57898   0.00000  Uiso   1.00
C23    C     0.49968   0.68149   0.42104   0.00000  Uiso   1.00
C24    C     0.50002   0.73809   0.57898   0.00000  Uiso   1.00
C25    C     0.49945   0.73689   0.30874   0.00000  Uiso   1.00
C26    C     0.49945   0.68270   0.30873   0.00000  Uiso   1.00
H7     H     0.50022   0.75583   0.65272   0.00000  Uiso   1.00
H8     H     0.58059   0.75598   0.27559   0.00000  Uiso   1.00
H9     H     0.41824   0.75635   0.27643   0.00000  Uiso   1.00
H10    H     0.41818   0.66361   0.27582   0.00000  Uiso   1.00
H11    H     0.58053   0.66324   0.27620   0.00000  Uiso   1.00
C27    C     0.50018   0.34662   0.50000   0.00000  Uiso   1.00
C28    C     0.50021   0.07296   0.50002   0.00000  Uiso   1.00
C29    C     0.50004   0.31923   0.41033   0.00000  Uiso   1.00
C30    C     0.50004   0.26477   0.40950   0.00000  Uiso   1.00
C31    C     0.50035   0.10035   0.58969   0.00000  Uiso   1.00
C32    C     0.50035   0.15481   0.59052   0.00000  Uiso   1.00
C33    C     0.50006   0.10035   0.41034   0.00000  Uiso   1.00
C34    C     0.50005   0.15481   0.40950   0.00000  Uiso   1.00
C35    C     0.50033   0.31924   0.58968   0.00000  Uiso   1.00
C36    C     0.50033   0.26477   0.59052   0.00000  Uiso   1.00
C37    C     0.50019   0.23723   0.50001   0.00000  Uiso   1.00
C38    C     0.50020   0.18235   0.50001   0.00000  Uiso   1.00
H12    H     0.49994   0.33787   0.34816   0.00000  Uiso   1.00
H13    H     0.50045   0.08171   0.65186   0.00000  Uiso   1.00
H14    H     0.49996   0.08171   0.34817   0.00000  Uiso   1.00
H15    H     0.49995   0.17322   0.34708   0.00000  Uiso   1.00
H16    H     0.50042   0.33788   0.65184   0.00000  Uiso   1.00
H17    H     0.50044   0.24636   0.65294   0.00000  Uiso   1.00
C39    C     0.13514   0.50002   0.50001   0.00000  Uiso   1.00
C40    C     0.86487   0.49998   0.50000   0.00000  Uiso   1.00
C41    C     0.06745   0.49993   0.57897   0.00000  Uiso   1.00
C42    C     0.93257   0.50006   0.42103   0.00000  Uiso   1.00
C43    C     0.93255   0.49991   0.57897   0.00000  Uiso   1.00
C44    C     0.06746   0.50008   0.42103   0.00000  Uiso   1.00
C45    C     0.06457   0.49982   0.69128   0.00000  Uiso   1.00
C46    C     0.93541   0.49980   0.69127   0.00000  Uiso   1.00
H18    H     0.10975   0.50018   0.34729   0.00000  Uiso   1.00
H19    H     0.11002   0.53387   0.72443   0.00000  Uiso   1.00
H20    H     0.11097   0.46575   0.72358   0.00000  Uiso   1.00
H21    H     0.88994   0.46569   0.72418   0.00000  Uiso   1.00
H22    H     0.88901   0.53382   0.72381   0.00000  Uiso   1.00
N3     N     0.49905   0.91959   0.26346   0.00000  Uiso   1.00
N4     N     0.49685   0.91959   0.73659   0.00000  Uiso   1.00
C47    C     0.57740   0.95243   0.21052   0.00000  Uiso   1.00
C48    C     0.57770   0.95274   0.10566   0.00000  Uiso   1.00
C49    C     0.41849   0.88674   0.78953   0.00000  Uiso   1.00
C50    C     0.41820   0.88644   0.89439   0.00000  Uiso   1.00
C51    C     0.57565   0.95244   0.78909   0.00000  Uiso   1.00
C52    C     0.57682   0.95274   0.89395   0.00000  Uiso   1.00
C53    C     0.42025   0.88674   0.21095   0.00000  Uiso   1.00
C54    C     0.41908   0.88644   0.10610   0.00000  Uiso   1.00
C55    C     0.49817   0.91959   0.05285   0.00000  Uiso   1.00
C56    C     0.49773   0.91959   0.94720   0.00000  Uiso   1.00
H23    H     0.63203   0.97520   0.24625   0.00000  Uiso   1.00
H24    H     0.36387   0.86397   0.75379   0.00000  Uiso   1.00
H25    H     0.62997   0.97520   0.75306   0.00000  Uiso   1.00
H26    H     0.63166   0.97560   0.92925   0.00000  Uiso   1.00
H27    H     0.36593   0.86397   0.24698   0.00000  Uiso   1.00
H28    H     0.36424   0.86357   0.07080   0.00000  Uiso   1.00
C57    C     0.13516   0.91868   0.49824   0.00000  Uiso   1.00
C58    C     0.86490   0.91910   0.49900   0.00000  Uiso   1.00
C59    C     0.06714   0.91886   0.41946   0.00000  Uiso   1.00
C60    C     0.93292   0.91891   0.57778   0.00000  Uiso   1.00
C61    C     0.93225   0.91907   0.41984   0.00000  Uiso   1.00
C62    C     0.06781   0.91871   0.57740   0.00000  Uiso   1.00
C63    C     0.06379   0.91897   0.30717   0.00000  Uiso   1.00
C64    C     0.93464   0.91917   0.30753   0.00000  Uiso   1.00
H29    H     0.11040   0.91855   0.65102   0.00000  Uiso   1.00
H30    H     0.10910   0.88486   0.27388   0.00000  Uiso   1.00
H31    H     0.11006   0.95298   0.27473   0.00000  Uiso   1.00
H32    H     0.88903   0.95334   0.27475   0.00000  Uiso   1.00
H33    H     0.88809   0.88522   0.27512   0.00000  Uiso   1.00
O17    O     0.65325   0.43572   0.94206   0.00000  Uiso   1.00
Li1    Li    0.76021   0.39086   0.90378   0.00000  Uiso   1.00
O18    O     0.34676   0.56427   0.05794   0.00000  Uiso   1.00
Li2    Li    0.23980   0.60913   0.09621   0.00000  Uiso   1.00
O19    O     0.49991   0.23988   0.32511   0.00000  Uiso   1.00
Li3    Li    0.49971   0.25975   0.20304   0.00000  Uiso   1.00
O20    O     0.50048   0.17971   0.67491   0.00000  Uiso   1.00
Li4    Li    0.50068   0.15983   0.79698   0.00000  Uiso   1.00
O21    O     0.65144   0.98365   0.05753   0.00000  Uiso   1.00
Li5    Li    0.75857   0.02836   0.09551   0.00000  Uiso   1.00
O22    O     0.34445   0.85553   0.94251   0.00000  Uiso   1.00
Li6    Li    0.23733   0.81082   0.90454   0.00000  Uiso   1.00
H34    H     0.56094   0.62298   0.69691   0.00000  Uiso   1.00
H35    H     0.43960   0.67258   0.74123   0.00000  Uiso   1.00
N5     N     0.50020   0.65684   0.68142   0.00000  Uiso   1.00
H36    H     0.79312   0.52562   0.30310   0.00000  Uiso   1.00
H37    H     0.91139   0.47473   0.25877   0.00000  Uiso   1.00
N6     N     0.87384   0.50014   0.31859   0.00000  Uiso   1.00
H38    H     0.79396   0.89355   0.69610   0.00000  Uiso   1.00
H39    H     0.91242   0.94428   0.74010   0.00000  Uiso   1.00
N7     N     0.87462   0.91892   0.68039   0.00000  Uiso   1.00
