data_DB1-Zn2O8-AZO_A-fum_A_No181_repeat
_audit_creation_date              2024-02-20
_audit_creation_method            'Materials Studio'
_symmetry_space_group_name_H-M    'P1'
_symmetry_Int_Tables_number       1
_symmetry_cell_setting            triclinic
loop_
_symmetry_equiv_pos_as_xyz
  x,y,z
_cell_length_a                    34.8987
_cell_length_b                    26.3396
_cell_length_c                    10.0000
_cell_angle_alpha                 90.0000
_cell_angle_beta                  90.0000
_cell_angle_gamma                 89.6965
loop_
_atom_site_label
_atom_site_type_symbol
_atom_site_fract_x
_atom_site_fract_y
_atom_site_fract_z
_atom_site_U_iso_or_equiv
_atom_site_adp_type
_atom_site_occupancy
O1     O     0.50046   0.42653   0.36502   0.00000  Uiso   1.00
O2     O     0.50008   0.42704   0.63683   0.00000  Uiso   1.00
C1     C     0.50025   0.40099   0.50119   0.00000  Uiso   1.00
Zn1    Zn    0.50011   0.49970   0.33424   0.00000  Uiso   1.00
O3     O     0.55516   0.50018   0.63620   0.00000  Uiso   1.00
O4     O     0.55537   0.49975   0.36438   0.00000  Uiso   1.00
C2     C     0.57474   0.49991   0.50026   0.00000  Uiso   1.00
O5     O     0.49962   0.57349   0.63498   0.00000  Uiso   1.00
O6     O     0.49985   0.57297   0.36318   0.00000  Uiso   1.00
C3     C     0.49972   0.59903   0.49881   0.00000  Uiso   1.00
Zn2    Zn    0.49989   0.50031   0.66576   0.00000  Uiso   1.00
O7     O     0.44484   0.49973   0.36381   0.00000  Uiso   1.00
O8     O     0.44464   0.50035   0.63562   0.00000  Uiso   1.00
C4     C     0.42526   0.49993   0.49974   0.00000  Uiso   1.00
O9     O     0.99990   0.42566   0.73427   0.00000  Uiso   1.00
O10    O     0.00028   0.42530   0.46247   0.00000  Uiso   1.00
C5     C     0.00023   0.39968   0.59868   0.00000  Uiso   1.00
Zn3    Zn    0.99991   0.49893   0.76344   0.00000  Uiso   1.00
O11    O     0.94486   0.49876   0.46148   0.00000  Uiso   1.00
O12    O     0.94465   0.49920   0.73330   0.00000  Uiso   1.00
C6     C     0.92528   0.49904   0.59742   0.00000  Uiso   1.00
O13    O     0.00006   0.57175   0.46108   0.00000  Uiso   1.00
O14    O     0.99983   0.57210   0.73289   0.00000  Uiso   1.00
C7     C     0.99984   0.59772   0.59669   0.00000  Uiso   1.00
Zn4    Zn    0.00013   0.49848   0.43191   0.00000  Uiso   1.00
O15    O     0.05518   0.49854   0.73388   0.00000  Uiso   1.00
O16    O     0.05538   0.49829   0.46206   0.00000  Uiso   1.00
C8     C     0.07476   0.49819   0.59795   0.00000  Uiso   1.00
O17    O     0.49984   0.91117   0.73976   0.00000  Uiso   1.00
O18    O     0.49993   0.91066   0.46796   0.00000  Uiso   1.00
C9     C     0.49984   0.93671   0.60360   0.00000  Uiso   1.00
Zn5    Zn    0.49953   0.83800   0.77054   0.00000  Uiso   1.00
O19    O     0.55509   0.83686   0.46973   0.00000  Uiso   1.00
O20    O     0.55484   0.83730   0.74154   0.00000  Uiso   1.00
C10    C     0.57444   0.83691   0.60607   0.00000  Uiso   1.00
O21    O     0.49964   0.76422   0.46979   0.00000  Uiso   1.00
O22    O     0.49941   0.76473   0.74160   0.00000  Uiso   1.00
C11    C     0.49954   0.73868   0.60597   0.00000  Uiso   1.00
Zn6    Zn    0.49988   0.83739   0.43902   0.00000  Uiso   1.00
O23    O     0.44432   0.83863   0.73983   0.00000  Uiso   1.00
O24    O     0.44457   0.83800   0.46802   0.00000  Uiso   1.00
C12    C     0.42497   0.83866   0.60349   0.00000  Uiso   1.00
O25    O     0.99826   0.90909   0.34885   0.00000  Uiso   1.00
O26    O     0.99817   0.90944   0.62066   0.00000  Uiso   1.00
C13    C     0.99814   0.93507   0.48445   0.00000  Uiso   1.00
Zn7    Zn    0.99891   0.83582   0.31969   0.00000  Uiso   1.00
O27    O     0.94335   0.83597   0.62051   0.00000  Uiso   1.00
O28    O     0.94361   0.83554   0.34870   0.00000  Uiso   1.00
C14    C     0.92400   0.83569   0.48418   0.00000  Uiso   1.00
O29    O     0.99915   0.76300   0.62205   0.00000  Uiso   1.00
O30    O     0.99938   0.76265   0.35025   0.00000  Uiso   1.00
C15    C     0.99937   0.73703   0.48645   0.00000  Uiso   1.00
Zn8    Zn    0.99857   0.83627   0.65122   0.00000  Uiso   1.00
O31    O     0.05413   0.83623   0.35039   0.00000  Uiso   1.00
O32    O     0.05387   0.83647   0.62221   0.00000  Uiso   1.00
C16    C     0.07348   0.83658   0.48672   0.00000  Uiso   1.00
C17    C     0.88251   0.49916   0.59749   0.00000  Uiso   1.00
C18    C     0.86183   0.49903   0.47637   0.00000  Uiso   1.00
C19    C     0.82166   0.49915   0.47676   0.00000  Uiso   1.00
C20    C     0.80136   0.49940   0.59808   0.00000  Uiso   1.00
C21    C     0.82175   0.49953   0.71864   0.00000  Uiso   1.00
C22    C     0.86190   0.49942   0.71872   0.00000  Uiso   1.00
N1     N     0.76022   0.49953   0.60172   0.00000  Uiso   1.00
N2     N     0.73980   0.49942   0.49596   0.00000  Uiso   1.00
C23    C     0.67827   0.49941   0.37904   0.00000  Uiso   1.00
C24    C     0.69866   0.49955   0.49960   0.00000  Uiso   1.00
C25    C     0.67835   0.49980   0.62092   0.00000  Uiso   1.00
C26    C     0.63819   0.49992   0.62130   0.00000  Uiso   1.00
C27    C     0.61751   0.49978   0.50019   0.00000  Uiso   1.00
C28    C     0.63812   0.49953   0.37896   0.00000  Uiso   1.00
H1     H     0.87693   0.49884   0.38178   0.00000  Uiso   1.00
H2     H     0.80631   0.49905   0.38286   0.00000  Uiso   1.00
H3     H     0.80636   0.49973   0.81258   0.00000  Uiso   1.00
H4     H     0.69366   0.49922   0.28510   0.00000  Uiso   1.00
H5     H     0.69371   0.49990   0.71482   0.00000  Uiso   1.00
H6     H     0.62309   0.50011   0.71589   0.00000  Uiso   1.00
C29    C     0.11753   0.49843   0.59789   0.00000  Uiso   1.00
C30    C     0.13818   0.49827   0.47671   0.00000  Uiso   1.00
C31    C     0.17834   0.49850   0.47698   0.00000  Uiso   1.00
C32    C     0.19867   0.49889   0.59824   0.00000  Uiso   1.00
C33    C     0.17831   0.49905   0.71886   0.00000  Uiso   1.00
C34    C     0.13817   0.49883   0.71905   0.00000  Uiso   1.00
N3     N     0.23982   0.49913   0.60175   0.00000  Uiso   1.00
N4     N     0.26020   0.49900   0.49594   0.00000  Uiso   1.00
C35    C     0.32171   0.49907   0.37883   0.00000  Uiso   1.00
C36    C     0.30135   0.49924   0.49945   0.00000  Uiso   1.00
C37    C     0.32168   0.49963   0.62071   0.00000  Uiso   1.00
C38    C     0.36184   0.49986   0.62097   0.00000  Uiso   1.00
C39    C     0.38250   0.49969   0.49980   0.00000  Uiso   1.00
C40    C     0.36185   0.49930   0.37863   0.00000  Uiso   1.00
H7     H     0.12305   0.49797   0.38217   0.00000  Uiso   1.00
H8     H     0.19368   0.49837   0.38303   0.00000  Uiso   1.00
H9     H     0.19372   0.49935   0.81275   0.00000  Uiso   1.00
H10    H     0.30630   0.49877   0.28494   0.00000  Uiso   1.00
H11    H     0.30634   0.49976   0.71465   0.00000  Uiso   1.00
H12    H     0.37697   0.50016   0.71552   0.00000  Uiso   1.00
C41    C     0.49957   0.68278   0.60839   0.00000  Uiso   1.00
C42    C     0.49968   0.65493   0.49639   0.00000  Uiso   1.00
C43    C     0.49987   0.99338   0.60303   0.00000  Uiso   1.00
C44    C     0.50006   0.02058   0.48160   0.00000  Uiso   1.00
C45    C     0.50009   0.07379   0.48139   0.00000  Uiso   1.00
C46    C     0.49994   0.10090   0.60240   0.00000  Uiso   1.00
C47    C     0.49975   0.07408   0.72326   0.00000  Uiso   1.00
C48    C     0.49972   0.02089   0.72394   0.00000  Uiso   1.00
N5     N     0.49997   0.15541   0.60542   0.00000  Uiso   1.00
N6     N     0.50013   0.18229   0.49936   0.00000  Uiso   1.00
C49    C     0.50034   0.26362   0.38152   0.00000  Uiso   1.00
C50    C     0.50016   0.23680   0.50238   0.00000  Uiso   1.00
C51    C     0.50000   0.26390   0.62340   0.00000  Uiso   1.00
C52    C     0.50004   0.31712   0.62318   0.00000  Uiso   1.00
C53    C     0.50022   0.34432   0.50176   0.00000  Uiso   1.00
C54    C     0.50037   0.31681   0.38084   0.00000  Uiso   1.00
H13    H     0.50018   0.00041   0.38724   0.00000  Uiso   1.00
H14    H     0.50023   0.09399   0.38726   0.00000  Uiso   1.00
H15    H     0.49964   0.09462   0.81697   0.00000  Uiso   1.00
H16    H     0.50046   0.24308   0.28781   0.00000  Uiso   1.00
H17    H     0.49986   0.24371   0.71752   0.00000  Uiso   1.00
H18    H     0.49992   0.33729   0.71754   0.00000  Uiso   1.00
C55    C     0.99960   0.68112   0.48526   0.00000  Uiso   1.00
C56    C     0.99961   0.65363   0.59788   0.00000  Uiso   1.00
C57    C     0.00252   0.99175   0.50584   0.00000  Uiso   1.00
C58    C     0.00220   0.01934   0.62666   0.00000  Uiso   1.00
C59    C     0.00192   0.07256   0.62570   0.00000  Uiso   1.00
C60    C     0.00195   0.09927   0.50409   0.00000  Uiso   1.00
C61    C     0.00226   0.07207   0.38382   0.00000  Uiso   1.00
C62    C     0.00254   0.01888   0.38432   0.00000  Uiso   1.00
N7     N     0.00167   0.15378   0.49987   0.00000  Uiso   1.00
N8     N     0.00138   0.18099   0.60533   0.00000  Uiso   1.00
C63    C     0.00078   0.26270   0.72138   0.00000  Uiso   1.00
C64    C     0.00109   0.23550   0.60110   0.00000  Uiso   1.00
C65    C     0.00112   0.26221   0.47950   0.00000  Uiso   1.00
C66    C     0.00084   0.31543   0.47854   0.00000  Uiso   1.00
C67    C     0.00053   0.34302   0.59936   0.00000  Uiso   1.00
C68    C     0.00050   0.31589   0.72088   0.00000  Uiso   1.00
H19    H     0.00218   0.99948   0.72146   0.00000  Uiso   1.00
H20    H     0.00169   0.09305   0.71938   0.00000  Uiso   1.00
H21    H     0.00228   0.09231   0.28967   0.00000  Uiso   1.00
H22    H     0.00076   0.24246   0.81553   0.00000  Uiso   1.00
H23    H     0.00136   0.24172   0.38582   0.00000  Uiso   1.00
H24    H     0.00086   0.33529   0.38374   0.00000  Uiso   1.00
C69    C     0.88238   0.83399   0.51522   0.00000  Uiso   1.00
C70    C     0.86149   0.83437   0.63590   0.00000  Uiso   1.00
C71    C     0.82132   0.83473   0.63468   0.00000  Uiso   1.00
C72    C     0.80123   0.83472   0.51295   0.00000  Uiso   1.00
C73    C     0.82182   0.83434   0.39281   0.00000  Uiso   1.00
C74    C     0.86197   0.83398   0.39356   0.00000  Uiso   1.00
N9     N     0.76009   0.83508   0.50845   0.00000  Uiso   1.00
N10    N     0.73950   0.83543   0.61379   0.00000  Uiso   1.00
C75    C     0.67777   0.83617   0.72943   0.00000  Uiso   1.00
C76    C     0.69836   0.83580   0.60929   0.00000  Uiso   1.00
C77    C     0.67826   0.83578   0.48756   0.00000  Uiso   1.00
C78    C     0.63810   0.83614   0.48634   0.00000  Uiso   1.00
C79    C     0.61721   0.83652   0.60702   0.00000  Uiso   1.00
C80    C     0.63762   0.83653   0.72868   0.00000  Uiso   1.00
H25    H     0.87643   0.83439   0.73080   0.00000  Uiso   1.00
H26    H     0.80581   0.83502   0.72826   0.00000  Uiso   1.00
H27    H     0.80659   0.83433   0.29855   0.00000  Uiso   1.00
H28    H     0.69299   0.83618   0.82369   0.00000  Uiso   1.00
H29    H     0.69378   0.83550   0.39398   0.00000  Uiso   1.00
H30    H     0.62316   0.83613   0.39144   0.00000  Uiso   1.00
C81    C     0.11740   0.84381   0.49897   0.00000  Uiso   1.00
C82    C     0.13784   0.84373   0.62057   0.00000  Uiso   1.00
C83    C     0.17801   0.84303   0.62114   0.00000  Uiso   1.00
C84    C     0.19855   0.84239   0.50030   0.00000  Uiso   1.00
C85    C     0.17839   0.84247   0.37926   0.00000  Uiso   1.00
C86    C     0.13825   0.84317   0.37823   0.00000  Uiso   1.00
N11    N     0.23969   0.84166   0.49764   0.00000  Uiso   1.00
N12    N     0.25990   0.84155   0.60388   0.00000  Uiso   1.00
C87    C     0.32121   0.84075   0.72225   0.00000  Uiso   1.00
C88    C     0.30105   0.84082   0.60121   0.00000  Uiso   1.00
C89    C     0.32159   0.84019   0.48038   0.00000  Uiso   1.00
C90    C     0.36175   0.83949   0.48095   0.00000  Uiso   1.00
C91    C     0.38220   0.83940   0.60255   0.00000  Uiso   1.00
C92    C     0.36135   0.84004   0.72328   0.00000  Uiso   1.00
H31    H     0.12256   0.84421   0.71480   0.00000  Uiso   1.00
H32    H     0.19318   0.84298   0.71539   0.00000  Uiso   1.00
H33    H     0.19396   0.84198   0.28569   0.00000  Uiso   1.00
H34    H     0.30564   0.84123   0.81582   0.00000  Uiso   1.00
H35    H     0.30641   0.84024   0.38612   0.00000  Uiso   1.00
H36    H     0.37704   0.83900   0.38672   0.00000  Uiso   1.00
O33    O     0.88005   0.49954   0.83200   0.00000  Uiso   1.00
Li1    Li    0.86508   0.49985   0.99493   0.00000  Uiso   1.00
O34    O     0.61997   0.49940   0.26568   0.00000  Uiso   1.00
Li2    Li    0.63494   0.49910   0.10275   0.00000  Uiso   1.00
O35    O     0.12004   0.49898   0.83239   0.00000  Uiso   1.00
Li3    Li    0.13504   0.49944   0.99527   0.00000  Uiso   1.00
O36    O     0.37998   0.49914   0.26530   0.00000  Uiso   1.00
Li4    Li    0.36498   0.49868   0.10242   0.00000  Uiso   1.00
O37    O     0.49955   0.99702   0.83750   0.00000  Uiso   1.00
Li5    Li    0.49934   0.01712   0.00020   0.00000  Uiso   1.00
O38    O     0.50054   0.34068   0.26728   0.00000  Uiso   1.00
Li6    Li    0.50076   0.32058   0.10459   0.00000  Uiso   1.00
O39    O     0.00282   0.99464   0.27130   0.00000  Uiso   1.00
Li7    Li    0.00294   0.01423   0.10816   0.00000  Uiso   1.00
O40    O     0.00022   0.34012   0.83390   0.00000  Uiso   1.00
Li8    Li    0.00010   0.32054   0.99704   0.00000  Uiso   1.00
O41    O     0.88032   0.83364   0.28066   0.00000  Uiso   1.00
Li9    Li    0.86562   0.83351   0.11743   0.00000  Uiso   1.00
O42    O     0.61927   0.83688   0.84158   0.00000  Uiso   1.00
Li10   Li    0.63396   0.83700   0.00482   0.00000  Uiso   1.00
O43    O     0.12031   0.84323   0.26452   0.00000  Uiso   1.00
Li11   Li    0.13559   0.84259   0.10196   0.00000  Uiso   1.00
O44    O     0.37929   0.83999   0.83699   0.00000  Uiso   1.00
Li12   Li    0.36400   0.84063   0.99956   0.00000  Uiso   1.00
H37    H     0.51828   0.62350   0.76119   0.00000  Uiso   1.00
H38    H     0.48059   0.67133   0.82418   0.00000  Uiso   1.00
N13    N     0.49947   0.65692   0.74315   0.00000  Uiso   1.00
H39    H     0.51858   0.71399   0.34397   0.00000  Uiso   1.00
H40    H     0.48106   0.66660   0.28020   0.00000  Uiso   1.00
N14    N     0.49978   0.68079   0.36162   0.00000  Uiso   1.00
H41    H     0.98117   0.62146   0.33377   0.00000  Uiso   1.00
H42    H     0.01863   0.66888   0.26973   0.00000  Uiso   1.00
N15    N     0.99982   0.65483   0.35107   0.00000  Uiso   1.00
H43    H     0.98044   0.71328   0.74898   0.00000  Uiso   1.00
H44    H     0.01818   0.66588   0.81379   0.00000  Uiso   1.00
N16    N     0.99939   0.67992   0.73207   0.00000  Uiso   1.00
