data_DB1-Cu2O8-ADC_A-BDC_A_No810_repeat
_audit_creation_date              2024-02-20
_audit_creation_method            'Materials Studio'
_symmetry_space_group_name_H-M    'P1'
_symmetry_Int_Tables_number       1
_symmetry_cell_setting            triclinic
loop_
_symmetry_equiv_pos_as_xyz
  x,y,z
_cell_length_a                    10.7003
_cell_length_b                    34.9964
_cell_length_c                    10.0000
_cell_angle_alpha                 90.0000
_cell_angle_beta                  90.0000
_cell_angle_gamma                 90.0936
loop_
_atom_site_label
_atom_site_type_symbol
_atom_site_fract_x
_atom_site_fract_y
_atom_site_fract_z
_atom_site_U_iso_or_equiv
_atom_site_adp_type
_atom_site_occupancy
Cu1    Cu    0.50000   0.50000   0.62726   0.00000  Uiso   1.00
Cu2    Cu    0.50001   0.50000   0.37274   0.00000  Uiso   1.00
O1     O     0.66250   0.49997   0.61869   0.00000  Uiso   1.00
O2     O     0.33718   0.49992   0.61867   0.00000  Uiso   1.00
O3     O     0.49965   0.45021   0.61868   0.00000  Uiso   1.00
O4     O     0.50002   0.54968   0.61868   0.00000  Uiso   1.00
O5     O     0.50032   0.54979   0.38132   0.00000  Uiso   1.00
O6     O     0.50003   0.45033   0.38132   0.00000  Uiso   1.00
O7     O     0.33738   0.49998   0.38131   0.00000  Uiso   1.00
O8     O     0.66284   0.50010   0.38133   0.00000  Uiso   1.00
C1     C     0.73439   0.50003   0.50001   0.00000  Uiso   1.00
C2     C     0.26562   0.49997   0.49999   0.00000  Uiso   1.00
C3     C     0.49984   0.42834   0.49999   0.00000  Uiso   1.00
C4     C     0.50017   0.57167   0.50000   0.00000  Uiso   1.00
Cu3    Cu    0.50049  -0.00000   0.28188   0.00000  Uiso   1.00
Cu4    Cu    0.49987   0.00001   0.53639   0.00000  Uiso   1.00
O9     O     0.66297   0.00019   0.29091   0.00000  Uiso   1.00
O10    O     0.33764   0.99993   0.29000   0.00000  Uiso   1.00
O11    O     0.50013   0.04979   0.29044   0.00000  Uiso   1.00
O12    O     0.50048   0.95032   0.29047   0.00000  Uiso   1.00
O13    O     0.50018   0.95021   0.52783   0.00000  Uiso   1.00
O14    O     0.49992   0.04968   0.52780   0.00000  Uiso   1.00
O15    O     0.33725   0.99987   0.52735   0.00000  Uiso   1.00
O16    O     0.66271   0.00007   0.52827   0.00000  Uiso   1.00
C5     C     0.73456   0.00020   0.40980   0.00000  Uiso   1.00
C6     C     0.26579   0.99980   0.40848   0.00000  Uiso   1.00
C7     C     0.50003   0.07167   0.40912   0.00000  Uiso   1.00
C8     C     0.50033   0.92834   0.40915   0.00000  Uiso   1.00
C9     C     0.50032   0.88566   0.40916   0.00000  Uiso   1.00
C10    C     0.50017   0.86506   0.53008   0.00000  Uiso   1.00
C11    C     0.50016   0.82503   0.53024   0.00000  Uiso   1.00
C12    C     0.50031   0.80443   0.40893   0.00000  Uiso   1.00
C13    C     0.50047   0.82510   0.28832   0.00000  Uiso   1.00
C14    C     0.50047   0.86509   0.28824   0.00000  Uiso   1.00
C15    C     0.50032   0.76182   0.40144   0.00000  Uiso   1.00
C16    C     0.50018   0.73818   0.50777   0.00000  Uiso   1.00
C17    C     0.50003   0.67490   0.62087   0.00000  Uiso   1.00
C18    C     0.50019   0.69557   0.50026   0.00000  Uiso   1.00
C19    C     0.50034   0.67498   0.37894   0.00000  Uiso   1.00
C20    C     0.50033   0.63495   0.37910   0.00000  Uiso   1.00
C21    C     0.50018   0.61434   0.50001   0.00000  Uiso   1.00
C22    C     0.50003   0.63491   0.62094   0.00000  Uiso   1.00
H1     H     0.50005   0.88015   0.62461   0.00000  Uiso   1.00
H2     H     0.50004   0.81085   0.62594   0.00000  Uiso   1.00
H3     H     0.50058   0.81024   0.19334   0.00000  Uiso   1.00
H4     H     0.49992   0.68976   0.71585   0.00000  Uiso   1.00
H5     H     0.50046   0.68916   0.28324   0.00000  Uiso   1.00
H6     H     0.50045   0.61986   0.28456   0.00000  Uiso   1.00
H7     H     0.50044   0.74990   0.30204   0.00000  Uiso   1.00
H8     H     0.50006   0.75010   0.60716   0.00000  Uiso   1.00
C23    C     0.50003   0.11434   0.40913   0.00000  Uiso   1.00
C24    C     0.49983   0.13495   0.53004   0.00000  Uiso   1.00
C25    C     0.49982   0.17498   0.53022   0.00000  Uiso   1.00
C26    C     0.50002   0.19557   0.40890   0.00000  Uiso   1.00
C27    C     0.50022   0.17491   0.28829   0.00000  Uiso   1.00
C28    C     0.50022   0.13492   0.28821   0.00000  Uiso   1.00
C29    C     0.50003   0.23819   0.40142   0.00000  Uiso   1.00
C30    C     0.49985   0.26182   0.50774   0.00000  Uiso   1.00
C31    C     0.49966   0.32510   0.62085   0.00000  Uiso   1.00
C32    C     0.49986   0.30443   0.50024   0.00000  Uiso   1.00
C33    C     0.50005   0.32503   0.37892   0.00000  Uiso   1.00
C34    C     0.50005   0.36505   0.37909   0.00000  Uiso   1.00
C35    C     0.49985   0.38566   0.50000   0.00000  Uiso   1.00
C36    C     0.49966   0.36509   0.62092   0.00000  Uiso   1.00
H9     H     0.49968   0.11986   0.62458   0.00000  Uiso   1.00
H10    H     0.49967   0.18916   0.62591   0.00000  Uiso   1.00
H11    H     0.50037   0.18977   0.19331   0.00000  Uiso   1.00
H12    H     0.49951   0.31024   0.71584   0.00000  Uiso   1.00
H13    H     0.50021   0.31085   0.28322   0.00000  Uiso   1.00
H14    H     0.50020   0.38015   0.28455   0.00000  Uiso   1.00
H15    H     0.50018   0.25010   0.30202   0.00000  Uiso   1.00
H16    H     0.49969   0.24990   0.60714   0.00000  Uiso   1.00
C37    C     0.86911   0.50002   0.50000   0.00000  Uiso   1.00
C38    C     0.13091   0.49999   0.49999   0.00000  Uiso   1.00
C39    C     0.93501   0.50007   0.38006   0.00000  Uiso   1.00
C40    C     0.06501   0.49993   0.61993   0.00000  Uiso   1.00
C41    C     0.06500   0.50006   0.38005   0.00000  Uiso   1.00
C42    C     0.93501   0.49995   0.61994   0.00000  Uiso   1.00
H17    H     0.10985   0.50010   0.29691   0.00000  Uiso   1.00
H18    H     0.89016   0.49991   0.70308   0.00000  Uiso   1.00
C43    C     0.86928   0.00035   0.41019   0.00000  Uiso   1.00
C44    C     0.13107   0.00063   0.41095   0.00000  Uiso   1.00
C45    C     0.93488   0.00036   0.53032   0.00000  Uiso   1.00
C46    C     0.06548   0.00062   0.29082   0.00000  Uiso   1.00
C47    C     0.06487   0.00050   0.53070   0.00000  Uiso   1.00
C48    C     0.93548   0.00048   0.29044   0.00000  Uiso   1.00
H19    H     0.10951   0.00051   0.61398   0.00000  Uiso   1.00
H20    H     0.89084   0.00048   0.20717   0.00000  Uiso   1.00
O17    O     0.50062   0.88315   0.17486   0.00000  Uiso   1.00
Li1    Li    0.50082   0.86815   0.01201   0.00000  Uiso   1.00
O18    O     0.49989   0.61685   0.73431   0.00000  Uiso   1.00
Li2    Li    0.49968   0.63185   0.89717   0.00000  Uiso   1.00
O19    O     0.50041   0.11686   0.17482   0.00000  Uiso   1.00
Li3    Li    0.50067   0.13186   0.01198   0.00000  Uiso   1.00
O20    O     0.49947   0.38315   0.73430   0.00000  Uiso   1.00
Li4    Li    0.49921   0.36815   0.89715   0.00000  Uiso   1.00
C49    C     0.86407   0.50015   0.24858   0.00000  Uiso   1.00
O21    O     0.91401   0.51689   0.14209   0.00000  Uiso   1.00
O22    O     0.75939   0.48559   0.24212   0.00000  Uiso   1.00
H21    H     0.00470   0.52292   0.16293   0.00000  Uiso   1.00
C50    C     0.13594   0.49985   0.75142   0.00000  Uiso   1.00
O23    O     0.08622   0.51649   0.85812   0.00000  Uiso   1.00
O24    O     0.24044   0.48526   0.75768   0.00000  Uiso   1.00
H22    H     0.99561   0.52256   0.83736   0.00000  Uiso   1.00
C51    C     0.86361   0.00022   0.66160   0.00000  Uiso   1.00
O25    O     0.91328   0.98352   0.76824   0.00000  Uiso   1.00
O26    O     0.75891   0.01467   0.66775   0.00000  Uiso   1.00
H23    H     0.00402   0.97759   0.74766   0.00000  Uiso   1.00
C52    C     0.13674   0.00077   0.15954   0.00000  Uiso   1.00
O27    O     0.08728   0.98408   0.05270   0.00000  Uiso   1.00
O28    O     0.24126   0.01546   0.15357   0.00000  Uiso   1.00
H24    H     0.99662   0.97792   0.07320   0.00000  Uiso   1.00
