# Generated by REPEAT Assigner based on pymatgen
data_DB1-Cu2O8-irmof10_A-TDPAT_No9
_audit_creation_date              2022-05-24
_audit_creation_method            REPEAT_Assigner
_cell_length_a                    36.274700
_cell_length_b                    36.214500
_cell_length_c                    36.274700
_cell_angle_alpha                 60.054300
_cell_angle_beta                  59.999800
_cell_angle_gamma                 59.956800
_cell_volume                      33698.478765
_symmetry_space_group_name_H-M    P1
_symmetry_Int_Tables_number       1
loop_
    _symmetry_equiv_pos_site_id
    _symmetry_equiv_pos_as_xyz
    1  x,y,z
loop_
    _atom_site_type_symbol
    _atom_site_label
    _atom_site_fract_x
    _atom_site_fract_y
    _atom_site_fract_z
    _atom_type_partial_charge
    Cu  Cu1   0.464890  0.500060  0.535060  1.048140
    Cu  Cu2   0.535110  0.499940  0.464940  1.081100
    O   O1    0.443230  0.557990  0.508700  -0.436246
    O   O2    0.491290  0.441990  0.556690  -0.434628
    O   O3    0.443310  0.489970  0.508710  -0.539310
    O   O4    0.491200  0.510010  0.556670  -0.541954
    O   O5    0.556700  0.510020  0.491300  -0.478154
    O   O6    0.508790  0.490010  0.443320  -0.479969
    O   O7    0.556760  0.441960  0.491300  -0.505876
    O   O8    0.508720  0.558020  0.443320  -0.503732
    C   C1    0.465370  0.583580  0.465420  0.357810
    C   C2    0.534630  0.416430  0.534580  0.359100
    C   C3    0.465480  0.485600  0.465430  0.403113
    C   C4    0.534530  0.514410  0.534570  0.403480
    Cu  Cu3   0.000010  0.500020  0.464910  1.033902
    Cu  Cu4   0.000020  0.499920  0.535110  1.032974
    O   O9    0.990130  0.557950  0.443400  -0.450476
    O   O10   0.010030  0.441950  0.491140  -0.468995
    O   O11   0.058030  0.489920  0.443300  -0.526708
    O   O12   0.942130  0.509970  0.491240  -0.539670
    O   O13   0.942000  0.510000  0.556730  -0.448960
    O   O14   0.057880  0.489980  0.508770  -0.471347
    O   O15   0.009960  0.441940  0.556620  -0.527686
    O   O16   0.989970  0.558000  0.508890  -0.535956
    C   C5    0.985690  0.583540  0.465610  0.392789
    C   C6    0.014330  0.416400  0.534410  0.418526
    C   C7    0.083500  0.485560  0.465450  0.423316
    C   C8    0.916520  0.514380  0.534570  0.400579
    Cu  Cu5   0.535040  0.500110  0.999970  1.033775
    Cu  Cu6   0.464920  0.500010  0.999990  1.032673
    O   O17   0.508520  0.558040  0.990250  -0.470914
    O   O18   0.556830  0.442040  0.009840  -0.448997
    O   O19   0.508720  0.490030  0.057960  -0.537298
    O   O20   0.556630  0.510050  0.942130  -0.529251
    O   O21   0.491250  0.510080  0.942000  -0.469386
    O   O22   0.443330  0.490090  0.057820  -0.450849
    O   O23   0.491430  0.442020  0.009780  -0.538001
    O   O24   0.443140  0.558090  0.990100  -0.525973
    C   C9    0.465170  0.583640  0.985880  0.419131
    C   C10   0.534790  0.416490  0.014080  0.397012
    C   C11   0.465450  0.485680  0.083420  0.399984
    C   C12   0.534510  0.514450  0.916540  0.422958
    Cu  Cu7   0.999310  0.965740  0.534320  1.086170
    Cu  Cu8   0.999320  0.035870  0.464120  1.042517
    O   O25   0.008940  0.992340  0.555950  -0.481708
    O   O26   0.989530  0.943870  0.507970  -0.483914
    O   O27   0.941250  0.992130  0.555820  -0.507937
    O   O28   0.057220  0.944080  0.508100  -0.505232
    O   O29   0.057380  0.009470  0.442610  -0.434040
    O   O30   0.941410  0.057530  0.490350  -0.423765
    O   O31   0.989620  0.009270  0.442500  -0.534023
    O   O32   0.009110  0.057730  0.490470  -0.539291
    C   C13   0.013280  0.035730  0.533790  0.396329
    C   C14   0.985340  0.965880  0.464650  0.398907
    C   C15   0.915760  0.035440  0.533620  0.349023
    C   C16   0.082860  0.966170  0.464820  0.360490
    Cu  Cu9   0.465050  0.035230  0.000020  1.085197
    Cu  Cu10  0.535270  0.964910  0.000110  1.048070
    O   O33   0.491350  0.056950  0.009880  -0.466970
    O   O34   0.443490  0.008780  0.990010  -0.482201
    O   O35   0.491470  0.056770  0.942060  -0.510568
    O   O36   0.443380  0.008960  0.057840  -0.505723
    O   O37   0.508840  0.943370  0.058070  -0.433762
    O   O38   0.556950  0.991190  0.942300  -0.435290
    O   O39   0.508970  0.943200  0.990180  -0.540669
    O   O40   0.556820  0.991360  0.010140  -0.547535
    C   C17   0.534650  0.034790  0.014370  0.408495
    C   C18   0.465670  0.965360  0.985770  0.416159
    C   C19   0.534830  0.034530  0.916660  0.352269
    C   C20   0.465500  0.965610  0.083480  0.354034
    Cu  Cu11  0.000890  0.965610  0.000610  1.038010
    Cu  Cu12  0.000980  0.035750  0.000800  1.025230
    O   O41   0.943050  0.992210  0.010310  -0.472664
    O   O42   0.058880  0.943740  0.990770  -0.449935
    O   O43   0.011070  0.991990  0.942620  -0.544538
    O   O44   0.990850  0.943970  0.058460  -0.533085
    O   O45   0.990810  0.009360  0.058790  -0.468780
    O   O46   0.011010  0.057400  0.942960  -0.432437
    O   O47   0.058890  0.009150  0.991030  -0.533533
    O   O48   0.942990  0.057610  0.010660  -0.524538
    C   C21   0.917480  0.035610  0.014770  0.423506
    C   C22   0.084390  0.965750  0.986640  0.388411
    C   C23   0.015470  0.035290  0.917260  0.397353
    C   C24   0.986400  0.966060  0.084150  0.423076
    C   C25   0.697740  0.527160  0.651310  1.000314
    N   N1    0.691270  0.527170  0.617690  -0.897309
    C   C26   0.651230  0.527170  0.623870  0.991304
    N   N2    0.617610  0.527180  0.663950  -0.878368
    C   C27   0.623790  0.527180  0.697810  0.992015
    N   N3    0.663870  0.527170  0.691340  -0.874078
    C   C28   0.611160  0.514360  0.796500  -0.250442
    C   C29   0.579440  0.527280  0.776760  0.437905
    N   N4    0.587230  0.528840  0.735310  -0.587870
    C   C30   0.577990  0.514330  0.611210  -0.247716
    C   C31   0.616530  0.527260  0.579520  0.457075
    N   N5    0.648630  0.528830  0.587310  -0.608730
    N   N6    0.735240  0.528810  0.648720  -0.599326
    C   C32   0.776700  0.527240  0.616620  0.446720
    C   C33   0.796470  0.514340  0.578020  -0.234932
    C   C34   0.624570  0.539080  0.533520  -0.309875
    C   C35   0.596460  0.536320  0.519640  0.005857
    C   C36   0.558930  0.520920  0.550760  0.106943
    C   C37   0.549690  0.511350  0.597050  -0.019758
    C   C38   0.841900  0.511360  0.549710  -0.082505
    C   C39   0.869400  0.520900  0.559000  0.161063
    C   C40   0.847620  0.536250  0.596600  -0.036767
    C   C41   0.802870  0.539010  0.624720  -0.271815
    C   C42   0.533400  0.539090  0.802960  -0.296295
    C   C43   0.519520  0.536340  0.847700  -0.018570
    C   C44   0.550690  0.520960  0.869430  0.118845
    C   C45   0.597010  0.511390  0.841930  -0.031904
    H   H1    0.561090  0.532340  0.731330  0.355139
    H   H2    0.675250  0.532330  0.561180  0.367964
    H   H3    0.731250  0.532300  0.675360  0.358985
    H   H4    0.644770  0.506260  0.778170  0.132497
    H   H5    0.570820  0.506230  0.644790  0.126383
    H   H6    0.778150  0.506270  0.570800  0.131940
    H   H7    0.651470  0.549580  0.509290  0.149696
    H   H8    0.789700  0.549480  0.651670  0.124839
    H   H9    0.509150  0.549580  0.789810  0.141667
    C   C46   0.348760  0.472870  0.302170  1.000097
    N   N7    0.382380  0.472860  0.308650  -0.897246
    C   C47   0.376200  0.472850  0.348690  0.991893
    N   N8    0.336120  0.472840  0.382300  -0.879587
    C   C48   0.302260  0.472840  0.376130  0.992564
    N   N9    0.308730  0.472850  0.336040  -0.874676
    C   C49   0.203530  0.485660  0.388790  -0.251115
    C   C50   0.223310  0.472740  0.420480  0.438532
    N   N10   0.264770  0.471180  0.412690  -0.587863
    C   C51   0.388830  0.485690  0.421960  -0.246866
    C   C52   0.420550  0.472750  0.383380  0.456524
    N   N11   0.412760  0.471190  0.351280  -0.608832
    N   N12   0.351350  0.471230  0.264670  -0.598787
    C   C53   0.383440  0.472800  0.223210  0.445542
    C   C54   0.422000  0.485700  0.203480  -0.234443
    C   C55   0.466590  0.460940  0.375310  -0.309857
    C   C56   0.480470  0.463700  0.403430  0.006666
    C   C57   0.449300  0.479090  0.441000  0.105931
    C   C58   0.402980  0.488660  0.450270  -0.019937
    C   C59   0.450300  0.488690  0.158050  -0.081655
    C   C60   0.441040  0.479160  0.130530  0.159878
    C   C61   0.403490  0.463800  0.152260  -0.036007
    C   C62   0.375380  0.461040  0.197000  -0.271883
    C   C63   0.197150  0.460930  0.466490  -0.297524
    C   C64   0.152410  0.463670  0.480370  -0.018114
    C   C65   0.130620  0.479060  0.449250  0.117783
    C   C66   0.158100  0.488630  0.402960  -0.031219
    H   H10   0.268760  0.467670  0.438810  0.355063
    H   H11   0.438900  0.467690  0.324640  0.367826
    H   H12   0.324720  0.467730  0.268650  0.358989
    H   H13   0.221840  0.493760  0.355210  0.132731
    H   H14   0.355220  0.493790  0.429160  0.126369
    H   H15   0.429200  0.493770  0.221830  0.131442
    H   H16   0.490850  0.450450  0.348370  0.149504
    H   H17   0.348460  0.450560  0.210140  0.124852
    H   H18   0.210330  0.450430  0.490710  0.142098
    C   C67   0.301920  0.876580  0.348450  0.951875
    N   N13   0.308390  0.836490  0.382070  -0.838460
    C   C68   0.348480  0.802560  0.375960  0.951125
    N   N14   0.382160  0.808980  0.335940  -0.839777
    C   C69   0.375980  0.849030  0.302070  0.949950
    N   N15   0.335840  0.882710  0.308470  -0.839876
    C   C70   0.388710  0.922250  0.203380  -0.212840
    C   C71   0.420410  0.883670  0.223200  0.419283
    N   N16   0.412590  0.851580  0.264630  -0.583628
    C   C72   0.421870  0.703690  0.388710  -0.212539
    C   C73   0.383210  0.723550  0.420360  0.420204
    N   N17   0.351060  0.765060  0.412520  -0.585634
    N   N18   0.264360  0.913200  0.350980  -0.586553
    C   C74   0.222840  0.921050  0.383020  0.420100
    C   C75   0.203090  0.889340  0.421560  -0.214611
    C   C76   0.375100  0.697420  0.466370  -0.294475
    C   C77   0.403260  0.652620  0.480290  -0.012218
    C   C78   0.440910  0.630750  0.449190  0.147841
    C   C79   0.450210  0.658200  0.402900  -0.060239
    C   C80   0.157600  0.903550  0.449790  -0.055401
    C   C81   0.130030  0.949930  0.440470  0.142198
    C   C82   0.151780  0.981090  0.402940  -0.011236
    C   C83   0.196590  0.967150  0.374900  -0.293321
    C   C84   0.466470  0.875580  0.197090  -0.294446
    C   C85   0.480390  0.903670  0.152370  -0.011015
    C   C86   0.449250  0.941230  0.130560  0.148308
    C   C87   0.402900  0.950530  0.157980  -0.059371
    H   H19   0.438750  0.824920  0.268660  0.354653
    H   H20   0.324390  0.769100  0.438610  0.353943
    H   H21   0.268350  0.939340  0.324360  0.355128
    H   H22   0.355090  0.929470  0.221650  0.121166
    H   H23   0.429100  0.721980  0.355130  0.121086
    H   H24   0.221470  0.855690  0.428790  0.121302
    H   H25   0.348110  0.710650  0.490570  0.143729
    H   H26   0.209730  0.991400  0.347990  0.142756
    H   H27   0.490710  0.848640  0.210290  0.142627
    C   C88   0.651670  0.123580  0.698020  0.948386
    N   N19   0.618000  0.163700  0.691500  -0.837607
    C   C89   0.624170  0.197540  0.651460  0.951837
    N   N20   0.664290  0.191010  0.617900  -0.839421
    C   C90   0.698220  0.150940  0.624120  0.948504
    N   N21   0.691760  0.117340  0.664210  -0.838018
    C   C91   0.797050  0.077590  0.611600  -0.214854
    C   C92   0.777280  0.116130  0.579870  0.421306
    N   N22   0.735760  0.148280  0.587610  -0.583480
    C   C93   0.611430  0.296310  0.578170  -0.213060
    C   C94   0.579720  0.276540  0.616700  0.422367
    N   N23   0.587550  0.235080  0.648820  -0.587358
    N   N24   0.649100  0.087030  0.735530  -0.581704
    C   C95   0.616960  0.079290  0.776950  0.416211
    C   C96   0.578290  0.111100  0.796640  -0.212350
    C   C97   0.533660  0.302740  0.624700  -0.296012
    C   C98   0.519740  0.347500  0.596550  -0.011231
    C   C99   0.550880  0.369280  0.559030  0.146190
    C   C100  0.597230  0.341760  0.549840  -0.058831
    C   C101  0.549950  0.097000  0.842040  -0.060645
    C   C102  0.559290  0.050650  0.869570  0.154818
    C   C103  0.596960  0.019400  0.847880  -0.015997
    C   C104  0.625110  0.033220  0.803170  -0.292287
    C   C105  0.803520  0.124100  0.533890  -0.295058
    C   C106  0.848320  0.095930  0.520070  -0.015299
    C   C107  0.870080  0.058410  0.551240  0.159125
    C   C108  0.842540  0.049230  0.597510  -0.060211
    H   H28   0.731770  0.174890  0.561470  0.355244
    H   H29   0.561390  0.231120  0.675420  0.354298
    H   H30   0.675790  0.060850  0.731580  0.353514
    H   H31   0.778690  0.070460  0.645170  0.121600
    H   H32   0.645050  0.277970  0.571020  0.120737
    H   H33   0.571040  0.144720  0.778290  0.121043
    H   H34   0.509430  0.289570  0.651590  0.144167
    H   H35   0.652120  0.008910  0.790050  0.143247
    H   H36   0.790350  0.151000  0.509630  0.140946
    C   C109  0.973240  0.876530  0.302950  0.986131
    N   N25   0.973220  0.836440  0.309310  -0.872906
    C   C110  0.973150  0.802520  0.349310  1.001528
    N   N26   0.973070  0.808950  0.383000  -0.896546
    C   C111  0.973090  0.849010  0.376930  0.983419
    N   N27   0.973160  0.882670  0.336880  -0.871587
    C   C112  0.985850  0.922240  0.389850  -0.245134
    C   C113  0.972900  0.883660  0.421450  0.455911
    N   N28   0.971360  0.851560  0.413550  -0.603165
    C   C114  0.985840  0.703650  0.422430  -0.238742
    C   C115  0.972990  0.723510  0.383830  0.451649
    N   N29   0.971490  0.765020  0.351790  -0.602616
    N   N30   0.971660  0.913140  0.265490  -0.584649
    C   C116  0.973300  0.920980  0.224000  0.438477
    C   C117  0.986220  0.889260  0.204160  -0.249780
    C   C118  0.961220  0.697370  0.375650  -0.275376
    C   C119  0.963920  0.652570  0.403680  -0.038014
    C   C120  0.979220  0.630710  0.441270  0.166766
    C   C121  0.988760  0.658170  0.450650  -0.082186
    C   C122  0.989280  0.903460  0.158720  -0.033918
    C   C123  0.979810  0.949840  0.131270  0.121907
    C   C124  0.964440  0.981000  0.153100  -0.021152
    C   C125  0.961600  0.967080  0.197870  -0.296642
    C   C126  0.961030  0.875580  0.467490  -0.313625
    C   C127  0.963740  0.903680  0.481480  0.010421
    C   C128  0.979150  0.941230  0.450440  0.113262
    C   C129  0.988790  0.950520  0.404120  -0.024403
    H   H37   0.967810  0.824910  0.439630  0.368636
    H   H38   0.968040  0.769050  0.325130  0.359728
    H   H39   0.968160  0.939290  0.269550  0.352867
    H   H40   0.994000  0.929440  0.356250  0.124039
    H   H41   0.993910  0.721950  0.429700  0.132683
    H   H42   0.994240  0.855610  0.222450  0.132809
    H   H43   0.950790  0.710600  0.348700  0.125707
    H   H44   0.951120  0.991340  0.211080  0.142154
    H   H45   0.950510  0.848650  0.491650  0.148969
    C   C130  0.026570  0.123550  0.650670  0.989807
    N   N31   0.026660  0.163660  0.617100  -0.874141
    C   C131  0.026710  0.197510  0.623360  0.985218
    N   N32   0.026660  0.191000  0.663470  -0.870810
    C   C132  0.026570  0.150920  0.697280  0.998362
    N   N33   0.026530  0.117320  0.690730  -0.897041
    C   C133  0.013560  0.077600  0.795910  -0.237154
    C   C134  0.026550  0.116130  0.776240  0.443927
    N   N34   0.028190  0.148280  0.734820  -0.598572
    C   C135  0.014020  0.296290  0.610880  -0.255671
    C   C136  0.026950  0.276510  0.579130  0.441875
    N   N35   0.028450  0.235040  0.586840  -0.585064
    N   N36   0.028170  0.086990  0.648000  -0.608328
    C   C137  0.026630  0.079250  0.615840  0.453335
    C   C138  0.013820  0.111040  0.577260  -0.243009
    C   C139  0.038830  0.302700  0.533150  -0.299989
    C   C140  0.036150  0.347460  0.519340  -0.017963
    C   C141  0.020770  0.369250  0.550530  0.120106
    C   C142  0.011120  0.341740  0.596800  -0.028772
    C   C143  0.010860  0.096930  0.548880  -0.026184
    C   C144  0.020310  0.050590  0.558100  0.118099
    C   C145  0.035570  0.019340  0.595680  0.002553
    C   C146  0.038310  0.033170  0.623870  -0.307393
    C   C147  0.038320  0.124120  0.802500  -0.269293
    C   C148  0.035490  0.095960  0.847220  -0.036320
    C   C149  0.020060  0.058440  0.868880  0.149259
    C   C150  0.010510  0.049250  0.841310  -0.071130
    H   H46   0.031730  0.174890  0.730890  0.358995
    H   H47   0.031970  0.231070  0.560680  0.353863
    H   H48   0.031600  0.060820  0.674610  0.368756
    H   H49   0.005490  0.070460  0.777530  0.133856
    H   H50   0.005870  0.277960  0.644450  0.133880
    H   H51   0.005810  0.144670  0.570100  0.124195
    H   H52   0.049330  0.289520  0.508880  0.142624
    H   H53   0.048710  0.008870  0.650810  0.148861
    H   H54   0.048850  0.151020  0.789410  0.122292
    C   C151  0.347410  0.876650  0.974210  0.990497
    N   N37   0.381150  0.836550  0.974090  -0.875684
    C   C152  0.375120  0.802630  0.973920  0.988923
    N   N38   0.335080  0.809060  0.973870  -0.872432
    C   C153  0.301100  0.849120  0.973990  0.996290
    N   N39   0.307410  0.882790  0.974160  -0.895833
    C   C154  0.202210  0.922360  0.986960  -0.235950
    C   C155  0.222120  0.883780  0.973900  0.448660
    N   N40   0.263650  0.851680  0.972270  -0.596524
    C   C156  0.388140  0.703760  0.986350  -0.252404
    C   C157  0.419740  0.723610  0.973560  0.438174
    N   N41   0.411790  0.765120  0.972170  -0.586532
    N   N42   0.349850  0.913270  0.972730  -0.610977
    C   C158  0.381860  0.921110  0.974390  0.460223
    C   C159  0.420490  0.889390  0.987220  -0.248013
    C   C160  0.465820  0.697470  0.961720  -0.297055
    C   C161  0.479860  0.652670  0.964300  -0.020393
    C   C162  0.448820  0.630810  0.979540  0.120926
    C   C163  0.402450  0.658280  0.989160  -0.030605
    C   C164  0.448680  0.903600  0.990320  -0.016102
    C   C165  0.439240  0.949970  0.980970  0.091148
    C   C166  0.401630  0.981140  0.965690  0.014404
    C   C167  0.373620  0.967210  0.962810  -0.312458
    C   C168  0.196040  0.875690  0.962010  -0.272691
    C   C169  0.151250  0.903790  0.964800  -0.043965
    C   C170  0.129330  0.941350  0.980310  0.185298
    C   C171  0.156720  0.950650  0.989970  -0.090294
    H   H55   0.267750  0.825020  0.968660  0.359089
    H   H56   0.437870  0.769160  0.968730  0.354550
    H   H57   0.323160  0.939410  0.969300  0.368858
    H   H58   0.220460  0.929570  0.995120  0.131156
    H   H59   0.354500  0.722060  0.994470  0.133052
    H   H60   0.427810  0.855740  0.995150  0.125166
    H   H61   0.489980  0.710700  0.951320  0.142454
    H   H62   0.346640  0.991460  0.952400  0.149004
    H   H63   0.209320  0.848750  0.951420  0.124534
    C   C172  0.699030  0.123610  0.025530  0.986773
    N   N43   0.692400  0.163740  0.025730  -0.873233
    C   C173  0.652270  0.197590  0.025860  1.000733
    N   N44   0.618710  0.191070  0.025810  -0.897315
    C   C174  0.625050  0.150990  0.025610  0.990283
    N   N45   0.665230  0.117390  0.025480  -0.874141
    C   C175  0.612720  0.077650  0.012410  -0.249401
    C   C176  0.580890  0.116190  0.025500  0.456127
    N   N46   0.588540  0.148340  0.027220  -0.608903
    C   C177  0.578700  0.296360  0.013440  -0.235297
    C   C178  0.617290  0.276590  0.026320  0.447673
    N   N47   0.649520  0.235120  0.027710  -0.600925
    N   N48   0.736640  0.087060  0.027030  -0.587411
    C   C179  0.778080  0.079310  0.025470  0.446567
    C   C180  0.797690  0.111110  0.012750  -0.258182
    C   C181  0.625210  0.302780  0.038270  -0.271998
    C   C182  0.596950  0.347550  0.035700  -0.037938
    C   C183  0.559370  0.369330  0.020380  0.163020
    C   C184  0.550240  0.341820  0.010660  -0.081635
    C   C185  0.843130  0.097000  0.009740  -0.024398
    C   C186  0.870790  0.050650  0.019070  0.105835
    C   C187  0.849170  0.019410  0.034240  -0.004561
    C   C188  0.804420  0.033240  0.037030  -0.309665
    C   C189  0.534870  0.124180  0.037290  -0.306421
    C   C190  0.521130  0.096020  0.034390  0.004766
    C   C191  0.552400  0.058490  0.018850  0.100850
    C   C192  0.598700  0.049300  0.009290  -0.013171
    H   H64   0.562320  0.174960  0.030830  0.368769
    H   H65   0.676130  0.231150  0.031220  0.359739
    H   H66   0.732760  0.060880  0.030390  0.354472
    H   H67   0.646310  0.070510  0.004310  0.125889
    H   H68   0.571600  0.278030  0.005240  0.131566
    H   H69   0.779250  0.144740  0.004830  0.133941
    H   H70   0.652150  0.289610  0.048730  0.125062
    H   H71   0.791370  0.008930  0.047360  0.144793
    H   H72   0.510550  0.151080  0.047890  0.146731
    Cl  Cl1   0.461070  0.551630  0.877310  -0.035573
    Cl  Cl2   0.638150  0.493890  0.864960  -0.019604
    Cl  Cl3   0.877220  0.551490  0.610220  -0.036659
    Cl  Cl4   0.864970  0.493890  0.502970  -0.000391
    Cl  Cl5   0.610000  0.551630  0.461220  -0.054644
    Cl  Cl6   0.503030  0.493830  0.638150  -0.018307
    Cl  Cl7   0.122840  0.448370  0.538780  -0.035542
    Cl  Cl8   0.135010  0.506140  0.361870  -0.020267
    Cl  Cl9   0.389910  0.448560  0.122620  -0.036912
    Cl  Cl10  0.496990  0.506160  0.135030  -0.000761
    Cl  Cl11  0.538920  0.448390  0.389840  -0.054803
    Cl  Cl12  0.361840  0.506170  0.496990  -0.018762
    Cl  Cl13  0.538870  0.890050  0.122870  -0.045680
    Cl  Cl14  0.361800  0.997250  0.134850  -0.017299
    Cl  Cl15  0.122080  0.039620  0.389310  -0.045959
    Cl  Cl16  0.134560  0.862420  0.496460  -0.017731
    Cl  Cl17  0.389620  0.623090  0.538700  -0.046046
    Cl  Cl18  0.497030  0.635020  0.361860  -0.016948
    Cl  Cl19  0.877990  0.109390  0.461670  -0.050201
    Cl  Cl20  0.865600  0.002580  0.638650  -0.016684
    Cl  Cl21  0.610640  0.960900  0.877530  -0.044693
    Cl  Cl22  0.503110  0.138240  0.865010  -0.016500
    Cl  Cl23  0.461260  0.377120  0.610050  -0.045991
    Cl  Cl24  0.638330  0.364820  0.503180  -0.016950
    Cl  Cl25  0.948370  0.890080  0.539910  -0.054257
    Cl  Cl26  0.006330  0.997230  0.363140  -0.018245
    Cl  Cl27  0.949270  0.039530  0.123570  -0.034360
    Cl  Cl28  0.006760  0.862320  0.135570  -0.019128
    Cl  Cl29  0.948670  0.623030  0.389970  -0.035957
    Cl  Cl30  0.006160  0.635000  0.497400  -0.000872
    Cl  Cl31  0.050760  0.109430  0.876920  -0.041604
    Cl  Cl32  0.992950  0.002600  0.864250  -0.002018
    Cl  Cl33  0.050710  0.960840  0.609210  -0.054234
    Cl  Cl34  0.993510  0.138160  0.502160  -0.017240
    Cl  Cl35  0.051540  0.377060  0.460950  -0.035233
    Cl  Cl36  0.993600  0.364820  0.637970  -0.020133
    Cl  Cl37  0.121780  0.890180  0.949390  -0.034709
    Cl  Cl38  0.133470  0.997370  0.007630  -0.000729
    Cl  Cl39  0.387830  0.039670  0.950680  -0.054409
    Cl  Cl40  0.495480  0.862460  0.007680  -0.019883
    Cl  Cl41  0.538360  0.623130  0.948970  -0.035048
    Cl  Cl42  0.361470  0.635100  0.006500  -0.020305
    Cl  Cl43  0.462690  0.109490  0.049690  -0.059692
    Cl  Cl44  0.639970  0.002630  0.991600  -0.019588
    Cl  Cl45  0.878990  0.960900  0.049220  -0.035617
    Cl  Cl46  0.865990  0.138230  0.992500  -0.022158
    Cl  Cl47  0.610370  0.377160  0.051170  -0.036273
    Cl  Cl48  0.503520  0.364890  0.993220  -0.000998
