data_DB1-Cu2O8N2-DPAC_A-irmof20_A_No548_repeat
_audit_creation_date              2024-02-23
_audit_creation_method            'Materials Studio'
_symmetry_space_group_name_H-M    'P1'
_symmetry_Int_Tables_number       1
_symmetry_cell_setting            triclinic
loop_
_symmetry_equiv_pos_as_xyz
  x,y,z
_cell_length_a                    29.8733
_cell_length_b                    17.3722
_cell_length_c                    15.8500
_cell_angle_alpha                 89.9944
_cell_angle_beta                  89.9929
_cell_angle_gamma                 89.8677
loop_
_atom_site_label
_atom_site_type_symbol
_atom_site_fract_x
_atom_site_fract_y
_atom_site_fract_z
_atom_site_U_iso_or_equiv
_atom_site_adp_type
_atom_site_occupancy
Cu1    Cu    0.50001   0.50000   0.41971   0.00000  Uiso   1.00
Cu2    Cu    0.50000   0.49999   0.58029   0.00000  Uiso   1.00
O1     O     0.55821   0.49998   0.42512   0.00000  Uiso   1.00
O2     O     0.44168   0.50024   0.42513   0.00000  Uiso   1.00
O3     O     0.49989   0.60030   0.42512   0.00000  Uiso   1.00
O4     O     0.50001   0.39992   0.42513   0.00000  Uiso   1.00
O5     O     0.50010   0.39969   0.57488   0.00000  Uiso   1.00
O6     O     0.50001   0.60007   0.57487   0.00000  Uiso   1.00
O7     O     0.44175   0.50012   0.57488   0.00000  Uiso   1.00
O8     O     0.55832   0.49972   0.57487   0.00000  Uiso   1.00
C1     C     0.58396   0.49983   0.50000   0.00000  Uiso   1.00
C2     C     0.41605   0.50016   0.50001   0.00000  Uiso   1.00
C3     C     0.49995   0.64436   0.49999   0.00000  Uiso   1.00
C4     C     0.50005   0.35563   0.50001   0.00000  Uiso   1.00
Cu3    Cu    0.91847   0.49941   0.58030   0.00000  Uiso   1.00
Cu4    Cu    0.91848   0.49996   0.41972   0.00000  Uiso   1.00
O9     O     0.86027   0.49950   0.57490   0.00000  Uiso   1.00
O10    O     0.97679   0.49959   0.57489   0.00000  Uiso   1.00
O11    O     0.91837   0.59973   0.57529   0.00000  Uiso   1.00
O12    O     0.91869   0.39935   0.57449   0.00000  Uiso   1.00
O13    O     0.91859   0.39964   0.42474   0.00000  Uiso   1.00
O14    O     0.91825   0.60002   0.42554   0.00000  Uiso   1.00
O15    O     0.97673   0.49998   0.42513   0.00000  Uiso   1.00
O16    O     0.86015   0.49975   0.42514   0.00000  Uiso   1.00
C5     C     0.83452   0.49964   0.50002   0.00000  Uiso   1.00
C6     C     0.00243   0.49973   0.50001   0.00000  Uiso   1.00
C7     C     0.91821   0.64405   0.50059   0.00000  Uiso   1.00
C8     C     0.91874   0.35532   0.49944   0.00000  Uiso   1.00
N1     N     0.50001   0.50000   0.30038   0.00000  Uiso   1.00
C9     C     0.47127   0.54948   0.25392   0.00000  Uiso   1.00
C10    C     0.47118   0.54962   0.16508   0.00000  Uiso   1.00
C11    C     0.50000   0.49999   0.12006   0.00000  Uiso   1.00
C12    C     0.52882   0.45037   0.16507   0.00000  Uiso   1.00
C13    C     0.52874   0.45052   0.25391   0.00000  Uiso   1.00
C14    C     0.50000   0.50000   0.03772   0.00000  Uiso   1.00
C15    C     0.49999   0.50000   0.96228   0.00000  Uiso   1.00
C16    C     0.49999   0.49999   0.87995   0.00000  Uiso   1.00
C17    C     0.47116   0.54960   0.83493   0.00000  Uiso   1.00
C18    C     0.47125   0.54945   0.74608   0.00000  Uiso   1.00
N2     N     0.49999   0.49999   0.69962   0.00000  Uiso   1.00
C19    C     0.52874   0.45053   0.74608   0.00000  Uiso   1.00
C20    C     0.52882   0.45038   0.83493   0.00000  Uiso   1.00
H1     H     0.44997   0.58615   0.28476   0.00000  Uiso   1.00
H2     H     0.44991   0.58623   0.13391   0.00000  Uiso   1.00
H3     H     0.55009   0.41376   0.13389   0.00000  Uiso   1.00
H4     H     0.44989   0.58620   0.86610   0.00000  Uiso   1.00
H5     H     0.55005   0.41386   0.71525   0.00000  Uiso   1.00
H6     H     0.55010   0.41378   0.86610   0.00000  Uiso   1.00
C21    C     0.50004   0.27406   0.50001   0.00000  Uiso   1.00
C22    C     0.49998   0.23168   0.42345   0.00000  Uiso   1.00
C23    C     0.49996   0.15062   0.42322   0.00000  Uiso   1.00
C24    C     0.50001   0.10953   0.49999   0.00000  Uiso   1.00
C25    C     0.50007   0.15059   0.57678   0.00000  Uiso   1.00
C26    C     0.50008   0.23165   0.57656   0.00000  Uiso   1.00
C27    C     0.50000   0.03441   0.49999   0.00000  Uiso   1.00
C28    C     0.49999   0.96558   0.49998   0.00000  Uiso   1.00
C29    C     0.49998   0.89046   0.49998   0.00000  Uiso   1.00
C30    C     0.49990   0.84939   0.42320   0.00000  Uiso   1.00
C31    C     0.49990   0.76833   0.42343   0.00000  Uiso   1.00
C32    C     0.49996   0.72593   0.49999   0.00000  Uiso   1.00
C33    C     0.50003   0.76832   0.57654   0.00000  Uiso   1.00
C34    C     0.50004   0.84938   0.57677   0.00000  Uiso   1.00
H7     H     0.49994   0.25981   0.36670   0.00000  Uiso   1.00
H8     H     0.49992   0.12218   0.36656   0.00000  Uiso   1.00
H9     H     0.50010   0.12214   0.63343   0.00000  Uiso   1.00
H10    H     0.49986   0.87784   0.36655   0.00000  Uiso   1.00
H11    H     0.50007   0.74019   0.63329   0.00000  Uiso   1.00
H12    H     0.50009   0.87782   0.63342   0.00000  Uiso   1.00
C35    C     0.66293   0.49966   0.56692   0.00000  Uiso   1.00
S1     S     0.66087   0.49994   0.40342   0.00000  Uiso   1.00
C36    C     0.75555   0.49982   0.43309   0.00000  Uiso   1.00
S2     S     0.75761   0.49953   0.59659   0.00000  Uiso   1.00
C37    C     0.63391   0.49979   0.50000   0.00000  Uiso   1.00
C38    C     0.78457   0.49968   0.50001   0.00000  Uiso   1.00
C39    C     0.70924   0.49981   0.45689   0.00000  Uiso   1.00
C40    C     0.70923   0.49966   0.54313   0.00000  Uiso   1.00
C41    C     0.04986   0.49978   0.50001   0.00000  Uiso   1.00
C42    C     0.07451   0.49973   0.57657   0.00000  Uiso   1.00
C43    C     0.12165   0.49978   0.57680   0.00000  Uiso   1.00
C44    C     0.14554   0.49989   0.50002   0.00000  Uiso   1.00
C45    C     0.12166   0.49995   0.42324   0.00000  Uiso   1.00
C46    C     0.07452   0.49990   0.42346   0.00000  Uiso   1.00
C47    C     0.18923   0.49994   0.50002   0.00000  Uiso   1.00
C48    C     0.22925   0.49998   0.50003   0.00000  Uiso   1.00
C49    C     0.27294   0.50003   0.50002   0.00000  Uiso   1.00
C50    C     0.29682   0.49999   0.57680   0.00000  Uiso   1.00
C51    C     0.34396   0.50004   0.57657   0.00000  Uiso   1.00
C52    C     0.36861   0.50012   0.50001   0.00000  Uiso   1.00
C53    C     0.34396   0.50016   0.42346   0.00000  Uiso   1.00
C54    C     0.29682   0.50011   0.42324   0.00000  Uiso   1.00
H13    H     0.05815   0.49965   0.63332   0.00000  Uiso   1.00
H14    H     0.13818   0.49974   0.63345   0.00000  Uiso   1.00
H15    H     0.13821   0.50003   0.36658   0.00000  Uiso   1.00
H16    H     0.28028   0.49994   0.63345   0.00000  Uiso   1.00
H17    H     0.36032   0.50022   0.36671   0.00000  Uiso   1.00
H18    H     0.28029   0.50014   0.36659   0.00000  Uiso   1.00
N3     N     0.91846   0.50244   0.69964   0.00000  Uiso   1.00
C55    C     0.94709   0.55171   0.74629   0.00000  Uiso   1.00
C56    C     0.94719   0.55155   0.83513   0.00000  Uiso   1.00
C57    C     0.91847   0.50182   0.87996   0.00000  Uiso   1.00
C58    C     0.88976   0.45239   0.83476   0.00000  Uiso   1.00
C59    C     0.88984   0.45285   0.74591   0.00000  Uiso   1.00
C60    C     0.91848   0.50154   0.96230   0.00000  Uiso   1.00
C61    C     0.91848   0.50128   0.03774   0.00000  Uiso   1.00
C62    C     0.91848   0.50099   0.12007   0.00000  Uiso   1.00
C63    C     0.94721   0.55040   0.16529   0.00000  Uiso   1.00
C64    C     0.94712   0.54994   0.25413   0.00000  Uiso   1.00
N4     N     0.91848   0.50037   0.30040   0.00000  Uiso   1.00
C65    C     0.88984   0.45111   0.25374   0.00000  Uiso   1.00
C66    C     0.88976   0.45127   0.16489   0.00000  Uiso   1.00
H19    H     0.96832   0.58847   0.71560   0.00000  Uiso   1.00
H20    H     0.96837   0.58803   0.86644   0.00000  Uiso   1.00
H21    H     0.86857   0.41570   0.86579   0.00000  Uiso   1.00
H22    H     0.96840   0.58707   0.13426   0.00000  Uiso   1.00
H23    H     0.86861   0.41437   0.28443   0.00000  Uiso   1.00
H24    H     0.86857   0.41481   0.13358   0.00000  Uiso   1.00
C67    C     0.91675   0.27374   0.50304   0.00000  Uiso   1.00
C68    C     0.91690   0.23110   0.57943   0.00000  Uiso   1.00
C69    C     0.91709   0.15004   0.57935   0.00000  Uiso   1.00
C70    C     0.91714   0.10922   0.50241   0.00000  Uiso   1.00
C71    C     0.91699   0.15054   0.42578   0.00000  Uiso   1.00
C72    C     0.91680   0.23160   0.42632   0.00000  Uiso   1.00
C73    C     0.91731   0.03410   0.50212   0.00000  Uiso   1.00
C74    C     0.91747   0.96527   0.50186   0.00000  Uiso   1.00
C75    C     0.91765   0.89015   0.50156   0.00000  Uiso   1.00
C76    C     0.91781   0.84882   0.57818   0.00000  Uiso   1.00
C77    C     0.91799   0.76776   0.57763   0.00000  Uiso   1.00
C78    C     0.91802   0.72562   0.50091   0.00000  Uiso   1.00
C79    C     0.91786   0.76827   0.42452   0.00000  Uiso   1.00
C80    C     0.91768   0.84933   0.42462   0.00000  Uiso   1.00
H25    H     0.91687   0.25904   0.63629   0.00000  Uiso   1.00
H26    H     0.91720   0.12141   0.63589   0.00000  Uiso   1.00
H27    H     0.91701   0.12229   0.36902   0.00000  Uiso   1.00
H28    H     0.91779   0.87707   0.63494   0.00000  Uiso   1.00
H29    H     0.91788   0.74033   0.36766   0.00000  Uiso   1.00
H30    H     0.91756   0.87796   0.36808   0.00000  Uiso   1.00
O17    O     0.55576   0.40402   0.29300   0.00000  Uiso   1.00
Li1    Li    0.59419   0.33785   0.25876   0.00000  Uiso   1.00
O18    O     0.44422   0.59594   0.70699   0.00000  Uiso   1.00
Li2    Li    0.40578   0.66208   0.74122   0.00000  Uiso   1.00
O19    O     0.50014   0.26731   0.64852   0.00000  Uiso   1.00
Li3    Li    0.50020   0.23606   0.75090   0.00000  Uiso   1.00
O20    O     0.49983   0.73267   0.35147   0.00000  Uiso   1.00
Li4    Li    0.49974   0.76391   0.24909   0.00000  Uiso   1.00
O21    O     0.05379   0.49995   0.35150   0.00000  Uiso   1.00
Li5    Li    0.07196   0.50009   0.24912   0.00000  Uiso   1.00
O22    O     0.36470   0.50000   0.64853   0.00000  Uiso   1.00
Li6    Li    0.34653   0.49991   0.75091   0.00000  Uiso   1.00
O23    O     0.86292   0.40652   0.70664   0.00000  Uiso   1.00
Li7    Li    0.82464   0.34029   0.74062   0.00000  Uiso   1.00
O24    O     0.97404   0.59626   0.29340   0.00000  Uiso   1.00
Li8    Li    0.01234   0.66246   0.25943   0.00000  Uiso   1.00
O25    O     0.91666   0.26750   0.35450   0.00000  Uiso   1.00
Li9    Li    0.91667   0.23661   0.25200   0.00000  Uiso   1.00
O26    O     0.91814   0.73185   0.64945   0.00000  Uiso   1.00
Li10   Li    0.91816   0.76273   0.75195   0.00000  Uiso   1.00
Cl1    Cl    0.64518   0.49949   0.67281   0.00000  Uiso   1.00
Cl2    Cl    0.77330   0.49999   0.32720   0.00000  Uiso   1.00
