data_DB1-Cu2O8-irmof14_A-irmof16_A_No675_repeat
_audit_creation_date              2024-02-23
_audit_creation_method            'Materials Studio'
_symmetry_space_group_name_H-M    'P1'
_symmetry_Int_Tables_number       1
_symmetry_cell_setting            triclinic
loop_
_symmetry_equiv_pos_as_xyz
  x,y,z
_cell_length_a                    29.7942
_cell_length_b                    58.9744
_cell_length_c                    20.9410
_cell_angle_alpha                 122.2950
_cell_angle_beta                  45.1680
_cell_angle_gamma                 139.2760
loop_
_atom_site_label
_atom_site_type_symbol
_atom_site_fract_x
_atom_site_fract_y
_atom_site_fract_z
_atom_site_U_iso_or_equiv
_atom_site_adp_type
_atom_site_occupancy
Cu1    Cu    0.45748   0.49996   0.58569   0.00000  Uiso   1.00
Cu2    Cu    0.54253   0.50004   0.41431   0.00000  Uiso   1.00
O1     O     0.39249   0.45477   0.57978   0.00000  Uiso   1.00
O2     O     0.52820   0.54524   0.58005   0.00000  Uiso   1.00
O3     O     0.40200   0.50006   0.57991   0.00000  Uiso   1.00
O4     O     0.51869   0.49996   0.57991   0.00000  Uiso   1.00
O5     O     0.59802   0.49995   0.42009   0.00000  Uiso   1.00
O6     O     0.48130   0.50003   0.42008   0.00000  Uiso   1.00
O7     O     0.60750   0.54527   0.42022   0.00000  Uiso   1.00
O8     O     0.47182   0.45476   0.41995   0.00000  Uiso   1.00
C1     C     0.40221   0.43482   0.49980   0.00000  Uiso   1.00
C2     C     0.59779   0.56518   0.50020   0.00000  Uiso   1.00
C3     C     0.41589   0.50004   0.50000   0.00000  Uiso   1.00
C4     C     0.58411   0.49995   0.50000   0.00000  Uiso   1.00
Cu3    Cu    0.04240   0.49995   0.41428   0.00000  Uiso   1.00
Cu4    Cu    0.95760   0.50003   0.58567   0.00000  Uiso   1.00
O9     O     0.97179   0.45476   0.42023   0.00000  Uiso   1.00
O10    O     0.10755   0.54523   0.41990   0.00000  Uiso   1.00
O11    O     0.09816   0.50004   0.42006   0.00000  Uiso   1.00
O12    O     0.98118   0.49995   0.42006   0.00000  Uiso   1.00
O13    O     0.90185   0.49995   0.57989   0.00000  Uiso   1.00
O14    O     0.01880   0.50002   0.57989   0.00000  Uiso   1.00
O15    O     0.02833   0.54526   0.57972   0.00000  Uiso   1.00
O16    O     0.89243   0.45475   0.58005   0.00000  Uiso   1.00
C5     C     0.90220   0.43481   0.50022   0.00000  Uiso   1.00
C6     C     0.09780   0.56517   0.49974   0.00000  Uiso   1.00
C7     C     0.08424   0.50003   0.49998   0.00000  Uiso   1.00
C8     C     0.91576   0.49995   0.49998   0.00000  Uiso   1.00
Cu5    Cu    0.70702   0.00006   0.49818   0.00000  Uiso   1.00
Cu6    Cu    0.79195   0.99993   0.49882   0.00000  Uiso   1.00
O17    O     0.77770   0.04524   0.49838   0.00000  Uiso   1.00
O18    O     0.64181   0.95477   0.49830   0.00000  Uiso   1.00
O19    O     0.65143   0.99998   0.61554   0.00000  Uiso   1.00
O20    O     0.76808   0.00003   0.38114   0.00000  Uiso   1.00
O21    O     0.84753   0.99999   0.38147   0.00000  Uiso   1.00
O22    O     0.73091   0.99997   0.61587   0.00000  Uiso   1.00
O23    O     0.72115   0.95471   0.49875   0.00000  Uiso   1.00
O24    O     0.85718   0.04522   0.49868   0.00000  Uiso   1.00
C9     C     0.84738   0.06518   0.49859   0.00000  Uiso   1.00
C10    C     0.65159   0.93481   0.49841   0.00000  Uiso   1.00
C11    C     0.66549   0.99999   0.66738   0.00000  Uiso   1.00
C12    C     0.83349  -0.00000   0.32962   0.00000  Uiso   1.00
Cu7    Cu    0.29359   0.99991   0.50152   0.00000  Uiso   1.00
Cu8    Cu    0.20836   0.00009   0.50169   0.00000  Uiso   1.00
O25    O     0.22282   0.95473   0.50142   0.00000  Uiso   1.00
O26    O     0.35862   0.04520   0.50190   0.00000  Uiso   1.00
O27    O     0.23256   0.99987   0.61886   0.00000  Uiso   1.00
O28    O     0.34888   0.00005   0.38446   0.00000  Uiso   1.00
O29    O     0.26941   0.00015   0.38436   0.00000  Uiso   1.00
O30    O     0.15305   0.99994   0.61875   0.00000  Uiso   1.00
O31    O     0.27913   0.04532   0.50192   0.00000  Uiso   1.00
O32    O     0.14334   0.95481   0.50128   0.00000  Uiso   1.00
C13    C     0.15311   0.93482   0.50129   0.00000  Uiso   1.00
C14    C     0.34884   0.06519   0.50192   0.00000  Uiso   1.00
C15    C     0.16713   0.99984   0.67049   0.00000  Uiso   1.00
C16    C     0.33482   0.00016   0.33273   0.00000  Uiso   1.00
C17    C     0.69332   0.49995   0.41978   0.00000  Uiso   1.00
C18    C     0.73834   0.49995   0.42371   0.00000  Uiso   1.00
C19    C     0.80308   0.49995   0.34545   0.00000  Uiso   1.00
H1     H     0.70608   0.49995   0.36445   0.00000  Uiso   1.00
C20    C     0.61383   0.49995   0.58021   0.00000  Uiso   1.00
C21    C     0.66275   0.49995   0.57628   0.00000  Uiso   1.00
C22    C     0.64994   0.49995   0.65452   0.00000  Uiso   1.00
H2     H     0.57176   0.49995   0.63554   0.00000  Uiso   1.00
C23    C     0.80654   0.49995   0.58019   0.00000  Uiso   1.00
C24    C     0.76152   0.49995   0.57627   0.00000  Uiso   1.00
C25    C     0.69679   0.49995   0.65452   0.00000  Uiso   1.00
H3     H     0.79378   0.49995   0.63552   0.00000  Uiso   1.00
C26    C     0.88603   0.49995   0.41977   0.00000  Uiso   1.00
C27    C     0.83712   0.49995   0.42370   0.00000  Uiso   1.00
C28    C     0.84993   0.49995   0.34545   0.00000  Uiso   1.00
H4     H     0.92811   0.49995   0.36444   0.00000  Uiso   1.00
C29    C     0.62900   0.49995   0.49999   0.00000  Uiso   1.00
C30    C     0.72778   0.49995   0.49999   0.00000  Uiso   1.00
C31    C     0.87087   0.49995   0.49998   0.00000  Uiso   1.00
C32    C     0.77209   0.49995   0.49999   0.00000  Uiso   1.00
C33    C     0.38615   0.50003   0.41978   0.00000  Uiso   1.00
C34    C     0.33724   0.50003   0.42371   0.00000  Uiso   1.00
C35    C     0.35003   0.50001   0.34545   0.00000  Uiso   1.00
H5     H     0.42821   0.50002   0.36445   0.00000  Uiso   1.00
C36    C     0.30669   0.50005   0.58021   0.00000  Uiso   1.00
C37    C     0.26167   0.50005   0.57628   0.00000  Uiso   1.00
C38    C     0.19695   0.50006   0.65452   0.00000  Uiso   1.00
H6     H     0.29394   0.50006   0.63554   0.00000  Uiso   1.00
C39    C     0.11398   0.50005   0.58019   0.00000  Uiso   1.00
C40    C     0.16289   0.50005   0.57627   0.00000  Uiso   1.00
C41    C     0.15010   0.50006   0.65452   0.00000  Uiso   1.00
H7     H     0.07192   0.50006   0.63552   0.00000  Uiso   1.00
C42    C     0.19344   0.50002   0.41977   0.00000  Uiso   1.00
C43    C     0.23846   0.50002   0.42370   0.00000  Uiso   1.00
C44    C     0.30318   0.50001   0.34545   0.00000  Uiso   1.00
H8     H     0.20619   0.50001   0.36444   0.00000  Uiso   1.00
C45    C     0.37100   0.50004   0.49999   0.00000  Uiso   1.00
C46    C     0.27222   0.50004   0.49999   0.00000  Uiso   1.00
C47    C     0.12913   0.50003   0.49998   0.00000  Uiso   1.00
C48    C     0.22791   0.50004   0.49999   0.00000  Uiso   1.00
C49    C     0.90121   0.10104   0.49871   0.00000  Uiso   1.00
C50    C     0.88733   0.11886   0.49862   0.00000  Uiso   1.00
C51    C     0.94193   0.15516   0.49874   0.00000  Uiso   1.00
C52    C     0.96840   0.11873   0.49892   0.00000  Uiso   1.00
C53    C     0.02279   0.15504   0.49904   0.00000  Uiso   1.00
C54    C     0.01003   0.17353   0.49895   0.00000  Uiso   1.00
C55    C     0.06955   0.21319   0.49908   0.00000  Uiso   1.00
C56    C     0.09734   0.23166   0.55695   0.00000  Uiso   1.00
C57    C     0.09743   0.23181   0.44132   0.00000  Uiso   1.00
H9     H     0.83739   0.10532   0.49846   0.00000  Uiso   1.00
H10    H     0.93235   0.16860   0.49867   0.00000  Uiso   1.00
H11    H     0.07259   0.16839   0.49919   0.00000  Uiso   1.00
H12    H     0.07773   0.21871   0.39864   0.00000  Uiso   1.00
C58    C     0.34839   0.39896   0.49968   0.00000  Uiso   1.00
C59    C     0.36233   0.38124   0.41797   0.00000  Uiso   1.00
C60    C     0.30774   0.34493   0.41806   0.00000  Uiso   1.00
C61    C     0.28113   0.38115   0.58128   0.00000  Uiso   1.00
C62    C     0.22674   0.34485   0.58095   0.00000  Uiso   1.00
C63    C     0.23957   0.32646   0.49944   0.00000  Uiso   1.00
C64    C     0.18005   0.28680   0.49932   0.00000  Uiso   1.00
C65    C     0.15226   0.26833   0.44144   0.00000  Uiso   1.00
C66    C     0.15216   0.26819   0.55707   0.00000  Uiso   1.00
H13    H     0.41232   0.39485   0.35849   0.00000  Uiso   1.00
H14    H     0.31737   0.33157   0.35820   0.00000  Uiso   1.00
H15    H     0.27192   0.39471   0.64085   0.00000  Uiso   1.00
H16    H     0.17204   0.28154   0.39885   0.00000  Uiso   1.00
H17    H     0.17187   0.28128   0.59975   0.00000  Uiso   1.00
C67    C     0.09924   0.89896   0.50119   0.00000  Uiso   1.00
C68    C     0.11309   0.88111   0.50121   0.00000  Uiso   1.00
C69    C     0.05844   0.84481   0.50110   0.00000  Uiso   1.00
C70    C     0.03203   0.88129   0.50106   0.00000  Uiso   1.00
C71    C     0.97759   0.84499   0.50096   0.00000  Uiso   1.00
C72    C     0.99033   0.82646   0.50097   0.00000  Uiso   1.00
C73    C     0.93075   0.78681   0.50086   0.00000  Uiso   1.00
C74    C     0.84558   0.76830   0.55846   0.00000  Uiso   1.00
C75    C     0.96020   0.76823   0.44314   0.00000  Uiso   1.00
H18    H     0.16304   0.89463   0.50130   0.00000  Uiso   1.00
H19    H     0.06801   0.83134   0.50111   0.00000  Uiso   1.00
H20    H     0.92778   0.83166   0.50086   0.00000  Uiso   1.00
H21    H     0.02221   0.78135   0.40066   0.00000  Uiso   1.00
C76    C     0.65166   0.60104   0.50030   0.00000  Uiso   1.00
C77    C     0.71890   0.61884   0.41870   0.00000  Uiso   1.00
C78    C     0.77334   0.65514   0.41901   0.00000  Uiso   1.00
C79    C     0.63779   0.61876   0.58201   0.00000  Uiso   1.00
C80    C     0.69243   0.65507   0.58191   0.00000  Uiso   1.00
C81    C     0.76058   0.67354   0.50052   0.00000  Uiso   1.00
C82    C     0.82015   0.71319   0.50064   0.00000  Uiso   1.00
C83    C     0.90532   0.73170   0.44303   0.00000  Uiso   1.00
C84    C     0.79070   0.73177   0.55835   0.00000  Uiso   1.00
H22    H     0.72805   0.60528   0.35914   0.00000  Uiso   1.00
H23    H     0.82317   0.66857   0.35924   0.00000  Uiso   1.00
H24    H     0.58781   0.60515   0.64150   0.00000  Uiso   1.00
H25    H     0.92782   0.71852   0.40048   0.00000  Uiso   1.00
H26    H     0.72869   0.71865   0.60083   0.00000  Uiso   1.00
C85    C     0.40168   0.10103   0.50151   0.00000  Uiso   1.00
C86    C     0.46903   0.11885   0.50159   0.00000  Uiso   1.00
C87    C     0.52337   0.15515   0.50145   0.00000  Uiso   1.00
C88    C     0.38760   0.11873   0.50129   0.00000  Uiso   1.00
C89    C     0.44214   0.15503   0.50115   0.00000  Uiso   1.00
C90    C     0.51039   0.17352   0.50123   0.00000  Uiso   1.00
C91    C     0.56986   0.21318   0.50108   0.00000  Uiso   1.00
C92    C     0.59749   0.23165   0.44319   0.00000  Uiso   1.00
C93    C     0.59784   0.23180   0.55882   0.00000  Uiso   1.00
H27    H     0.47834   0.10531   0.50176   0.00000  Uiso   1.00
H28    H     0.57328   0.16859   0.50151   0.00000  Uiso   1.00
H29    H     0.43240   0.16838   0.50099   0.00000  Uiso   1.00
H30    H     0.57825   0.21870   0.60150   0.00000  Uiso   1.00
C94    C     0.84843   0.39895   0.50036   0.00000  Uiso   1.00
C95    C     0.78132   0.38123   0.58208   0.00000  Uiso   1.00
C96    C     0.72698   0.34493   0.58201   0.00000  Uiso   1.00
C97    C     0.86227   0.38114   0.41877   0.00000  Uiso   1.00
C98    C     0.80772   0.34484   0.41912   0.00000  Uiso   1.00
C99    C     0.73971   0.32645   0.50064   0.00000  Uiso   1.00
C100   C     0.68025   0.28680   0.50079   0.00000  Uiso   1.00
C101   C     0.65261   0.26833   0.55868   0.00000  Uiso   1.00
C102   C     0.65227   0.26818   0.44305   0.00000  Uiso   1.00
H31    H     0.77219   0.39485   0.64155   0.00000  Uiso   1.00
H32    H     0.67725   0.33156   0.64188   0.00000  Uiso   1.00
H33    H     0.91214   0.39470   0.35919   0.00000  Uiso   1.00
H34    H     0.67246   0.28153   0.60126   0.00000  Uiso   1.00
H35    H     0.67186   0.28127   0.40036   0.00000  Uiso   1.00
C103   C     0.59787   0.89895   0.49854   0.00000  Uiso   1.00
C104   C     0.53046   0.88110   0.49853   0.00000  Uiso   1.00
C105   C     0.47617   0.84480   0.49866   0.00000  Uiso   1.00
C106   C     0.61206   0.88128   0.49867   0.00000  Uiso   1.00
C107   C     0.55757   0.84498   0.49880   0.00000  Uiso   1.00
C108   C     0.48925   0.82646   0.49880   0.00000  Uiso   1.00
C109   C     0.42984   0.78680   0.49894   0.00000  Uiso   1.00
C110   C     0.45947   0.76829   0.44135   0.00000  Uiso   1.00
C111   C     0.34464   0.76822   0.55667   0.00000  Uiso   1.00
H36    H     0.52107   0.89462   0.49843   0.00000  Uiso   1.00
H37    H     0.42621   0.83134   0.49866   0.00000  Uiso   1.00
H38    H     0.56738   0.83165   0.49890   0.00000  Uiso   1.00
H39    H     0.32201   0.78135   0.59914   0.00000  Uiso   1.00
C112   C     0.15152   0.60103   0.49961   0.00000  Uiso   1.00
C113   C     0.13770   0.61883   0.58120   0.00000  Uiso   1.00
C114   C     0.19219   0.65514   0.58087   0.00000  Uiso   1.00
C115   C     0.21857   0.61875   0.41789   0.00000  Uiso   1.00
C116   C     0.27286   0.65506   0.41797   0.00000  Uiso   1.00
C117   C     0.26014   0.67353   0.49935   0.00000  Uiso   1.00
C118   C     0.31955   0.71318   0.49921   0.00000  Uiso   1.00
C119   C     0.28992   0.73169   0.55680   0.00000  Uiso   1.00
C120   C     0.40475   0.73176   0.44148   0.00000  Uiso   1.00
H40    H     0.08786   0.60528   0.64078   0.00000  Uiso   1.00
H41    H     0.18264   0.66856   0.64063   0.00000  Uiso   1.00
H42    H     0.22769   0.60514   0.35841   0.00000  Uiso   1.00
H43    H     0.22788   0.71852   0.59936   0.00000  Uiso   1.00
H44    H     0.42738   0.71864   0.39901   0.00000  Uiso   1.00
C121   C     0.94257   0.99995   0.19056   0.00000  Uiso   1.00
C122   C     0.98745   0.99993   0.09632   0.00000  Uiso   1.00
C123   C     0.05217   0.99990   0.04452   0.00000  Uiso   1.00
H45    H     0.95541   0.99994   0.22017   0.00000  Uiso   1.00
C124   C     0.86296   0.99998   0.18996   0.00000  Uiso   1.00
C125   C     0.91174   0.99996   0.09575   0.00000  Uiso   1.00
C126   C     0.89880   0.99997   0.04337   0.00000  Uiso   1.00
H46    H     0.82089  -0.00000   0.21915   0.00000  Uiso   1.00
C127   C     0.05513   0.99989   0.80334   0.00000  Uiso   1.00
C128   C     0.01024   0.99991   0.89758   0.00000  Uiso   1.00
C129   C     0.94552   0.99994   0.94937   0.00000  Uiso   1.00
H47    H     0.04228   0.99990   0.77373   0.00000  Uiso   1.00
C130   C     0.13474   0.99986   0.80394   0.00000  Uiso   1.00
C131   C     0.08595   0.99988   0.89815   0.00000  Uiso   1.00
C132   C     0.09889   0.99987   0.95053   0.00000  Uiso   1.00
H48    H     0.17681   0.99984   0.77475   0.00000  Uiso   1.00
C133   C     0.87825   0.99998   0.23957   0.00000  Uiso   1.00
C134   C     0.97675   0.99993   0.04140   0.00000  Uiso   1.00
C135   C     0.11944   0.99986   0.75433   0.00000  Uiso   1.00
C136   C     0.02094   0.99991   0.95250   0.00000  Uiso   1.00
C137   C     0.63605   0.00002   0.80704   0.00000  Uiso   1.00
C138   C     0.58727   0.00005   0.90125   0.00000  Uiso   1.00
C139   C     0.60024   0.00005   0.95363   0.00000  Uiso   1.00
H49    H     0.67813   0.00001   0.77784   0.00000  Uiso   1.00
C140   C     0.55640   0.00003   0.80645   0.00000  Uiso   1.00
C141   C     0.51152   0.00006   0.90069   0.00000  Uiso   1.00
C142   C     0.44678   0.00008   0.95249   0.00000  Uiso   1.00
H50    H     0.54354   0.00003   0.77685   0.00000  Uiso   1.00
C143   C     0.36426   0.00013   0.19307   0.00000  Uiso   1.00
C144   C     0.41303   0.00011   0.09886   0.00000  Uiso   1.00
C145   C     0.40007   0.00010   0.04648   0.00000  Uiso   1.00
H51    H     0.32217   0.00015   0.22227   0.00000  Uiso   1.00
C146   C     0.44391   0.00012   0.19366   0.00000  Uiso   1.00
C147   C     0.48878   0.00010   0.09942   0.00000  Uiso   1.00
C148   C     0.55352   0.00008   0.04762   0.00000  Uiso   1.00
H52    H     0.45677   0.00012   0.22327   0.00000  Uiso   1.00
C149   C     0.62073   0.00001   0.75744   0.00000  Uiso   1.00
C150   C     0.52224   0.00007   0.95561   0.00000  Uiso   1.00
C151   C     0.37958   0.00014   0.24268   0.00000  Uiso   1.00
C152   C     0.47806   0.00009   0.04450   0.00000  Uiso   1.00
O33    O     0.91827   0.49995   0.25582   0.00000  Uiso   1.00
H53    H     0.94949   0.49995   0.26713   0.00000  Uiso   1.00
O34    O     0.82356   0.49995   0.25583   0.00000  Uiso   1.00
H54    H     0.78113   0.49995   0.26714   0.00000  Uiso   1.00
O35    O     0.67630   0.49995   0.74415   0.00000  Uiso   1.00
H55    H     0.71873   0.49995   0.73283   0.00000  Uiso   1.00
O36    O     0.58160   0.49996   0.74416   0.00000  Uiso   1.00
H56    H     0.55038   0.49996   0.73285   0.00000  Uiso   1.00
O37    O     0.32365   0.50000   0.25582   0.00000  Uiso   1.00
H57    H     0.28122   0.50000   0.26713   0.00000  Uiso   1.00
O38    O     0.41835   0.50000   0.25583   0.00000  Uiso   1.00
H58    H     0.44957   0.50000   0.26714   0.00000  Uiso   1.00
O39    O     0.08178   0.50008   0.74415   0.00000  Uiso   1.00
H59    H     0.05055   0.50007   0.73283   0.00000  Uiso   1.00
O40    O     0.17648   0.50008   0.74415   0.00000  Uiso   1.00
H60    H     0.21891   0.50008   0.73285   0.00000  Uiso   1.00
O41    O     0.16723   0.99984   0.90286   0.00000  Uiso   1.00
H61    H     0.19834   0.99983   0.82895   0.00000  Uiso   1.00
O42    O     0.07279   0.99989   0.09286   0.00000  Uiso   1.00
H62    H     0.03046   0.99991   0.16670   0.00000  Uiso   1.00
O43    O     0.92490   0.99995   0.90104   0.00000  Uiso   1.00
H63    H     0.96723   0.99993   0.82720   0.00000  Uiso   1.00
O44    O     0.83046  -0.00000   0.09103   0.00000  Uiso   1.00
H64    H     0.79935   0.00001   0.16495   0.00000  Uiso   1.00
O45    O     0.57417   0.00008   0.09595   0.00000  Uiso   1.00
H65    H     0.53184   0.00010   0.16979   0.00000  Uiso   1.00
O46    O     0.66859   0.00003   0.90596   0.00000  Uiso   1.00
H66    H     0.69969   0.00001   0.83204   0.00000  Uiso   1.00
O47    O     0.33171   0.00012   0.09415   0.00000  Uiso   1.00
H67    H     0.30061   0.00014   0.16807   0.00000  Uiso   1.00
O48    O     0.42614   0.00007   0.90416   0.00000  Uiso   1.00
H68    H     0.46847   0.00005   0.83032   0.00000  Uiso   1.00
O49    O     0.97997   0.10151   0.49900   0.00000  Uiso   1.00
Li1    Li    0.05368   0.11398   0.49925   0.00000  Uiso   1.00
O50    O     0.07234   0.21497   0.61078   0.00000  Uiso   1.00
Li2    Li    0.09233   0.22823   0.68867   0.00000  Uiso   1.00
O51    O     0.16374   0.32788   0.65650   0.00000  Uiso   1.00
Li3    Li    0.12829   0.34073   0.76679   0.00000  Uiso   1.00
O52    O     0.02049   0.89855   0.50105   0.00000  Uiso   1.00
Li4    Li    0.94676   0.88611   0.50092   0.00000  Uiso   1.00
O53    O     0.81715   0.78496   0.61224   0.00000  Uiso   1.00
Li5    Li    0.71991   0.77165   0.68984   0.00000  Uiso   1.00
O54    O     0.68032   0.67196   0.65756   0.00000  Uiso   1.00
Li6    Li    0.60617   0.65900   0.76777   0.00000  Uiso   1.00
O55    O     0.32434   0.10150   0.50122   0.00000  Uiso   1.00
Li7    Li    0.28806   0.11398   0.50097   0.00000  Uiso   1.00
O56    O     0.57241   0.21496   0.38937   0.00000  Uiso   1.00
Li8    Li    0.59221   0.22822   0.31147   0.00000  Uiso   1.00
O57    O     0.81980   0.32787   0.34359   0.00000  Uiso   1.00
Li9    Li    0.89381   0.34071   0.23328   0.00000  Uiso   1.00
O58    O     0.67538   0.89853   0.49868   0.00000  Uiso   1.00
Li10   Li    0.71179   0.88610   0.49882   0.00000  Uiso   1.00
O59    O     0.53788   0.78494   0.38756   0.00000  Uiso   1.00
Li11   Li    0.59517   0.77163   0.30997   0.00000  Uiso   1.00
O60    O     0.33566   0.67195   0.34231   0.00000  Uiso   1.00
Li12   Li    0.37092   0.65898   0.23210   0.00000  Uiso   1.00
