# Generated by REPEAT Assigner based on pymatgen
data_DB1-Zn2O8N2-ADC_A-irmof14_A_No598
_audit_creation_date              2022-05-24
_audit_creation_method            REPEAT_Assigner
_cell_length_a                    33.471500
_cell_length_b                    22.128200
_cell_length_c                    22.116300
_cell_angle_alpha                 122.224000
_cell_angle_beta                  43.017000
_cell_angle_gamma                 137.013000
_cell_volume                      7619.565995
_symmetry_space_group_name_H-M    P1
_symmetry_Int_Tables_number       1
loop_
    _symmetry_equiv_pos_site_id
    _symmetry_equiv_pos_as_xyz
    1  x,y,z
loop_
    _atom_site_type_symbol
    _atom_site_label
    _atom_site_fract_x
    _atom_site_fract_y
    _atom_site_fract_z
    _atom_type_partial_charge
    O   O1   0.472990  0.495950  0.631190  -0.503304
    O   O2   0.398840  0.503340  0.624250  -0.557820
    C   C1   0.413480  0.499770  0.672720  0.409451
    Zn  Zn1  0.545370  0.495760  0.504210  0.986385
    O   O3   0.398890  0.375770  0.496520  -0.531655
    O   O4   0.473310  0.368760  0.503320  -0.537817
    C   C2   0.413580  0.327240  0.499970  0.408713
    O   O5   0.526940  0.503880  0.368780  -0.564664
    O   O6   0.601250  0.496820  0.375720  -0.505911
    C   C3   0.586570  0.500290  0.327250  0.420614
    Zn  Zn2  0.454640  0.504230  0.495760  1.014203
    O   O7   0.601030  0.624230  0.503640  -0.538510
    O   O8   0.526780  0.631230  0.496500  -0.531065
    C   C4   0.586280  0.672750  0.500310  0.406198
    O   O9   0.026730  0.631210  0.496680  -0.506953
    O   O10  0.100880  0.624260  0.504040  -0.561137
    C   C5   0.086150  0.672740  0.500720  0.415717
    Zn  Zn3  0.954600  0.504230  0.495850  0.989824
    O   O11  0.101340  0.497180  0.375820  -0.528581
    O   O12  0.026910  0.503990  0.368850  -0.536907
    C   C6   0.086740  0.500860  0.327310  0.404117
    O   O13  0.973300  0.368800  0.503280  -0.570529
    O   O14  0.898980  0.375750  0.496260  -0.513757
    C   C7   0.913760  0.327270  0.499480  0.434926
    Zn  Zn4  0.045350  0.495780  0.504270  1.013009
    O   O15  0.898700  0.503010  0.624310  -0.537153
    O   O16  0.972960  0.495870  0.631270  -0.528678
    C   C8   0.913360  0.499450  0.672820  0.403308
    N   N1   0.901230  0.509210  0.490880  -0.206610
    C   C9   0.824730  0.454230  0.545590  0.131009
    C   C10  0.786320  0.457730  0.542100  0.381255
    C   C11  0.823540  0.516580  0.483540  -0.466231
    C   C12  0.899950  0.571420  0.428980  0.440810
    C   C13  0.938290  0.567880  0.432510  0.120276
    C   C14  0.786250  0.523910  0.476240  0.069301
    C   C15  0.713700  0.476060  0.523850  0.071339
    C   C16  0.600000  0.428560  0.571090  0.441381
    C   C17  0.676410  0.483390  0.516540  -0.466566
    C   C18  0.713640  0.542250  0.457970  0.379137
    C   C19  0.675230  0.545760  0.454480  0.133127
    N   N2   0.598730  0.490780  0.509180  -0.207815
    C   C20  0.561670  0.432100  0.567560  0.121275
    H   H1   0.821490  0.571690  0.428700  0.050981
    H   H2   0.678460  0.428280  0.571390  0.050098
    N   N3   0.098730  0.490800  0.509220  -0.216261
    C   C21  0.175220  0.545650  0.454370  0.191966
    C   C22  0.213640  0.542160  0.457860  0.231376
    C   C23  0.176430  0.483450  0.516570  -0.229560
    C   C24  0.100020  0.428750  0.571270  0.247910
    C   C25  0.061670  0.432280  0.567740  0.201410
    C   C26  0.213730  0.476140  0.523870  -0.032356
    C   C27  0.286280  0.523880  0.476130  -0.031706
    C   C28  0.399980  0.571260  0.428750  0.247878
    C   C29  0.323570  0.516560  0.483440  -0.229853
    C   C30  0.286350  0.457850  0.542150  0.231205
    C   C31  0.324770  0.454360  0.545640  0.193158
    N   N4   0.401270  0.509200  0.490800  -0.218831
    C   C32  0.438320  0.567720  0.432270  0.203651
    H   H3   0.178490  0.428480  0.571530  0.130018
    H   H4   0.321520  0.571540  0.428470  0.129913
    C   C33  0.622410  0.503210  0.187210  -0.282991
    C   C34  0.670280  0.502940  0.094670  0.130893
    C   C35  0.664060  0.505890  0.040550  -0.130967
    H   H5   0.585470  0.505380  0.214080  0.201715
    H   H6   0.627010  0.508060  0.067650  0.121553
    C   C36  0.687630  0.497020  0.193130  -0.220047
    C   C37  0.732310  0.497050  0.100310  0.207131
    C   C38  0.789700  0.493970  0.051970  -0.125150
    H   H7   0.695680  0.494930  0.224100  0.125685
    C   C39  0.877520  0.496530  0.812860  -0.262200
    C   C40  0.829640  0.496800  0.905390  0.124630
    C   C41  0.835870  0.493850  0.959520  -0.125872
    H   H8   0.914450  0.494360  0.785980  0.164802
    H   H9   0.872920  0.491680  0.932410  0.121002
    C   C42  0.812300  0.502720  0.806930  -0.292295
    C   C43  0.767620  0.502690  0.899750  0.236945
    C   C44  0.710220  0.505770  0.948100  -0.133385
    H   H10  0.804240  0.504820  0.775970  0.196400
    C   C45  0.630800  0.500180  0.238670  0.124395
    C   C46  0.728130  0.499930  0.043750  -0.005642
    C   C47  0.869130  0.499560  0.761390  0.147700
    C   C48  0.771790  0.499820  0.956310  -0.016835
    C   C49  0.312610  0.503410  0.806840  -0.283311
    C   C50  0.268000  0.503520  0.899670  0.119965
    C   C51  0.210720  0.506830  0.948020  -0.127750
    H   H11  0.304580  0.505560  0.775890  0.204221
    H   H12  0.202800  0.508980  0.916830  0.123797
    C   C52  0.377690  0.496930  0.812760  -0.244404
    C   C53  0.329890  0.497360  0.905290  0.232462
    C   C54  0.336100  0.494350  0.959410  -0.137747
    H   H13  0.414550  0.494610  0.785880  0.137234
    C   C55  0.188120  0.498030  0.193030  -0.251977
    C   C56  0.232720  0.497920  0.100210  0.107380
    C   C57  0.290010  0.494610  0.051860  -0.118326
    H   H14  0.196150  0.495880  0.223990  0.162711
    H   H15  0.297920  0.492460  0.083050  0.121927
    C   C58  0.123040  0.504510  0.187120  -0.300257
    C   C59  0.170830  0.504080  0.094590  0.254054
    C   C60  0.164630  0.507090  0.040470  -0.141980
    H   H16  0.086180  0.506830  0.214000  0.198812
    C   C61  0.369330  0.500030  0.761300  0.135356
    C   C62  0.272160  0.500590  0.956220  -0.008957
    C   C63  0.131400  0.501410  0.238580  0.143345
    C   C64  0.228570  0.500850  0.043660  -0.013886
    C   C65  0.312260  0.192970  0.497140  -0.247290
    C   C66  0.267490  0.100150  0.497390  0.101375
    C   C67  0.209930  0.051660  0.494540  -0.114228
    H   H17  0.304150  0.223840  0.495050  0.162140
    H   H18  0.201930  0.082760  0.492460  0.120978
    C   C68  0.377730  0.187320  0.503110  -0.294687
    C   C69  0.329750  0.094770  0.503070  0.248348
    C   C70  0.336050  0.040780  0.506030  -0.139123
    H   H19  0.414780  0.214290  0.505130  0.197203
    C   C71  0.187470  0.807010  0.503540  -0.282887
    C   C72  0.232230  0.899830  0.503290  0.120794
    C   C73  0.289800  0.948320  0.506140  -0.129735
    H   H20  0.195580  0.776140  0.505630  0.204650
    H   H21  0.297800  0.917220  0.508230  0.124170
    C   C74  0.122000  0.812660  0.497580  -0.241512
    C   C75  0.169970  0.905210  0.497620  0.233836
    C   C76  0.163670  0.959210  0.494650  -0.141039
    H   H22  0.084950  0.785690  0.495550  0.136759
    C   C77  0.369260  0.238650  0.500070  0.137773
    C   C78  0.271740  0.043720  0.500290  -0.007474
    C   C79  0.130470  0.761330  0.500610  0.130809
    C   C80  0.227990  0.956270  0.500390  -0.011615
    C   C81  0.621770  0.812670  0.497910  -0.264444
    C   C82  0.669440  0.905220  0.498550  0.129367
    C   C83  0.663040  0.959210  0.495770  -0.129556
    H   H23  0.584860  0.785700  0.495590  0.165557
    H   H24  0.626030  0.932020  0.493460  0.121643
    C   C84  0.687090  0.807010  0.504160  -0.291774
    C   C85  0.731560  0.899830  0.504500  0.234821
    C   C86  0.788880  0.948310  0.507820  -0.128489
    H   H25  0.695240  0.776140  0.506170  0.195911
    C   C87  0.876120  0.187310  0.506170  -0.277820
    C   C88  0.828450  0.094770  0.505530  0.129586
    C   C89  0.834840  0.040770  0.508310  -0.135633
    H   H26  0.913020  0.214280  0.508490  0.202172
    H   H27  0.871860  0.067970  0.510620  0.122579
    C   C90  0.810800  0.192970  0.499920  -0.210294
    C   C91  0.766330  0.100150  0.499580  0.199401
    C   C92  0.709000  0.051670  0.496260  -0.120870
    H   H28  0.802650  0.223840  0.497910  0.123019
    C   C93  0.630320  0.761340  0.500780  0.147317
    C   C94  0.727210  0.956270  0.501810  -0.020311
    C   C95  0.867570  0.238650  0.503300  0.110832
    C   C96  0.770670  0.043710  0.502270  -0.000208
    H   H29  0.051150  0.663060  0.399060  0.274125
    H   H30  0.049790  0.637110  0.302400  0.242745
    N   N5   0.020320  0.627990  0.372710  -0.553059
    H   H31  0.925180  0.614170  0.325210  0.325260
    H   H32  0.990470  0.703980  0.358330  0.288958
    N   N6   0.942270  0.635520  0.365210  -0.744953
    H   H33  0.800610  0.350850  0.587210  0.279647
    H   H34  0.734740  0.383010  0.677680  0.235467
    N   N7   0.783010  0.390390  0.609100  -0.555673
    H   H35  0.672310  0.421410  0.639460  0.281993
    H   H36  0.676200  0.326590  0.611330  0.267272
    N   N8   0.704370  0.396500  0.603010  -0.640452
    H   H37  0.827530  0.639810  0.422160  0.280827
    H   H38  0.823880  0.612160  0.327190  0.265137
    N   N9   0.795590  0.603480  0.397060  -0.637205
    H   H39  0.699490  0.587910  0.351300  0.278591
    H   H40  0.765110  0.678210  0.383930  0.237131
    N   N10  0.716960  0.609600  0.390960  -0.557651
    H   H41  0.574890  0.324570  0.613320  0.325817
    H   H42  0.509360  0.357240  0.703290  0.289041
    N   N11  0.557680  0.364460  0.634870  -0.746618
    H   H43  0.448690  0.398170  0.662550  0.273182
    H   H44  0.450280  0.301640  0.636120  0.243102
    N   N12  0.479640  0.372000  0.627360  -0.552517
    H   H45  0.948770  0.398580  0.662840  0.281494
    H   H46  0.950220  0.301990  0.636650  0.279549
    N   N13  0.979640  0.372320  0.627700  -0.598201
    H   H47  0.074850  0.324880  0.613750  0.318057
    H   H48  0.009470  0.357770  0.703640  0.291265
    N   N14  0.057710  0.364820  0.635200  -0.751228
    H   H49  0.199380  0.587520  0.351110  0.285212
    H   H50  0.265160  0.677920  0.383490  0.277023
    N   N15  0.216940  0.609320  0.390700  -0.602404
    H   H51  0.327620  0.639620  0.421790  0.274126
    H   H52  0.323800  0.611730  0.326900  0.271676
    N   N16  0.295590  0.603230  0.396790  -0.673273
    H   H53  0.172410  0.421780  0.639620  0.274074
    H   H54  0.176160  0.326890  0.611730  0.271694
    N   N17  0.204410  0.396780  0.603230  -0.672821
    H   H55  0.300570  0.351080  0.587520  0.286519
    H   H56  0.234860  0.383480  0.677920  0.277501
    N   N18  0.283050  0.390680  0.609320  -0.604563
    H   H57  0.425130  0.613740  0.324870  0.318373
    H   H58  0.490580  0.703640  0.357760  0.291442
    N   N19  0.442300  0.635190  0.364810  -0.751759
    H   H59  0.551260  0.662810  0.398570  0.283284
    H   H60  0.549750  0.636620  0.301990  0.281074
    N   N20  0.520360  0.627680  0.372320  -0.602098
    Br  Br1  0.692530  0.510440  0.878590  -0.096448
    Br  Br2  0.807400  0.489300  0.121470  -0.097546
    Br  Br3  0.082240  0.512260  0.100870  -0.098072
    Br  Br4  0.418490  0.489180  0.899010  -0.098445
    Br  Br5  0.080860  0.898590  0.490140  -0.098009
    Br  Br6  0.418870  0.101390  0.510540  -0.098428
    Br  Br7  0.691090  0.120970  0.491790  -0.098702
    Br  Br8  0.806800  0.879010  0.512290  -0.097434
