# Generated by REPEAT Assigner based on pymatgen
data_DB1-Cu2N8-ADC_B-DPAC_B_No778
_audit_creation_date              2022-05-24
_audit_creation_method            REPEAT_Assigner
_cell_length_a                    20.781400
_cell_length_b                    39.288300
_cell_length_c                    7.052800
_cell_angle_alpha                 89.998900
_cell_angle_beta                  89.995200
_cell_angle_gamma                 58.059000
_cell_volume                      4886.514801
_symmetry_space_group_name_H-M    P1
_symmetry_Int_Tables_number       1
loop_
    _symmetry_equiv_pos_site_id
    _symmetry_equiv_pos_as_xyz
    1  x,y,z
loop_
    _atom_site_type_symbol
    _atom_site_label
    _atom_site_fract_x
    _atom_site_fract_y
    _atom_site_fract_z
    _atom_type_partial_charge
    Cu  Cu1  0.500000  0.500000  0.000000  0.316258
    Cu  Cu2  0.500000  0.500000  0.500000  0.316601
    N   N1   0.414790  0.542290  0.156220  0.020793
    N   N2   0.352200  0.574040  0.092930  -0.334699
    N   N3   0.499390  0.457710  0.343800  0.018409
    N   N4   0.500310  0.425960  0.407110  -0.366021
    N   N5   0.585210  0.457710  0.656180  0.020959
    N   N6   0.647800  0.425960  0.592870  -0.334857
    N   N7   0.500610  0.542290  0.843800  0.018305
    N   N8   0.499690  0.574040  0.907090  -0.365783
    N   N9   0.585210  0.457710  0.843780  0.018510
    N   N10  0.647800  0.425960  0.907070  -0.331100
    N   N11  0.500610  0.542290  0.656200  0.016526
    N   N12  0.499690  0.574040  0.592890  -0.362875
    N   N13  0.414790  0.542290  0.343820  0.018572
    N   N14  0.352200  0.574040  0.407130  -0.331110
    N   N15  0.499390  0.457710  0.156210  0.016590
    N   N16  0.500310  0.425960  0.092910  -0.363099
    C   C1   0.314600  0.592830  0.250030  0.581434
    C   C2   0.500290  0.407170  0.250010  0.631100
    C   C3   0.685410  0.407170  0.749970  0.581548
    C   C4   0.499720  0.592830  0.749990  0.630611
    Cu  Cu3  0.500090  0.999980  0.000120  0.316102
    Cu  Cu4  0.500000  0.000000  0.500120  0.316398
    N   N17  0.585260  0.957690  0.156390  0.019826
    N   N18  0.647860  0.925930  0.093150  -0.333064
    N   N19  0.500660  0.042280  0.343940  0.017609
    N   N20  0.499750  0.074030  0.407260  -0.365219
    N   N21  0.414770  0.042300  0.656250  0.020728
    N   N22  0.352200  0.074050  0.592900  -0.334986
    N   N23  0.499300  0.957730  0.843900  0.016709
    N   N24  0.500200  0.925980  0.907190  -0.365062
    N   N25  0.414740  0.042310  0.843850  0.018365
    N   N26  0.352140  0.074070  0.907100  -0.331502
    N   N27  0.499340  0.957720  0.656300  0.017421
    N   N28  0.500250  0.925970  0.592990  -0.363896
    N   N29  0.585230  0.957700  0.343990  0.018190
    N   N30  0.647810  0.925940  0.407350  -0.330870
    N   N31  0.500700  0.042270  0.156340  0.016221
    N   N32  0.499810  0.074020  0.093060  -0.362998
    C   C5   0.685430  0.907150  0.250280  0.581706
    C   C6   0.499810  0.092800  0.250160  0.631075
    C   C7   0.314570  0.092850  0.749970  0.582045
    C   C8   0.500190  0.907190  0.750080  0.631412
    C   C9   0.500130  0.871140  0.750060  -0.285694
    C   C10  0.500120  0.852410  0.578010  0.085191
    C   C11  0.500060  0.816580  0.577480  -0.396112
    C   C12  0.500010  0.798430  0.750020  0.395757
    C   C13  0.500020  0.816580  0.922590  -0.397413
    C   C14  0.500070  0.852410  0.922100  0.088560
    C   C15  0.499960  0.765230  0.750000  -0.166065
    C   C16  0.499910  0.734800  0.749980  -0.167034
    C   C17  0.499860  0.701600  0.749990  0.397329
    C   C18  0.499830  0.683450  0.577440  -0.397744
    C   C19  0.499780  0.647620  0.577940  0.086146
    C   C20  0.499760  0.628880  0.749990  -0.285574
    C   C21  0.499790  0.647620  0.922030  0.088684
    C   C22  0.499840  0.683450  0.922540  -0.398251
    H   H1   0.500060  0.804010  0.450150  0.168925
    H   H2   0.499980  0.804020  0.049900  0.169459
    H   H3   0.499850  0.696020  0.450120  0.169267
    H   H4   0.499860  0.696020  0.049860  0.169542
    C   C23  0.499870  0.128860  0.250140  -0.285268
    C   C24  0.499880  0.147590  0.078080  0.085083
    C   C25  0.499940  0.183420  0.077550  -0.395943
    C   C26  0.499990  0.201570  0.250090  0.395356
    C   C27  0.499980  0.183410  0.422650  -0.396516
    C   C28  0.499930  0.147590  0.422170  0.087602
    C   C29  0.500040  0.234770  0.250060  -0.166007
    C   C30  0.500090  0.265200  0.250030  -0.167059
    C   C31  0.500140  0.298400  0.250030  0.397440
    C   C32  0.500170  0.316550  0.077480  -0.397786
    C   C33  0.500220  0.352380  0.077980  0.086170
    C   C34  0.500240  0.371120  0.250010  -0.285946
    C   C35  0.500210  0.352380  0.422060  0.088994
    C   C36  0.500160  0.316550  0.422580  -0.398392
    H   H5   0.499950  0.195990  0.950220  0.168897
    H   H6   0.500020  0.195980  0.549960  0.169068
    H   H7   0.500150  0.303980  0.950160  0.169295
    H   H8   0.500150  0.303980  0.549900  0.169605
    C   C37  0.757500  0.871180  0.250240  -0.285182
    C   C38  0.795010  0.852450  0.078180  0.091363
    C   C39  0.866720  0.816620  0.077630  -0.380269
    C   C40  0.903060  0.798450  0.250170  0.395199
    C   C41  0.866720  0.816600  0.422740  -0.378694
    C   C42  0.795000  0.852430  0.422270  0.087909
    C   C43  0.969510  0.765240  0.250130  -0.177837
    C   C44  0.030410  0.734820  0.250100  -0.179466
    C   C45  0.096870  0.701610  0.250090  0.396444
    C   C46  0.133200  0.683450  0.077530  -0.380402
    C   C47  0.204920  0.647620  0.078020  0.091700
    C   C48  0.242430  0.628880  0.250050  -0.284973
    C   C49  0.204920  0.647620  0.422100  0.087658
    C   C50  0.133210  0.683450  0.422630  -0.379278
    H   H9   0.891880  0.804050  0.950300  0.165212
    H   H10  0.891880  0.804020  0.550050  0.164440
    H   H11  0.108040  0.696020  0.950210  0.165117
    H   H12  0.108050  0.696020  0.549960  0.164735
    C   C51  0.242560  0.128860  0.749760  -0.283962
    C   C52  0.205060  0.147600  0.921820  0.086949
    C   C53  0.133340  0.183420  0.922370  -0.378371
    C   C54  0.096980  0.201570  0.749830  0.395143
    C   C55  0.133310  0.183410  0.577260  -0.379122
    C   C56  0.205030  0.147590  0.577730  0.090847
    C   C57  0.030510  0.234770  0.749870  -0.178957
    C   C58  0.969610  0.265190  0.749900  -0.178487
    C   C59  0.903140  0.298400  0.749910  0.396030
    C   C60  0.866800  0.316550  0.922470  -0.379463
    C   C61  0.795080  0.352380  0.921980  0.088186
    C   C62  0.757580  0.371120  0.749950  -0.285292
    C   C63  0.795080  0.352380  0.577900  0.091287
    C   C64  0.866800  0.316550  0.577370  -0.380144
    H   H13  0.108190  0.195990  0.049700  0.164655
    H   H14  0.108130  0.195980  0.449950  0.164884
    H   H15  0.891970  0.303980  0.049790  0.164726
    H   H16  0.891960  0.303980  0.450040  0.165048
    C   C65  0.500170  0.871260  0.384600  -0.173528
    H   H17  0.544680  0.852590  0.314240  0.130735
    H   H18  0.500100  0.895410  0.406000  0.038721
    H   H19  0.455780  0.877420  0.313960  0.121797
    C   C66  0.500080  0.871270  0.115520  -0.178719
    H   H20  0.455560  0.877550  0.185870  0.119806
    H   H21  0.500240  0.895350  0.094140  0.041880
    H   H22  0.544450  0.852560  0.186160  0.131797
    C   C67  0.499750  0.628770  0.384530  -0.173251
    H   H23  0.455260  0.647430  0.314160  0.131053
    H   H24  0.499840  0.604610  0.405920  0.038026
    H   H25  0.544150  0.622600  0.313890  0.121323
    C   C68  0.499760  0.628760  0.115450  -0.178534
    H   H26  0.544280  0.622490  0.185820  0.120119
    H   H27  0.499610  0.604670  0.094060  0.042492
    H   H28  0.455380  0.647470  0.186080  0.131472
    C   C69  0.499830  0.128740  0.884680  -0.173969
    H   H29  0.455330  0.147400  0.814340  0.131103
    H   H30  0.499910  0.104590  0.906090  0.038418
    H   H31  0.544220  0.122580  0.814010  0.122154
    C   C70  0.499920  0.128730  0.615600  -0.176633
    H   H32  0.544440  0.122450  0.685930  0.118995
    H   H33  0.499760  0.104640  0.594230  0.041715
    H   H34  0.455550  0.147440  0.686260  0.131163
    C   C71  0.500250  0.371230  0.884550  -0.173516
    H   H35  0.544750  0.352570  0.814170  0.131243
    H   H36  0.500170  0.395390  0.905940  0.038207
    H   H37  0.455850  0.377400  0.813940  0.121480
    C   C72  0.500240  0.371240  0.615480  -0.178670
    H   H38  0.455730  0.377510  0.685870  0.120090
    H   H39  0.500390  0.395330  0.594080  0.042581
    H   H40  0.544620  0.352530  0.686090  0.131404
    C   C73  0.757270  0.871320  0.884780  -0.195474
    H   H41  0.789240  0.877590  0.814420  0.121937
    H   H42  0.708940  0.895410  0.906200  0.042954
    H   H43  0.750300  0.852620  0.814130  0.136545
    C   C74  0.757260  0.871280  0.615700  -0.189015
    H   H44  0.750080  0.852620  0.686050  0.134509
    H   H45  0.709030  0.895440  0.594340  0.038852
    H   H46  0.789340  0.877430  0.686350  0.123837
    C   C75  0.242660  0.628760  0.884590  -0.195610
    H   H47  0.210690  0.622490  0.814220  0.122198
    H   H48  0.290990  0.604670  0.905970  0.043988
    H   H49  0.249630  0.647470  0.813960  0.135813
    C   C76  0.242670  0.628760  0.615510  -0.187270
    H   H50  0.249840  0.647420  0.685890  0.134736
    H   H51  0.290900  0.604610  0.594110  0.038163
    H   H52  0.210590  0.622600  0.686140  0.123061
    C   C77  0.242830  0.128740  0.115220  -0.189858
    H   H53  0.250000  0.147400  0.185570  0.135123
    H   H54  0.291060  0.104590  0.093800  0.039399
    H   H55  0.210770  0.122580  0.185880  0.123881
    C   C78  0.242760  0.128730  0.384300  -0.196673
    H   H56  0.210790  0.122450  0.313960  0.122150
    H   H57  0.291100  0.104640  0.405660  0.044372
    H   H58  0.249710  0.147440  0.313640  0.136373
    C   C79  0.757340  0.371230  0.115410  -0.187840
    H   H59  0.750170  0.352570  0.185790  0.134811
    H   H60  0.709100  0.395390  0.094030  0.038205
    H   H61  0.789410  0.377390  0.186020  0.123102
    C   C80  0.757340  0.371240  0.384490  -0.193989
    H   H62  0.789300  0.377510  0.314100  0.121742
    H   H63  0.709000  0.395330  0.405890  0.043607
    H   H64  0.750370  0.352530  0.313870  0.135339
