data_DB1-Cu2O8N2-DPAC_A-irmof12_A_No24_repeat
_audit_creation_date              2024-02-20
_audit_creation_method            'Materials Studio'
_symmetry_space_group_name_H-M    'P1'
_symmetry_Int_Tables_number       1
_symmetry_cell_setting            triclinic
loop_
_symmetry_equiv_pos_as_xyz
  x,y,z
_cell_length_a                    32.3913
_cell_length_b                    17.3722
_cell_length_c                    15.8500
_cell_angle_alpha                 89.9944
_cell_angle_beta                  89.9927
_cell_angle_gamma                 89.8696
loop_
_atom_site_label
_atom_site_type_symbol
_atom_site_fract_x
_atom_site_fract_y
_atom_site_fract_z
_atom_site_U_iso_or_equiv
_atom_site_adp_type
_atom_site_occupancy
Cu1    Cu    0.50001   0.50000   0.41971   0.00000  Uiso   1.00
Cu2    Cu    0.50000   0.49999   0.58029   0.00000  Uiso   1.00
O1     O     0.55368   0.49998   0.42512   0.00000  Uiso   1.00
O2     O     0.44622   0.50024   0.42513   0.00000  Uiso   1.00
O3     O     0.49989   0.60030   0.42512   0.00000  Uiso   1.00
O4     O     0.50001   0.39992   0.42513   0.00000  Uiso   1.00
O5     O     0.50010   0.39969   0.57488   0.00000  Uiso   1.00
O6     O     0.50001   0.60007   0.57487   0.00000  Uiso   1.00
O7     O     0.44627   0.50012   0.57488   0.00000  Uiso   1.00
O8     O     0.55379   0.49972   0.57487   0.00000  Uiso   1.00
C1     C     0.57743   0.49983   0.50000   0.00000  Uiso   1.00
C2     C     0.42257   0.50016   0.50001   0.00000  Uiso   1.00
C3     C     0.49995   0.64436   0.49999   0.00000  Uiso   1.00
C4     C     0.50005   0.35563   0.50001   0.00000  Uiso   1.00
Cu3    Cu    0.96368   0.49938   0.58031   0.00000  Uiso   1.00
Cu4    Cu    0.96368   0.49993   0.41973   0.00000  Uiso   1.00
O9     O     0.91000   0.49946   0.57490   0.00000  Uiso   1.00
O10    O     0.01747   0.49956   0.57489   0.00000  Uiso   1.00
O11    O     0.96359   0.59970   0.57529   0.00000  Uiso   1.00
O12    O     0.96388   0.39932   0.57450   0.00000  Uiso   1.00
O13    O     0.96379   0.39960   0.42474   0.00000  Uiso   1.00
O14    O     0.96347   0.59998   0.42554   0.00000  Uiso   1.00
O15    O     0.01741   0.49995   0.42514   0.00000  Uiso   1.00
O16    O     0.90989   0.49972   0.42515   0.00000  Uiso   1.00
C5     C     0.88625   0.49961   0.50002   0.00000  Uiso   1.00
C6     C     0.04111   0.49970   0.50001   0.00000  Uiso   1.00
C7     C     0.96344   0.64402   0.50059   0.00000  Uiso   1.00
C8     C     0.96392   0.35528   0.49944   0.00000  Uiso   1.00
N1     N     0.50001   0.50000   0.30038   0.00000  Uiso   1.00
C9     C     0.47350   0.54947   0.25392   0.00000  Uiso   1.00
C10    C     0.47342   0.54962   0.16508   0.00000  Uiso   1.00
C11    C     0.50000   0.50000   0.12006   0.00000  Uiso   1.00
C12    C     0.52658   0.45037   0.16507   0.00000  Uiso   1.00
C13    C     0.52651   0.45052   0.25391   0.00000  Uiso   1.00
C14    C     0.49999   0.50000   0.03772   0.00000  Uiso   1.00
C15    C     0.49999   0.50000   0.96228   0.00000  Uiso   1.00
C16    C     0.49999   0.49999   0.87995   0.00000  Uiso   1.00
C17    C     0.47340   0.54959   0.83493   0.00000  Uiso   1.00
C18    C     0.47348   0.54945   0.74608   0.00000  Uiso   1.00
N2     N     0.49999   0.49999   0.69962   0.00000  Uiso   1.00
C19    C     0.52650   0.45053   0.74608   0.00000  Uiso   1.00
C20    C     0.52658   0.45039   0.83493   0.00000  Uiso   1.00
H1     H     0.45381   0.58623   0.13391   0.00000  Uiso   1.00
H2     H     0.54619   0.41376   0.13389   0.00000  Uiso   1.00
H3     H     0.45378   0.58619   0.86610   0.00000  Uiso   1.00
H4     H     0.54620   0.41379   0.86610   0.00000  Uiso   1.00
C21    C     0.50004   0.27406   0.50001   0.00000  Uiso   1.00
C22    C     0.49998   0.23168   0.42345   0.00000  Uiso   1.00
C23    C     0.49997   0.15062   0.42322   0.00000  Uiso   1.00
C24    C     0.50001   0.10953   0.49999   0.00000  Uiso   1.00
C25    C     0.50006   0.15059   0.57678   0.00000  Uiso   1.00
C26    C     0.50008   0.23165   0.57656   0.00000  Uiso   1.00
C27    C     0.50000   0.03441   0.49999   0.00000  Uiso   1.00
C28    C     0.49999   0.96558   0.49998   0.00000  Uiso   1.00
C29    C     0.49998   0.89046   0.49998   0.00000  Uiso   1.00
C30    C     0.49991   0.84939   0.42320   0.00000  Uiso   1.00
C31    C     0.49990   0.76833   0.42343   0.00000  Uiso   1.00
C32    C     0.49996   0.72593   0.49999   0.00000  Uiso   1.00
C33    C     0.50002   0.76832   0.57654   0.00000  Uiso   1.00
C34    C     0.50003   0.84938   0.57677   0.00000  Uiso   1.00
H5     H     0.49992   0.12219   0.36656   0.00000  Uiso   1.00
H6     H     0.50009   0.12214   0.63343   0.00000  Uiso   1.00
H7     H     0.49987   0.87784   0.36655   0.00000  Uiso   1.00
H8     H     0.50008   0.87782   0.63342   0.00000  Uiso   1.00
C35    C     0.71224   0.52929   0.35172   0.00000  Uiso   1.00
C36    C     0.71228   0.47018   0.64830   0.00000  Uiso   1.00
C37    C     0.75138   0.52875   0.64841   0.00000  Uiso   1.00
C38    C     0.75146   0.47066   0.35161   0.00000  Uiso   1.00
C39    C     0.64792   0.49990   0.42873   0.00000  Uiso   1.00
C40    C     0.69089   0.49987   0.42721   0.00000  Uiso   1.00
H9     H     0.63417   0.50000   0.37582   0.00000  Uiso   1.00
C41    C     0.64791   0.49966   0.57127   0.00000  Uiso   1.00
C42    C     0.69088   0.49962   0.57280   0.00000  Uiso   1.00
H10    H     0.63415   0.49958   0.62418   0.00000  Uiso   1.00
C43    C     0.81576   0.49953   0.57128   0.00000  Uiso   1.00
C44    C     0.77279   0.49956   0.57281   0.00000  Uiso   1.00
H11    H     0.82951   0.49943   0.62420   0.00000  Uiso   1.00
C45    C     0.81577   0.49978   0.42875   0.00000  Uiso   1.00
C46    C     0.77280   0.49981   0.42722   0.00000  Uiso   1.00
H12    H     0.82954   0.49986   0.37583   0.00000  Uiso   1.00
C47    C     0.62347   0.49980   0.50000   0.00000  Uiso   1.00
C48    C     0.71036   0.49974   0.50001   0.00000  Uiso   1.00
C49    C     0.84021   0.49964   0.50002   0.00000  Uiso   1.00
C50    C     0.75333   0.49970   0.50001   0.00000  Uiso   1.00
H13    H     0.72261   0.59136   0.36113   0.00000  Uiso   1.00
H14    H     0.69108   0.52383   0.29458   0.00000  Uiso   1.00
H15    H     0.72277   0.40809   0.63889   0.00000  Uiso   1.00
H16    H     0.69110   0.47567   0.70543   0.00000  Uiso   1.00
H17    H     0.74089   0.59087   0.63925   0.00000  Uiso   1.00
H18    H     0.77255   0.52306   0.70553   0.00000  Uiso   1.00
H19    H     0.74109   0.40855   0.36077   0.00000  Uiso   1.00
H20    H     0.77263   0.47631   0.29449   0.00000  Uiso   1.00
C51    C     0.08486   0.49976   0.50001   0.00000  Uiso   1.00
C52    C     0.10759   0.49970   0.57657   0.00000  Uiso   1.00
C53    C     0.15106   0.49976   0.57680   0.00000  Uiso   1.00
C54    C     0.17309   0.49987   0.50002   0.00000  Uiso   1.00
C55    C     0.15107   0.49993   0.42324   0.00000  Uiso   1.00
C56    C     0.10760   0.49987   0.42346   0.00000  Uiso   1.00
C57    C     0.21338   0.49992   0.50002   0.00000  Uiso   1.00
C58    C     0.25030   0.49997   0.50003   0.00000  Uiso   1.00
C59    C     0.29059   0.50002   0.50002   0.00000  Uiso   1.00
C60    C     0.31261   0.49998   0.57680   0.00000  Uiso   1.00
C61    C     0.35609   0.50003   0.57657   0.00000  Uiso   1.00
C62    C     0.37883   0.50011   0.50001   0.00000  Uiso   1.00
C63    C     0.35609   0.50015   0.42346   0.00000  Uiso   1.00
C64    C     0.31262   0.50010   0.42324   0.00000  Uiso   1.00
H21    H     0.16631   0.49972   0.63345   0.00000  Uiso   1.00
H22    H     0.16633   0.50001   0.36658   0.00000  Uiso   1.00
H23    H     0.29736   0.49992   0.63346   0.00000  Uiso   1.00
H24    H     0.29737   0.50013   0.36659   0.00000  Uiso   1.00
N3     N     0.96367   0.50241   0.69964   0.00000  Uiso   1.00
C65    C     0.99008   0.55168   0.74629   0.00000  Uiso   1.00
C66    C     0.99016   0.55152   0.83514   0.00000  Uiso   1.00
C67    C     0.96368   0.50178   0.87997   0.00000  Uiso   1.00
C68    C     0.93720   0.45236   0.83476   0.00000  Uiso   1.00
C69    C     0.93727   0.45281   0.74592   0.00000  Uiso   1.00
C70    C     0.96368   0.50150   0.96230   0.00000  Uiso   1.00
C71    C     0.96369   0.50125   0.03774   0.00000  Uiso   1.00
C72    C     0.96369   0.50096   0.12008   0.00000  Uiso   1.00
C73    C     0.99018   0.55036   0.16529   0.00000  Uiso   1.00
C74    C     0.99010   0.54991   0.25413   0.00000  Uiso   1.00
N4     N     0.96369   0.50033   0.30040   0.00000  Uiso   1.00
C75    C     0.93728   0.45107   0.25374   0.00000  Uiso   1.00
C76    C     0.93720   0.45123   0.16490   0.00000  Uiso   1.00
H25    H     0.00970   0.58800   0.86645   0.00000  Uiso   1.00
H26    H     0.91766   0.41566   0.86580   0.00000  Uiso   1.00
H27    H     0.00973   0.58704   0.13426   0.00000  Uiso   1.00
H28    H     0.91765   0.41477   0.13358   0.00000  Uiso   1.00
C77    C     0.96209   0.27371   0.50304   0.00000  Uiso   1.00
C78    C     0.96223   0.23107   0.57943   0.00000  Uiso   1.00
C79    C     0.96241   0.15001   0.57935   0.00000  Uiso   1.00
C80    C     0.96245   0.10918   0.50241   0.00000  Uiso   1.00
C81    C     0.96231   0.15051   0.42579   0.00000  Uiso   1.00
C82    C     0.96213   0.23157   0.42633   0.00000  Uiso   1.00
C83    C     0.96261   0.03406   0.50212   0.00000  Uiso   1.00
C84    C     0.96276   0.96523   0.50186   0.00000  Uiso   1.00
C85    C     0.96292   0.89011   0.50156   0.00000  Uiso   1.00
C86    C     0.96307   0.84878   0.57818   0.00000  Uiso   1.00
C87    C     0.96324   0.76772   0.57764   0.00000  Uiso   1.00
C88    C     0.96327   0.72559   0.50092   0.00000  Uiso   1.00
C89    C     0.96312   0.76824   0.42453   0.00000  Uiso   1.00
C90    C     0.96294   0.84930   0.42462   0.00000  Uiso   1.00
H29    H     0.96250   0.12138   0.63589   0.00000  Uiso   1.00
H30    H     0.96233   0.12225   0.36903   0.00000  Uiso   1.00
H31    H     0.96305   0.87703   0.63495   0.00000  Uiso   1.00
H32    H     0.96284   0.87793   0.36808   0.00000  Uiso   1.00
O17    O     0.44859   0.59598   0.29302   0.00000  Uiso   1.00
Li1    Li    0.41315   0.66214   0.25880   0.00000  Uiso   1.00
O18    O     0.55142   0.40402   0.29300   0.00000  Uiso   1.00
Li2    Li    0.58686   0.33785   0.25876   0.00000  Uiso   1.00
O19    O     0.44856   0.59594   0.70699   0.00000  Uiso   1.00
Li3    Li    0.41310   0.66207   0.74122   0.00000  Uiso   1.00
O20    O     0.55142   0.40404   0.70699   0.00000  Uiso   1.00
Li4    Li    0.58688   0.33790   0.74122   0.00000  Uiso   1.00
O21    O     0.49994   0.26735   0.35149   0.00000  Uiso   1.00
Li5    Li    0.49987   0.23614   0.24911   0.00000  Uiso   1.00
O22    O     0.50013   0.26731   0.64852   0.00000  Uiso   1.00
Li6    Li    0.50019   0.23606   0.75090   0.00000  Uiso   1.00
O23    O     0.49984   0.73267   0.35147   0.00000  Uiso   1.00
Li7    Li    0.49976   0.76391   0.24909   0.00000  Uiso   1.00
O24    O     0.50008   0.73265   0.64850   0.00000  Uiso   1.00
Li8    Li    0.50016   0.76387   0.75088   0.00000  Uiso   1.00
O25    O     0.08845   0.49960   0.64853   0.00000  Uiso   1.00
Li9    Li    0.10519   0.49951   0.75091   0.00000  Uiso   1.00
O26    O     0.08847   0.49993   0.35150   0.00000  Uiso   1.00
Li10   Li    0.10523   0.50007   0.24912   0.00000  Uiso   1.00
O27    O     0.37521   0.50000   0.64853   0.00000  Uiso   1.00
Li11   Li    0.35846   0.49990   0.75091   0.00000  Uiso   1.00
O28    O     0.37522   0.50023   0.35150   0.00000  Uiso   1.00
Li12   Li    0.35848   0.50029   0.24912   0.00000  Uiso   1.00
O29    O     0.01489   0.59828   0.70738   0.00000  Uiso   1.00
Li13   Li    0.05020   0.66428   0.74186   0.00000  Uiso   1.00
O30    O     0.91245   0.40648   0.70665   0.00000  Uiso   1.00
Li14   Li    0.87714   0.34025   0.74063   0.00000  Uiso   1.00
O31    O     0.01493   0.59623   0.29341   0.00000  Uiso   1.00
Li15   Li    0.05025   0.66243   0.25944   0.00000  Uiso   1.00
O32    O     0.91245   0.40449   0.29265   0.00000  Uiso   1.00
Li16   Li    0.87713   0.33851   0.25816   0.00000  Uiso   1.00
O33    O     0.96220   0.26650   0.65153   0.00000  Uiso   1.00
Li17   Li    0.96233   0.23493   0.75379   0.00000  Uiso   1.00
O34    O     0.96201   0.26747   0.35450   0.00000  Uiso   1.00
Li18   Li    0.96201   0.23658   0.25201   0.00000  Uiso   1.00
O35    O     0.96337   0.73181   0.64945   0.00000  Uiso   1.00
Li19   Li    0.96339   0.76270   0.75196   0.00000  Uiso   1.00
O36    O     0.96313   0.73281   0.35243   0.00000  Uiso   1.00
Li20   Li    0.96299   0.76439   0.25017   0.00000  Uiso   1.00
