data_DB1-Cu2O8N2-irmof10_A-irmof14_A_No313_repeat
_audit_creation_date              2024-02-20
_audit_creation_method            'Materials Studio'
_symmetry_space_group_name_H-M    'P1'
_symmetry_Int_Tables_number       1
_symmetry_cell_setting            triclinic
loop_
_symmetry_equiv_pos_as_xyz
  x,y,z
_cell_length_a                    21.0880
_cell_length_b                    29.8428
_cell_length_c                    13.3747
_cell_angle_alpha                 90.0002
_cell_angle_beta                  89.9786
_cell_angle_gamma                 45.1304
loop_
_atom_site_label
_atom_site_type_symbol
_atom_site_fract_x
_atom_site_fract_y
_atom_site_fract_z
_atom_site_U_iso_or_equiv
_atom_site_adp_type
_atom_site_occupancy
Cu1    Cu    0.50000   0.50000   0.40485   0.00000  Uiso   1.00
Cu2    Cu    0.49999   0.50000   0.59515   0.00000  Uiso   1.00
O1     O     0.38366   0.55813   0.41133   0.00000  Uiso   1.00
O2     O     0.61657   0.44189   0.41120   0.00000  Uiso   1.00
O3     O     0.50025   0.55826   0.41126   0.00000  Uiso   1.00
O4     O     0.49998   0.44175   0.41126   0.00000  Uiso   1.00
O5     O     0.49977   0.44172   0.58873   0.00000  Uiso   1.00
O6     O     0.49998   0.55826   0.58873   0.00000  Uiso   1.00
O7     O     0.61643   0.44189   0.58866   0.00000  Uiso   1.00
O8     O     0.38342   0.55810   0.58880   0.00000  Uiso   1.00
C1     C     0.33218   0.58376   0.50010   0.00000  Uiso   1.00
C2     C     0.66781   0.41624   0.49990   0.00000  Uiso   1.00
C3     C     0.50011   0.58398   0.50000   0.00000  Uiso   1.00
C4     C     0.49987   0.41602   0.50000   0.00000  Uiso   1.00
Cu3    Cu    0.49969   0.99934   0.59518   0.00000  Uiso   1.00
Cu4    Cu    0.50026   0.99906   0.40488   0.00000  Uiso   1.00
O9     O     0.38337   0.05720   0.58839   0.00000  Uiso   1.00
O10    O     0.61628   0.94121   0.58913   0.00000  Uiso   1.00
O11    O     0.49996   0.94081   0.58876   0.00000  Uiso   1.00
O12    O     0.49968   0.05760   0.58876   0.00000  Uiso   1.00
O13    O     0.50001   0.05757   0.41129   0.00000  Uiso   1.00
O14    O     0.50023   0.94081   0.41129   0.00000  Uiso   1.00
O15    O     0.61668   0.94109   0.41166   0.00000  Uiso   1.00
O16    O     0.38366   0.05720   0.41092   0.00000  Uiso   1.00
C5     C     0.33216   0.08275   0.49949   0.00000  Uiso   1.00
C6     C     0.66778   0.91565   0.50056   0.00000  Uiso   1.00
C7     C     0.50010   0.91509   0.50002   0.00000  Uiso   1.00
C8     C     0.49984   0.08330   0.50002   0.00000  Uiso   1.00
N1     N     0.49999   0.50000   0.73656   0.00000  Uiso   1.00
N2     N     0.50000   0.50000   0.26343   0.00000  Uiso   1.00
C9     C     0.44319   0.49993   0.78932   0.00000  Uiso   1.00
C10    C     0.44266   0.49993   0.89418   0.00000  Uiso   1.00
C11    C     0.55680   0.50007   0.21068   0.00000  Uiso   1.00
C12    C     0.55733   0.50007   0.10582   0.00000  Uiso   1.00
C13    C     0.44319   0.49993   0.21075   0.00000  Uiso   1.00
C14    C     0.44266   0.49993   0.10589   0.00000  Uiso   1.00
C15    C     0.55680   0.50007   0.78925   0.00000  Uiso   1.00
C16    C     0.55733   0.50007   0.89411   0.00000  Uiso   1.00
C17    C     0.50000   0.50000   0.94717   0.00000  Uiso   1.00
C18    C     0.50000   0.50000   0.05282   0.00000  Uiso   1.00
H1     H     0.40312   0.49988   0.92965   0.00000  Uiso   1.00
H2     H     0.59687   0.50012   0.07035   0.00000  Uiso   1.00
H3     H     0.40381   0.49988   0.24665   0.00000  Uiso   1.00
H4     H     0.40312   0.49988   0.07047   0.00000  Uiso   1.00
H5     H     0.59618   0.50012   0.75335   0.00000  Uiso   1.00
H6     H     0.59687   0.50012   0.92953   0.00000  Uiso   1.00
C19    C     0.49998   0.65340   0.58907   0.00000  Uiso   1.00
C20    C     0.49998   0.70029   0.58471   0.00000  Uiso   1.00
C21    C     0.49985   0.72628   0.67160   0.00000  Uiso   1.00
H7     H     0.49988   0.63882   0.65051   0.00000  Uiso   1.00
H8     H     0.49976   0.71158   0.73304   0.00000  Uiso   1.00
C22    C     0.50024   0.65327   0.41094   0.00000  Uiso   1.00
C23    C     0.50024   0.70017   0.41530   0.00000  Uiso   1.00
C24    C     0.50037   0.72602   0.32842   0.00000  Uiso   1.00
H9     H     0.50034   0.63860   0.34950   0.00000  Uiso   1.00
C25    C     0.50024   0.84567   0.41095   0.00000  Uiso   1.00
C26    C     0.50023   0.79879   0.41531   0.00000  Uiso   1.00
C27    C     0.50036   0.77280   0.32842   0.00000  Uiso   1.00
H10    H     0.50033   0.86026   0.34952   0.00000  Uiso   1.00
H11    H     0.50046   0.78750   0.26699   0.00000  Uiso   1.00
C28    C     0.49997   0.84580   0.58909   0.00000  Uiso   1.00
C29    C     0.49998   0.79891   0.58472   0.00000  Uiso   1.00
C30    C     0.49985   0.77305   0.67160   0.00000  Uiso   1.00
H12    H     0.49987   0.86048   0.65052   0.00000  Uiso   1.00
C31    C     0.50011   0.62880   0.50000   0.00000  Uiso   1.00
C32    C     0.50011   0.72742   0.50001   0.00000  Uiso   1.00
C33    C     0.50010   0.87028   0.50002   0.00000  Uiso   1.00
C34    C     0.50011   0.77166   0.50001   0.00000  Uiso   1.00
C35    C     0.49987   0.36772   0.50000   0.00000  Uiso   1.00
C36    C     0.49985   0.13160   0.50002   0.00000  Uiso   1.00
C37    C     0.49997   0.34404   0.41033   0.00000  Uiso   1.00
C38    C     0.49997   0.29705   0.40950   0.00000  Uiso   1.00
C39    C     0.49975   0.15528   0.58970   0.00000  Uiso   1.00
C40    C     0.49975   0.20228   0.59053   0.00000  Uiso   1.00
C41    C     0.49995   0.15518   0.41034   0.00000  Uiso   1.00
C42    C     0.49996   0.20217   0.40950   0.00000  Uiso   1.00
C43    C     0.49976   0.34415   0.58968   0.00000  Uiso   1.00
C44    C     0.49976   0.29715   0.59052   0.00000  Uiso   1.00
C45    C     0.49986   0.27334   0.50001   0.00000  Uiso   1.00
C46    C     0.49986   0.22599   0.50001   0.00000  Uiso   1.00
H13    H     0.50004   0.28112   0.34708   0.00000  Uiso   1.00
H14    H     0.49968   0.21820   0.65294   0.00000  Uiso   1.00
H15    H     0.50002   0.13906   0.34818   0.00000  Uiso   1.00
H16    H     0.50003   0.21802   0.34708   0.00000  Uiso   1.00
H17    H     0.49969   0.36026   0.65185   0.00000  Uiso   1.00
H18    H     0.49968   0.28131   0.65294   0.00000  Uiso   1.00
C47    C     0.23573   0.63195   0.50017   0.00000  Uiso   1.00
C48    C     0.76423   0.86747   0.50049   0.00000  Uiso   1.00
C49    C     0.18854   0.65559   0.41052   0.00000  Uiso   1.00
C50    C     0.09471   0.70247   0.40975   0.00000  Uiso   1.00
C51    C     0.81142   0.84382   0.59013   0.00000  Uiso   1.00
C52    C     0.90526   0.79695   0.59090   0.00000  Uiso   1.00
C53    C     0.81141   0.84398   0.41078   0.00000  Uiso   1.00
C54    C     0.90525   0.79711   0.40988   0.00000  Uiso   1.00
C55    C     0.18856   0.65544   0.58988   0.00000  Uiso   1.00
C56    C     0.09472   0.70231   0.59077   0.00000  Uiso   1.00
C57    C     0.04726   0.72609   0.50030   0.00000  Uiso   1.00
C58    C     0.95271   0.77332   0.50036   0.00000  Uiso   1.00
H19    H     0.06298   0.71837   0.34736   0.00000  Uiso   1.00
H20    H     0.93699   0.78105   0.65330   0.00000  Uiso   1.00
H21    H     0.77929   0.86007   0.34864   0.00000  Uiso   1.00
H22    H     0.93696   0.78131   0.34744   0.00000  Uiso   1.00
H23    H     0.22067   0.63934   0.65202   0.00000  Uiso   1.00
H24    H     0.06300   0.71810   0.65321   0.00000  Uiso   1.00
C59    C     0.76426   0.36801   0.49985   0.00000  Uiso   1.00
C60    C     0.23575   0.13227   0.49958   0.00000  Uiso   1.00
C61    C     0.81144   0.34446   0.41014   0.00000  Uiso   1.00
C62    C     0.90528   0.29754   0.40926   0.00000  Uiso   1.00
C63    C     0.18857   0.15583   0.58929   0.00000  Uiso   1.00
C64    C     0.09473   0.20274   0.59017   0.00000  Uiso   1.00
C65    C     0.18858   0.15589   0.40993   0.00000  Uiso   1.00
C66    C     0.09474   0.20281   0.40915   0.00000  Uiso   1.00
C67    C     0.81144   0.34439   0.58950   0.00000  Uiso   1.00
C68    C     0.90527   0.29747   0.59028   0.00000  Uiso   1.00
C69    C     0.95273   0.27378   0.49974   0.00000  Uiso   1.00
C70    C     0.04728   0.22651   0.49969   0.00000  Uiso   1.00
H25    H     0.93700   0.28170   0.34682   0.00000  Uiso   1.00
H26    H     0.06301   0.21858   0.65261   0.00000  Uiso   1.00
H27    H     0.22069   0.13986   0.34775   0.00000  Uiso   1.00
H28    H     0.06302   0.21870   0.34675   0.00000  Uiso   1.00
H29    H     0.77932   0.36042   0.65168   0.00000  Uiso   1.00
H30    H     0.93699   0.28159   0.65268   0.00000  Uiso   1.00
N3     N     0.50069   0.99884   0.26346   0.00000  Uiso   1.00
N4     N     0.50227   0.99805   0.73659   0.00000  Uiso   1.00
C71    C     0.44404   0.05547   0.21056   0.00000  Uiso   1.00
C72    C     0.44383   0.05584   0.10570   0.00000  Uiso   1.00
C73    C     0.55892   0.94142   0.78950   0.00000  Uiso   1.00
C74    C     0.55913   0.94105   0.89435   0.00000  Uiso   1.00
C75    C     0.44531   0.05484   0.78913   0.00000  Uiso   1.00
C76    C     0.44446   0.05552   0.89399   0.00000  Uiso   1.00
C77    C     0.55765   0.94205   0.21092   0.00000  Uiso   1.00
C78    C     0.55850   0.94137   0.10607   0.00000  Uiso   1.00
C79    C     0.50132   0.99853   0.05285   0.00000  Uiso   1.00
C80    C     0.50164   0.99837   0.94720   0.00000  Uiso   1.00
H31    H     0.40439   0.09526   0.07013   0.00000  Uiso   1.00
H32    H     0.59857   0.90163   0.92993   0.00000  Uiso   1.00
H33    H     0.40604   0.09409   0.75313   0.00000  Uiso   1.00
H34    H     0.40482   0.09505   0.92931   0.00000  Uiso   1.00
H35    H     0.59692   0.90280   0.24693   0.00000  Uiso   1.00
H36    H     0.59814   0.90184   0.07074   0.00000  Uiso   1.00
O17    O     0.38995   0.49986   0.74083   0.00000  Uiso   1.00
Li1    Li    0.31246   0.49977   0.77829   0.00000  Uiso   1.00
O18    O     0.61004   0.50014   0.25916   0.00000  Uiso   1.00
Li2    Li    0.68753   0.50024   0.22170   0.00000  Uiso   1.00
O19    O     0.50007   0.36573   0.32628   0.00000  Uiso   1.00
Li3    Li    0.50021   0.34889   0.20394   0.00000  Uiso   1.00
O20    O     0.49965   0.13359   0.67375   0.00000  Uiso   1.00
Li4    Li    0.49951   0.15043   0.79608   0.00000  Uiso   1.00
O21    O     0.23196   0.63398   0.32644   0.00000  Uiso   1.00
Li5    Li    0.19847   0.65081   0.20413   0.00000  Uiso   1.00
O22    O     0.76801   0.86544   0.67421   0.00000  Uiso   1.00
Li6    Li    0.80150   0.84861   0.79653   0.00000  Uiso   1.00
O23    O     0.76803   0.36620   0.32612   0.00000  Uiso   1.00
Li7    Li    0.80151   0.34950   0.20376   0.00000  Uiso   1.00
O24    O     0.23199   0.13409   0.67331   0.00000  Uiso   1.00
Li8    Li    0.19850   0.15078   0.79567   0.00000  Uiso   1.00
O25    O     0.39065   0.10870   0.25891   0.00000  Uiso   1.00
Li9    Li    0.31327   0.18600   0.22125   0.00000  Uiso   1.00
O26    O     0.61231   0.88820   0.74115   0.00000  Uiso   1.00
Li10   Li    0.68969   0.81089   0.77881   0.00000  Uiso   1.00
Cl1    Cl    0.49967   0.80098   0.78761   0.00000  Uiso   1.00
Cl2    Cl    0.50054   0.69809   0.21242   0.00000  Uiso   1.00
