data_DB1-Cu2O8N2-AZO_A-irmof6_A_No316_repeat
_audit_creation_date              2024-02-23
_audit_creation_method            'Materials Studio'
_symmetry_space_group_name_H-M    'P1'
_symmetry_Int_Tables_number       1
_symmetry_cell_setting            triclinic
loop_
_symmetry_equiv_pos_as_xyz
  x,y,z
_cell_length_a                    15.6063
_cell_length_b                    17.2765
_cell_length_c                    10.8046
_cell_angle_alpha                 89.9222
_cell_angle_beta                  87.4610
_cell_angle_gamma                 95.7732
loop_
_atom_site_label
_atom_site_type_symbol
_atom_site_fract_x
_atom_site_fract_y
_atom_site_fract_z
_atom_site_U_iso_or_equiv
_atom_site_adp_type
_atom_site_occupancy
Cu1    Cu    0.41809   0.49671   0.50525   0.00000  Uiso   1.00
Cu2    Cu    0.58191   0.50328   0.49477   0.00000  Uiso   1.00
O1     O     0.42361   0.49699   0.66582   0.00000  Uiso   1.00
O2     O     0.42363   0.49711   0.34364   0.00000  Uiso   1.00
O3     O     0.42996   0.59821   0.50419   0.00000  Uiso   1.00
O4     O     0.41728   0.39589   0.50528   0.00000  Uiso   1.00
O5     O     0.57004   0.40178   0.49579   0.00000  Uiso   1.00
O6     O     0.58272   0.60410   0.49478   0.00000  Uiso   1.00
O7     O     0.57639   0.50311   0.33406   0.00000  Uiso   1.00
O8     O     0.57637   0.50286   0.65638   0.00000  Uiso   1.00
C1     C     0.49999   0.49994   0.73213   0.00000  Uiso   1.00
C2     C     0.50001   0.50005   0.26788   0.00000  Uiso   1.00
C3     C     0.50914   0.64576   0.49933   0.00000  Uiso   1.00
C4     C     0.49086   0.35423   0.50069   0.00000  Uiso   1.00
N1     N     0.29635   0.49183   0.51304   0.00000  Uiso   1.00
C5     C     0.25306   0.53979   0.43647   0.00000  Uiso   1.00
C6     C     0.16283   0.53604   0.44245   0.00000  Uiso   1.00
C7     C     0.11406   0.48434   0.52501   0.00000  Uiso   1.00
C8     C     0.15670   0.43657   0.60126   0.00000  Uiso   1.00
C9     C     0.24689   0.44013   0.59558   0.00000  Uiso   1.00
N2     N     0.02155   0.47916   0.53327   0.00000  Uiso   1.00
N3     N     0.97845   0.52083   0.46674   0.00000  Uiso   1.00
C10    C     0.84329   0.56341   0.39875   0.00000  Uiso   1.00
C11    C     0.88594   0.51566   0.47501   0.00000  Uiso   1.00
C12    C     0.83717   0.46395   0.55756   0.00000  Uiso   1.00
C13    C     0.74694   0.46020   0.56354   0.00000  Uiso   1.00
N4     N     0.70365   0.50816   0.48697   0.00000  Uiso   1.00
C14    C     0.75311   0.55986   0.40443   0.00000  Uiso   1.00
H1     H     0.28945   0.58004   0.37221   0.00000  Uiso   1.00
H2     H     0.13079   0.57329   0.38299   0.00000  Uiso   1.00
H3     H     0.11970   0.39657   0.66514   0.00000  Uiso   1.00
H4     H     0.88030   0.60342   0.33488   0.00000  Uiso   1.00
H5     H     0.86921   0.42670   0.61702   0.00000  Uiso   1.00
H6     H     0.71055   0.41995   0.62781   0.00000  Uiso   1.00
C15    C     0.48542   0.26748   0.50100   0.00000  Uiso   1.00
C16    C     0.56076   0.22869   0.49635   0.00000  Uiso   1.00
C17    C     0.55544   0.14721   0.49665   0.00000  Uiso   1.00
C18    C     0.47479   0.10287   0.50160   0.00000  Uiso   1.00
C19    C     0.39976   0.14108   0.50623   0.00000  Uiso   1.00
C20    C     0.40478   0.22251   0.50595   0.00000  Uiso   1.00
N5     N     0.46725   0.01932   0.50203   0.00000  Uiso   1.00
N6     N     0.53275   0.98067   0.49799   0.00000  Uiso   1.00
C21    C     0.60024   0.85891   0.49379   0.00000  Uiso   1.00
C22    C     0.52521   0.89712   0.49842   0.00000  Uiso   1.00
C23    C     0.44456   0.85278   0.50337   0.00000  Uiso   1.00
C24    C     0.43924   0.77130   0.50367   0.00000  Uiso   1.00
C25    C     0.51458   0.73251   0.49902   0.00000  Uiso   1.00
C26    C     0.59522   0.77748   0.49407   0.00000  Uiso   1.00
H7     H     0.62355   0.26178   0.49249   0.00000  Uiso   1.00
H8     H     0.61394   0.11850   0.49303   0.00000  Uiso   1.00
H9     H     0.33736   0.10743   0.51007   0.00000  Uiso   1.00
H10    H     0.66264   0.89256   0.48995   0.00000  Uiso   1.00
H11    H     0.38606   0.88149   0.50699   0.00000  Uiso   1.00
H12    H     0.37645   0.73821   0.50753   0.00000  Uiso   1.00
C27    C     0.50001   0.50002   0.13514   0.00000  Uiso   1.00
C28    C     0.50000   0.49997   0.86487   0.00000  Uiso   1.00
C29    C     0.56798   0.50262   0.06310   0.00000  Uiso   1.00
C30    C     0.43202   0.49737   0.93692   0.00000  Uiso   1.00
C31    C     0.56797   0.50259   0.92820   0.00000  Uiso   1.00
C32    C     0.43203   0.49740   0.07181   0.00000  Uiso   1.00
C33    C     0.66465   0.50633   0.05403   0.00000  Uiso   1.00
C34    C     0.66464   0.50631   0.92487   0.00000  Uiso   1.00
H13    H     0.36856   0.49500   0.11816   0.00000  Uiso   1.00
H14    H     0.69638   0.55843   0.09748   0.00000  Uiso   1.00
H15    H     0.68926   0.45646   0.09883   0.00000  Uiso   1.00
H16    H     0.68977   0.45639   0.87777   0.00000  Uiso   1.00
H17    H     0.69584   0.55833   0.87649   0.00000  Uiso   1.00
O9     O     0.28471   0.39517   0.66737   0.00000  Uiso   1.00
Li1    Li    0.24683   0.32682   0.77649   0.00000  Uiso   1.00
O10    O     0.71529   0.60482   0.33264   0.00000  Uiso   1.00
Li2    Li    0.75317   0.67317   0.22353   0.00000  Uiso   1.00
O11    O     0.33416   0.25639   0.51031   0.00000  Uiso   1.00
Li3    Li    0.22740   0.22178   0.51688   0.00000  Uiso   1.00
O12    O     0.66584   0.74360   0.48971   0.00000  Uiso   1.00
Li4    Li    0.77260   0.77821   0.48314   0.00000  Uiso   1.00
O13    O     0.32927   0.54405   0.77717   0.00000  Uiso   1.00
O14    O     0.27202   0.44051   0.93849   0.00000  Uiso   1.00
N7     N     0.34374   0.49395   0.88377   0.00000  Uiso   1.00
