# Generated by REPEAT Assigner based on pymatgen
data_DB1-Zn4O13-irmof10_A-irmof20_A_No340
_audit_creation_date              2022-05-24
_audit_creation_method            REPEAT_Assigner
_cell_length_a                    20.719800
_cell_length_b                    22.514900
_cell_length_c                    36.953200
_cell_angle_alpha                 99.480900
_cell_angle_beta                  106.281000
_cell_angle_gamma                 62.604100
_cell_volume                      14678.775663
_symmetry_space_group_name_H-M    P1
_symmetry_Int_Tables_number       1
loop_
    _symmetry_equiv_pos_site_id
    _symmetry_equiv_pos_as_xyz
    1  x,y,z
loop_
    _atom_site_type_symbol
    _atom_site_label
    _atom_site_fract_x
    _atom_site_fract_y
    _atom_site_fract_z
    _atom_type_partial_charge
    Zn  Zn1   0.407090  0.549180  0.516390  1.234424
    Zn  Zn2   0.478140  0.489080  0.445350  1.245084
    Zn  Zn3   0.554650  0.412560  0.521860  1.232311
    Zn  Zn4   0.560120  0.549180  0.516390  1.239855
    O   O1    0.500000  0.500000  0.500000  -1.447186
    O   O2    0.320470  0.573230  0.474970  -0.510519
    O   O3    0.515710  0.396640  0.428050  -0.580486
    O   O4    0.503090  0.398650  0.553150  -0.527058
    O   O5    0.372690  0.529050  0.422750  -0.520383
    O   O6    0.394630  0.499070  0.549130  -0.518850
    O   O7    0.571950  0.340400  0.484290  -0.571626
    O   O8    0.651410  0.398650  0.553150  -0.511176
    O   O9    0.512410  0.631480  0.543830  -0.598816
    O   O10   0.655430  0.499070  0.549130  -0.530049
    O   O11   0.399930  0.631480  0.543830  -0.597367
    O   O12   0.521010  0.529050  0.422750  -0.508696
    O   O13   0.581270  0.573230  0.474970  -0.493073
    C   C1    0.316580  0.561140  0.438860  0.366043
    C   C2    0.552400  0.342810  0.447600  0.325014
    C   C3    0.438860  0.438860  0.561140  0.404719
    C   C4    0.683420  0.438860  0.561140  0.387674
    C   C5    0.447600  0.657190  0.552400  0.390130
    C   C6    0.561140  0.561140  0.438860  0.328947
    Zn  Zn5   0.342910  0.200820  0.733610  1.243800
    Zn  Zn6   0.195350  0.337430  0.728140  1.245716
    Zn  Zn7   0.271860  0.260920  0.804650  1.226522
    Zn  Zn8   0.189880  0.200820  0.733610  1.244707
    O   O14   0.250000  0.250000  0.750000  -1.451564
    O   O15   0.355370  0.250930  0.700870  -0.521167
    O   O16   0.178050  0.409600  0.765710  -0.583712
    O   O17   0.377310  0.220950  0.827250  -0.531068
    O   O18   0.246910  0.351350  0.696850  -0.527781
    O   O19   0.429530  0.176770  0.775030  -0.528680
    O   O20   0.234290  0.353360  0.821950  -0.579527
    O   O21   0.228990  0.220950  0.827250  -0.487847
    O   O22   0.237590  0.118520  0.706170  -0.600949
    O   O23   0.168730  0.176770  0.775030  -0.498298
    O   O24   0.350070  0.118520  0.706170  -0.600739
    O   O25   0.098590  0.351350  0.696850  -0.507643
    O   O26   0.094570  0.250930  0.700870  -0.516378
    C   C7    0.311140  0.311140  0.688860  0.389551
    C   C8    0.197600  0.407190  0.802400  0.343723
    C   C9    0.433420  0.188860  0.811140  0.417747
    C   C10   0.188860  0.188860  0.811140  0.316282
    C   C11   0.302400  0.092810  0.697600  0.385836
    C   C12   0.066580  0.311140  0.688860  0.366831
    Zn  Zn9   0.771860  0.760920  0.304650  1.246579
    Zn  Zn10  0.689880  0.700820  0.233610  1.244126
    Zn  Zn11  0.842910  0.700820  0.233610  1.236589
    Zn  Zn12  0.695350  0.837430  0.228140  1.230183
    O   O27   0.750000  0.750000  0.250000  -1.448773
    O   O28   0.728990  0.720950  0.327250  -0.504508
    O   O29   0.737590  0.618520  0.206170  -0.597142
    O   O30   0.929530  0.676770  0.275030  -0.522474
    O   O31   0.668730  0.676770  0.275030  -0.491305
    O   O32   0.877310  0.720950  0.327250  -0.529238
    O   O33   0.850070  0.618520  0.206170  -0.598635
    O   O34   0.855370  0.750930  0.200870  -0.525278
    O   O35   0.678050  0.909600  0.265710  -0.575618
    O   O36   0.746910  0.851350  0.196850  -0.522347
    O   O37   0.734290  0.853360  0.321950  -0.579356
    O   O38   0.594570  0.750930  0.200870  -0.524057
    O   O39   0.598590  0.851350  0.196850  -0.504160
    C   C13   0.688860  0.688860  0.311140  0.324456
    C   C14   0.802400  0.592810  0.197600  0.388493
    C   C15   0.933420  0.688860  0.311140  0.380401
    C   C16   0.811140  0.811140  0.188860  0.405107
    C   C17   0.697600  0.907190  0.302400  0.328642
    C   C18   0.566580  0.811140  0.188860  0.366326
    Zn  Zn13  0.054650  0.912560  0.021860  1.245054
    Zn  Zn14  0.060120  0.049180  0.016390  1.256196
    Zn  Zn15  0.907090  0.049180  0.016390  1.243892
    Zn  Zn16  0.978140  0.989080  0.945350  1.235269
    O   O40   0.000000  0.000000  0.000000  -1.456577
    O   O41   0.151410  0.898650  0.053150  -0.502301
    O   O42   0.012420  0.131480  0.043830  -0.601058
    O   O43   0.894630  0.999070  0.049130  -0.526730
    O   O44   0.155430  0.999070  0.049130  -0.517296
    O   O45   0.003090  0.898650  0.053150  -0.523143
    O   O46   0.899930  0.131480  0.043830  -0.599351
    O   O47   0.820470  0.073230  0.974970  -0.540801
    O   O48   0.015710  0.896640  0.928050  -0.580698
    O   O49   0.872690  0.029050  0.922750  -0.542115
    O   O50   0.071950  0.840400  0.984290  -0.588688
    O   O51   0.081270  0.073230  0.974970  -0.502932
    O   O52   0.021010  0.029050  0.922750  -0.494616
    C   C19   0.183420  0.938860  0.061140  0.351552
    C   C20   0.947600  0.157190  0.052400  0.382184
    C   C21   0.938860  0.938860  0.061140  0.389586
    C   C22   0.816580  0.061140  0.938860  0.434450
    C   C23   0.052400  0.842810  0.947600  0.348142
    C   C24   0.061140  0.061140  0.938860  0.314416
    C   C25   0.426520  0.720430  0.573480  0.450789
    C   C26   0.323480  0.029570  0.676520  0.473639
    C   C27   0.474100  0.751360  0.583790  -0.724499
    C   C28   0.454130  0.812890  0.604300  0.681856
    C   C29   0.275900  0.998640  0.666210  -0.759083
    C   C30   0.295870  0.937110  0.645700  0.704803
    C   C31   0.391670  0.998640  0.666210  -0.505580
    C   C32   0.412720  0.937110  0.645700  -0.135195
    C   C33   0.358330  0.751360  0.583790  -0.488762
    C   C34   0.337280  0.812890  0.604300  -0.150686
    C   C35   0.385330  0.844000  0.614670  -0.031180
    C   C36   0.364670  0.905990  0.635330  -0.043416
    H   H1    0.521240  0.730310  0.576770  0.214127
    H   H2    0.228760  0.019690  0.673230  0.221912
    H   H3    0.424780  0.019690  0.673230  0.186974
    H   H4    0.459950  0.916310  0.638770  0.236741
    H   H5    0.325220  0.730310  0.576770  0.186061
    H   H6    0.290050  0.833690  0.611230  0.242950
    C   C37   0.573480  0.279570  0.426520  0.527022
    C   C38   0.676520  0.970430  0.323480  0.526957
    C   C39   0.612730  0.219690  0.445160  -0.759113
    C   C40   0.633510  0.157900  0.424920  0.680920
    C   C41   0.637270  0.030310  0.304840  -0.756685
    C   C42   0.616490  0.092100  0.325080  0.680935
    C   C43   0.695160  0.972420  0.362730  -0.600938
    C   C44   0.674920  0.033680  0.383510  -0.094389
    C   C45   0.554840  0.277580  0.387270  -0.599084
    C   C46   0.575080  0.216320  0.366490  -0.096473
    C   C47   0.614670  0.156000  0.385330  -0.026350
    C   C48   0.635330  0.094000  0.364670  -0.031023
    H   H7    0.625780  0.220680  0.472240  0.221686
    H   H8    0.624220  0.029320  0.277760  0.221520
    H   H9    0.722240  0.931300  0.375780  0.240230
    H   H10   0.688130  0.034330  0.410590  0.222788
    H   H11   0.527760  0.318700  0.374220  0.241779
    H   H12   0.561870  0.215670  0.339410  0.222263
    C   C49   0.447970  0.352900  0.603230  -0.035842
    S   S1    0.328420  0.465620  0.597700  0.049917
    C   C50   0.302030  0.397100  0.646770  -0.081309
    S   S2    0.421580  0.284380  0.652300  0.040172
    C   C51   0.413400  0.413400  0.586600  0.083951
    C   C52   0.336600  0.336600  0.663400  0.116795
    C   C53   0.343190  0.404450  0.623820  0.009632
    C   C54   0.406810  0.345550  0.626180  -0.005553
    C   C55   0.573970  0.581290  0.374840  -0.146614
    S   S3    0.639920  0.629360  0.433960  0.013246
    C   C56   0.676030  0.668710  0.375160  -0.147348
    S   S4    0.610080  0.620640  0.316040  0.032140
    C   C57   0.586600  0.586600  0.413400  0.179174
    C   C58   0.663400  0.663400  0.336600  0.176752
    C   C59   0.642670  0.637950  0.390310  0.035675
    C   C60   0.607330  0.612040  0.359690  0.024672
    C   C61   0.219580  0.581290  0.374840  -0.181655
    S   S5    0.164680  0.629360  0.433960  0.012086
    C   C62   0.030420  0.668710  0.375160  -0.184531
    S   S6    0.085320  0.620640  0.316040  -0.008090
    C   C63   0.240200  0.586600  0.413400  0.179494
    C   C64   0.009800  0.663400  0.336600  0.182946
    C   C65   0.109690  0.637950  0.390310  0.057922
    C   C66   0.140310  0.612040  0.359690  0.065893
    C   C67   0.806020  0.444310  0.599570  -0.061086
    S   S7    0.798380  0.333700  0.602980  0.030058
    C   C68   0.943980  0.305690  0.650440  -0.097098
    S   S8    0.951620  0.416300  0.647020  0.058073
    C   C69   0.759800  0.413400  0.586600  0.112740
    C   C70   0.990200  0.336600  0.663400  0.126239
    C   C71   0.873820  0.345550  0.626180  0.020351
    C   C72   0.876180  0.404450  0.623820  -0.007526
    C   C73   0.176520  0.470430  0.823480  0.498783
    C   C74   0.073480  0.779570  0.926520  0.499693
    C   C75   0.195160  0.472420  0.862730  -0.696670
    C   C76   0.174920  0.533680  0.883510  0.668271
    C   C77   0.054840  0.777580  0.887270  -0.697369
    C   C78   0.075080  0.716320  0.866490  0.666262
    C   C79   0.112730  0.719690  0.945160  -0.585662
    C   C80   0.133510  0.657900  0.924920  -0.140943
    C   C81   0.137270  0.530310  0.804850  -0.587832
    C   C82   0.116490  0.592100  0.825080  -0.137260
    C   C83   0.135330  0.594000  0.864670  -0.020940
    C   C84   0.114670  0.655990  0.885330  -0.020819
    H   H13   0.222240  0.431300  0.875780  0.194801
    H   H14   0.027760  0.818700  0.874220  0.192847
    H   H15   0.125780  0.720680  0.972240  0.237248
    H   H16   0.160590  0.616950  0.938130  0.251741
    H   H17   0.124220  0.529310  0.777760  0.237152
    H   H18   0.089410  0.633040  0.811870  0.249378
    C   C85   0.530420  0.168710  0.875160  -0.072158
    S   S9    0.585320  0.120640  0.816040  0.049401
    C   C86   0.719580  0.081290  0.874840  -0.074327
    S   S10   0.664680  0.129360  0.933960  0.028963
    C   C87   0.509800  0.163400  0.836600  0.099734
    C   C88   0.740200  0.086600  0.913400  0.102290
    C   C89   0.640310  0.112040  0.859690  0.008514
    C   C90   0.609690  0.137950  0.890310  0.017009
    C   C91   0.121180  0.128500  0.827630  -0.155089
    S   S11   0.189240  0.178680  0.884640  0.016909
    C   C92   0.128820  0.121500  0.922370  -0.191014
    S   S12   0.060760  0.071320  0.865360  0.010065
    C   C93   0.163400  0.163400  0.836600  0.191380
    C   C94   0.086600  0.086600  0.913400  0.216256
    C   C95   0.142670  0.137950  0.890310  0.047844
    C   C96   0.107330  0.112040  0.859690  0.039230
    C   C97   0.823480  0.529570  0.176520  0.447368
    C   C98   0.926520  0.220430  0.073480  0.472628
    C   C99   0.891670  0.498640  0.166210  -0.635983
    C   C100  0.912720  0.437110  0.145700  0.620630
    C   C101  0.858330  0.251360  0.083790  -0.652481
    C   C102  0.837280  0.312890  0.104300  0.634047
    C   C103  0.974100  0.251360  0.083790  -0.604516
    C   C104  0.954130  0.312890  0.104300  -0.092837
    C   C105  0.775900  0.498640  0.166210  -0.563236
    C   C106  0.795870  0.437110  0.145700  -0.113656
    C   C107  0.864670  0.405990  0.135330  -0.026500
    C   C108  0.885330  0.344000  0.114670  -0.034253
    H   H19   0.924780  0.519690  0.173230  0.172028
    H   H20   0.825220  0.230310  0.076770  0.171044
    H   H21   0.021250  0.230310  0.076770  0.246034
    H   H22   0.987490  0.333690  0.111230  0.221590
    H   H23   0.728760  0.519690  0.173230  0.230513
    H   H24   0.762510  0.416310  0.138770  0.226674
    C   C109  0.443980  0.805690  0.150440  -0.101094
    S   S13   0.451620  0.916300  0.147020  0.018207
    C   C110  0.306020  0.944310  0.099570  -0.136311
    S   S14   0.298380  0.833700  0.102980  0.046023
    C   C111  0.490200  0.836600  0.163400  0.138306
    C   C112  0.259800  0.913400  0.086600  0.150325
    C   C113  0.376180  0.904450  0.123820  0.036134
    C   C114  0.373820  0.845550  0.126180  0.008361
    C   C115  0.802030  0.897100  0.146770  -0.052774
    S   S15   0.921580  0.784380  0.152300  0.032786
    C   C116  0.947970  0.852900  0.103230  -0.097169
    S   S16   0.828420  0.965620  0.097700  0.022679
    C   C117  0.836600  0.836600  0.163400  0.099344
    C   C118  0.913400  0.913400  0.086600  0.131734
    C   C119  0.906810  0.845550  0.126180  0.020646
    C   C120  0.843190  0.904450  0.123820  0.006844
    O   O53   0.499230  0.841010  0.613670  -1.018379
    Li  Li1   0.585510  0.818550  0.606180  0.896459
    O   O54   0.250770  0.908990  0.636330  -1.026305
    Li  Li2   0.164490  0.931450  0.643820  0.897761
    O   O55   0.670120  0.102540  0.442780  -1.031969
    Li  Li3   0.702030  0.085600  0.489660  0.906183
    O   O56   0.579880  0.147460  0.307220  -1.032535
    Li  Li4   0.547970  0.164400  0.260340  0.906231
    O   O57   0.192780  0.534560  0.920120  -1.031614
    Li  Li5   0.239660  0.472700  0.952030  0.901786
    O   O58   0.057220  0.715440  0.829880  -1.028149
    Li  Li6   0.010340  0.777290  0.797970  0.901458
    O   O59   0.976570  0.408990  0.136330  -0.987636
    Li  Li7   0.047880  0.431450  0.143820  0.888337
    O   O60   0.773430  0.341010  0.113670  -0.990813
    Li  Li8   0.702120  0.318550  0.106180  0.887856
    Br  Br1   0.550820  0.278230  0.595970  -0.066134
    Br  Br2   0.199180  0.471770  0.654030  -0.027981
    Br  Br3   0.512080  0.533070  0.341130  0.000721
    Br  Br4   0.737920  0.716930  0.408870  -0.006305
    Br  Br5   0.295980  0.533070  0.341130  0.002338
    Br  Br6   0.954020  0.716930  0.408870  0.010489
    Br  Br7   0.777420  0.540320  0.585480  -0.047313
    Br  Br8   0.972580  0.209680  0.664520  -0.033055
    Br  Br9   0.454030  0.216930  0.908870  -0.053862
    Br  Br10  0.795980  0.033070  0.841130  -0.045889
    Br  Br11  0.080630  0.101620  0.772580  -0.020785
    Br  Br12  0.169370  0.148380  0.977420  0.008931
    Br  Br13  0.472580  0.709680  0.164520  -0.020746
    Br  Br14  0.277420  0.040320  0.085480  -0.008268
    Br  Br15  0.699180  0.971770  0.154030  -0.063650
    Br  Br16  0.050820  0.778230  0.095970  -0.025482
