# Generated by REPEAT Assigner based on pymatgen
data_DB1-Cu2O8-irmof16_A-mof177_No582
_audit_creation_date              2022-05-24
_audit_creation_method            REPEAT_Assigner
_cell_length_a                    34.275900
_cell_length_b                    34.276200
_cell_length_c                    34.275900
_cell_angle_alpha                 60.097700
_cell_angle_beta                  120.000000
_cell_angle_gamma                 120.110000
_cell_volume                      28471.619696
_symmetry_space_group_name_H-M    P1
_symmetry_Int_Tables_number       1
loop_
    _symmetry_equiv_pos_site_id
    _symmetry_equiv_pos_as_xyz
    1  x,y,z
loop_
    _atom_site_type_symbol
    _atom_site_label
    _atom_site_fract_x
    _atom_site_fract_y
    _atom_site_fract_z
    _atom_type_partial_charge
    C   C1    0.515330  0.588320  0.463530  0.515277
    C   C2    0.866620  0.515250  0.788810  -0.241551
    C   C3    0.890610  0.515260  0.836450  0.326600
    C   C4    0.938040  0.515260  0.860770  -0.131003
    C   C5    0.961150  0.515250  0.836460  -0.066252
    C   C6    0.937500  0.515250  0.788810  -0.264242
    C   C7    0.889720  0.515240  0.764140  0.121236
    C   C8    0.484680  0.411690  0.536470  0.541109
    C   C9    0.937490  0.515220  0.633500  -0.298288
    C   C10   0.961140  0.515210  0.609500  0.336153
    C   C11   0.938020  0.515210  0.562080  -0.137500
    C   C12   0.890600  0.515200  0.538970  -0.027413
    C   C13   0.866610  0.515210  0.562620  -0.261689
    C   C14   0.889710  0.515220  0.610390  0.140715
    C   C15   0.411620  0.484780  0.463390  0.539331
    C   C16   0.135610  0.484790  0.364310  0.103431
    C   C17   0.187490  0.484780  0.390250  -0.267759
    C   C18   0.213430  0.484790  0.364300  0.090372
    C   C19   0.187500  0.484810  0.312420  -0.240729
    C   C20   0.135620  0.484810  0.286480  0.098035
    C   C21   0.109670  0.484800  0.312420  -0.255571
    C   C22   0.336320  0.484780  0.461190  -0.077218
    C   C23   0.588390  0.515220  0.536610  0.514897
    C   C24   0.288670  0.484780  0.437200  -0.248288
    C   C25   0.264360  0.484790  0.389770  0.105166
    C   C26   0.288680  0.484800  0.366650  -0.217622
    C   C27   0.336330  0.484800  0.390300  0.305788
    C   C28   0.361000  0.484790  0.438080  -0.123379
    C   C29   0.133400  0.484760  0.437400  -0.297345
    C   C30   0.109400  0.484760  0.461060  0.334390
    C   C31   0.061980  0.484760  0.437950  -0.135082
    C   C32   0.038870  0.484770  0.390520  -0.029164
    C   C33   0.062520  0.484780  0.366520  -0.260426
    C   C34   0.110300  0.484780  0.389620  0.141003
    C   C35   0.062530  0.484830  0.211180  -0.283396
    C   C36   0.038880  0.484840  0.163530  0.316282
    C   C37   0.061990  0.484850  0.139210  -0.119856
    C   C38   0.109420  0.484840  0.163520  -0.064791
    C   C39   0.133410  0.484830  0.211170  -0.222937
    C   C40   0.110310  0.484820  0.235850  0.120986
    C   C41   0.515710  0.864100  0.286890  0.087366
    C   C42   0.515650  0.812250  0.312790  -0.235371
    C   C43   0.515550  0.786380  0.364580  0.093766
    C   C44   0.515500  0.812360  0.390480  -0.254052
    C   C45   0.515560  0.864210  0.364580  0.102008
    C   C46   0.515660  0.890080  0.312780  -0.265617
    C   C47   0.515480  0.663510  0.390560  -0.075261
    C   C48   0.515530  0.711130  0.366940  -0.207108
    C   C49   0.515490  0.735480  0.390010  0.107236
    C   C50   0.515400  0.711240  0.437360  -0.260628
    C   C51   0.515340  0.663620  0.461320  0.299172
    C   C52   0.515390  0.638910  0.438260  -0.113987
    C   C53   0.515850  0.866200  0.211720  -0.241615
    C   C54   0.515950  0.890120  0.164150  0.335518
    C   C55   0.516000  0.937520  0.139870  -0.159621
    C   C56   0.515960  0.960670  0.164140  -0.052498
    C   C57   0.515860  0.937080  0.211710  -0.265675
    C   C58   0.515810  0.889340  0.236350  0.122251
    C   C59   0.515560  0.937310  0.366770  -0.296305
    C   C60   0.515520  0.961000  0.390730  0.336408
    C   C61   0.515430  0.937960  0.438070  -0.140700
    C   C62   0.515380  0.890560  0.461150  -0.027415
    C   C63   0.515420  0.866530  0.437540  -0.260023
    C   C64   0.515510  0.889560  0.389840  0.140441
    C   C65   0.484670  0.135890  0.635420  0.103949
    C   C66   0.484680  0.187720  0.609510  -0.267883
    C   C67   0.484650  0.213690  0.635430  0.090299
    C   C68   0.484620  0.187830  0.687240  -0.239603
    C   C69   0.484620  0.136000  0.713150  0.093118
    C   C70   0.484640  0.110030  0.687230  -0.253748
    C   C71   0.484690  0.336410  0.538670  -0.077295
    C   C72   0.484690  0.288810  0.562620  -0.247071
    C   C73   0.484660  0.264570  0.609990  0.103747
    C   C74   0.484640  0.288920  0.633090  -0.217238
    C   C75   0.484640  0.336520  0.609460  0.306524
    C   C76   0.484670  0.361120  0.561740  -0.124288
    C   C77   0.484730  0.133570  0.562410  -0.296673
    C   C78   0.484750  0.109540  0.538780  0.334362
    C   C79   0.484750  0.062160  0.561860  -0.135117
    C   C80   0.484720  0.039120  0.609230  -0.029016
    C   C81   0.484690  0.062810  0.633200  -0.259570
    C   C82   0.484700  0.110540  0.610130  0.139861
    C   C83   0.484580  0.063040  0.788350  -0.286882
    C   C84   0.484550  0.039470  0.835940  0.332118
    C   C85   0.484530  0.062610  0.860230  -0.170589
    C   C86   0.484530  0.109990  0.835950  -0.036947
    C   C87   0.484560  0.133910  0.788360  -0.230604
    C   C88   0.484590  0.110770  0.763710  0.128544
    C   C89   0.136540  0.864190  0.986500  0.095387
    C   C90   0.110480  0.812330  0.986240  -0.263643
    C   C91   0.136420  0.786460  0.986190  0.085011
    C   C92   0.188420  0.812430  0.986400  -0.238149
    C   C93   0.214490  0.864280  0.986660  0.097606
    C   C94   0.188550  0.890160  0.986700  -0.250500
    C   C95   0.039170  0.663590  0.985500  -0.081293
    C   C96   0.063280  0.711210  0.985740  -0.247149
    C   C97   0.110830  0.735550  0.985930  0.108630
    C   C98   0.036840  0.588380  0.985200  0.538044
    C   C99   0.133940  0.711300  0.985880  -0.216286
    C   C100  0.110170  0.663680  0.985650  0.302197
    C   C101  0.062270  0.638970  0.985450  -0.118176
    C   C102  0.063340  0.866300  0.986350  -0.299995
    C   C103  0.039690  0.890240  0.986400  0.341788
    C   C104  0.062910  0.937640  0.986640  -0.147462
    C   C105  0.110460  0.960780  0.986830  -0.024414
    C   C106  0.963200  0.411750  0.014770  0.514117
    C   C107  0.134450  0.937180  0.986780  -0.262540
    C   C108  0.111230  0.889440  0.986540  0.148824
    C   C109  0.290030  0.937370  0.987100  -0.278940
    C   C110  0.337790  0.961060  0.987290  0.303661
    C   C111  0.362110  0.938000  0.987250  -0.083722
    C   C112  0.337680  0.890600  0.987010  -0.088545
    C   C113  0.289910  0.866580  0.986820  -0.210855
    C   C114  0.036530  0.484860  0.088270  0.505011
    C   C115  0.265240  0.889620  0.986860  0.113025
    C   C116  0.785410  0.135930  0.013090  0.095884
    C   C117  0.811500  0.187770  0.013400  -0.238005
    C   C118  0.863500  0.213730  0.013590  0.093158
    C   C119  0.889410  0.187870  0.013470  -0.257813
    C   C120  0.863310  0.136030  0.013160  0.110994
    C   C121  0.811310  0.110070  0.012970  -0.267899
    C   C122  0.963510  0.515270  0.911700  0.527957
    C   C123  0.889850  0.336470  0.014290  -0.079310
    C   C124  0.866050  0.288870  0.014010  -0.207558
    C   C125  0.889120  0.264620  0.013890  0.111504
    C   C126  0.936660  0.288960  0.014070  -0.260326
    C   C127  0.960800  0.336560  0.014350  0.294995
    C   C128  0.937740  0.361170  0.014470  -0.109102
    C   C129  0.710020  0.133630  0.013010  -0.227590
    C   C130  0.662260  0.109620  0.012840  0.290852
    C   C131  0.637810  0.062230  0.012550  -0.043289
    C   C132  0.662090  0.039180  0.012450  -0.115520
    C   C133  0.709850  0.062860  0.012620  -0.246896
    C   C134  0.734670  0.110600  0.012910  0.105721
    C   C135  0.865340  0.063060  0.012760  -0.280350
    C   C136  0.889300  0.039470  0.012650  0.303467
    C   C137  0.936830  0.062610  0.012820  -0.068038
    C   C138  0.960090  0.109990  0.013100  -0.075512
    C   C139  0.936470  0.133920  0.013210  -0.235597
    C   C140  0.888580  0.110790  0.013040  0.117331
    C   C141  0.215340  0.864070  0.365730  0.114582
    C   C142  0.189120  0.812220  0.391480  -0.261048
    C   C143  0.137160  0.786340  0.365380  0.116452
    C   C144  0.111420  0.812310  0.313530  -0.261891
    C   C145  0.137640  0.864160  0.287780  0.115202
    C   C146  0.189600  0.890040  0.313880  -0.256542
    C   C147  0.110440  0.663490  0.461870  -0.073313
    C   C148  0.134350  0.711110  0.438050  -0.216219
    C   C149  0.111420  0.735440  0.390660  0.099551
    C   C150  0.063920  0.711190  0.367400  -0.252819
    C   C151  0.039680  0.663570  0.390870  0.299522
    C   C152  0.062590  0.638870  0.438620  -0.105305
    C   C153  0.290530  0.866190  0.438940  -0.276327
    C   C154  0.338240  0.890120  0.462740  0.320879
    C   C155  0.362810  0.937520  0.439810  -0.103443
    C   C156  0.338680  0.960660  0.392410  -0.066587
    C   C157  0.290960  0.937060  0.368270  -0.234502
    C   C158  0.266030  0.889320  0.391190  0.117004
    C   C159  0.135880  0.937240  0.212690  -0.273929
    C   C160  0.112080  0.960920  0.165080  0.321039
    C   C161  0.064580  0.937870  0.140620  -0.117402
    C   C162  0.041220  0.890470  0.164760  -0.069980
    C   C163  0.064680  0.866450  0.212380  -0.227254
    C   C164  0.112530  0.889500  0.237190  0.112202
    C   C165  0.862360  0.135870  0.712400  0.114464
    C   C166  0.888580  0.187700  0.686620  -0.257033
    C   C167  0.862820  0.213660  0.634780  0.113176
    C   C168  0.810840  0.187800  0.608720  -0.264975
    C   C169  0.784620  0.135970  0.634500  0.119828
    C   C170  0.810380  0.110010  0.686340  -0.261209
    C   C171  0.960340  0.336390  0.609190  -0.072605
    C   C172  0.936090  0.288790  0.632690  -0.221110
    C   C173  0.888570  0.264550  0.609470  0.103685
    C   C174  0.865620  0.288880  0.562080  -0.252409
    C   C175  0.889530  0.336480  0.538240  0.300749
    C   C176  0.937410  0.361090  0.561450  -0.107508
    C   C177  0.935360  0.133580  0.787760  -0.271188
    C   C178  0.958850  0.109570  0.835370  0.315937
    C   C179  0.935480  0.062190  0.859540  -0.119484
    C   C180  0.887960  0.039140  0.835120  -0.067155
    C   C181  0.864140  0.062810  0.787510  -0.225715
    C   C182  0.887500  0.110540  0.762980  0.108864
    C   C183  0.708970  0.063000  0.632020  -0.272356
    C   C184  0.661230  0.039410  0.607920  0.308820
    C   C185  0.637080  0.062550  0.560530  -0.075277
    C   C186  0.661650  0.109920  0.537560  -0.081540
    C   C187  0.709390  0.133850  0.561330  -0.226775
    C   C188  0.733900  0.110730  0.609070  0.110685
    C   C189  0.037000  0.588280  0.463740  0.495743
    C   C190  0.962990  0.411660  0.536300  0.496877
    C   C191  0.036510  0.484750  0.463420  0.501286
    C   C192  0.963490  0.515200  0.536620  0.503589
    C   C193  0.589470  0.036010  0.015990  0.478659
    C   C194  0.412600  0.962640  0.985620  0.479897
    C   C195  0.485970  0.035730  0.912590  0.542446
    C   C196  0.516100  0.962910  0.089020  0.559801
    C   C197  0.588470  0.036970  0.536600  0.463718
    C   C198  0.411690  0.963150  0.463310  0.487204
    C   C199  0.484770  0.036660  0.536420  0.501667
    C   C200  0.515380  0.963460  0.463490  0.510205
    C   C201  0.964400  0.036150  0.913760  0.477584
    C   C202  0.037270  0.962800  0.090170  0.504973
    C   C203  0.964220  0.035900  0.017240  0.472326
    C   C204  0.037450  0.963040  0.986680  0.510293
    C   C205  0.864400  0.515240  0.713520  0.089138
    C   C206  0.812520  0.515240  0.687580  -0.238210
    C   C207  0.786580  0.515230  0.635700  0.097352
    C   C208  0.812520  0.515220  0.609760  -0.258867
    C   C209  0.864400  0.515220  0.635700  0.105445
    C   C210  0.890340  0.515230  0.687580  -0.267055
    C   C211  0.663690  0.515230  0.609690  -0.077588
    C   C212  0.711340  0.515230  0.633340  -0.206329
    C   C213  0.735650  0.515230  0.610230  0.105890
    C   C214  0.711330  0.515220  0.562810  -0.259372
    C   C215  0.663690  0.515220  0.538820  0.297295
    C   C216  0.639010  0.515220  0.561920  -0.111446
    Cu  Cu1   0.500020  0.500070  0.537100  1.074336
    Cu  Cu2   0.499990  0.499940  0.462900  1.073341
    Cu  Cu3   0.037170  0.500120  0.999980  1.071818
    Cu  Cu4   0.962870  0.500010  0.999990  1.065821
    Cu  Cu5   0.962890  0.500020  0.462870  1.078116
    Cu  Cu6   0.037100  0.499920  0.537170  1.078770
    Cu  Cu7   0.501100  0.036480  0.000810  1.070410
    Cu  Cu8   0.500970  0.962160  0.000800  1.065232
    Cu  Cu9   0.500060  0.963010  0.537050  1.068094
    Cu  Cu10  0.500100  0.037110  0.462860  1.076440
    Cu  Cu11  0.038060  0.036630  0.002130  1.079908
    Cu  Cu12  0.963610  0.962320  0.001800  1.085163
    H   H1    0.728700  0.515240  0.667760  0.142431
    H   H2    0.728690  0.515210  0.545760  0.198426
    H   H3    0.832080  0.515250  0.772630  0.183511
    H   H4    0.995570  0.515250  0.853820  0.142937
    H   H5    0.955850  0.515240  0.772630  0.172157
    H   H6    0.955850  0.515220  0.668030  0.218831
    H   H7    0.873540  0.515200  0.504550  0.122918
    H   H8    0.832070  0.515210  0.544260  0.164220
    H   H9    0.205850  0.484780  0.426970  0.154522
    H   H10   0.072950  0.484800  0.294060  0.149218
    H   H11   0.205860  0.484820  0.294050  0.157895
    H   H12   0.352500  0.484770  0.495730  0.147346
    H   H13   0.271310  0.484770  0.454260  0.167462
    H   H14   0.271320  0.484810  0.332230  0.177786
    H   H15   0.167940  0.484760  0.455760  0.218544
    H   H16   0.004450  0.484770  0.373460  0.123594
    H   H17   0.044160  0.484790  0.331980  0.163373
    H   H18   0.044170  0.484820  0.227360  0.205171
    H   H19   0.126480  0.484850  0.146160  0.132707
    H   H20   0.167950  0.484830  0.227350  0.147792
    H   H21   0.515680  0.793860  0.294460  0.156590
    H   H22   0.515700  0.926780  0.294450  0.154414
    H   H23   0.515430  0.794050  0.427140  0.149638
    H   H24   0.515520  0.647310  0.372230  0.136813
    H   H25   0.515600  0.728440  0.332580  0.142482
    H   H26   0.515370  0.728620  0.454390  0.198508
    H   H27   0.515820  0.831680  0.227870  0.182929
    H   H28   0.516000  0.995060  0.146810  0.138873
    H   H29   0.515830  0.955470  0.227860  0.171639
    H   H30   0.515630  0.955620  0.332290  0.218030
    H   H31   0.515310  0.873550  0.495510  0.124103
    H   H32   0.515380  0.832010  0.455870  0.163067
    H   H33   0.484700  0.206020  0.572830  0.154800
    H   H34   0.484640  0.073340  0.705570  0.148312
    H   H35   0.484600  0.206220  0.705590  0.159070
    H   H36   0.484710  0.352540  0.504170  0.147215
    H   H37   0.484700  0.271430  0.545580  0.166851
    H   H38   0.484620  0.271610  0.667460  0.177447
    H   H39   0.484730  0.168070  0.544070  0.217997
    H   H40   0.484710  0.004740  0.626260  0.124497
    H   H41   0.484670  0.044510  0.667700  0.162848
    H   H42   0.484600  0.044660  0.772190  0.204946
    H   H43   0.484510  0.127070  0.853290  0.126957
    H   H44   0.484560  0.168410  0.772200  0.147050
    H   H45   0.073670  0.793950  0.986090  0.154668
    H   H46   0.207000  0.926860  0.986890  0.147502
    H   H47   0.206790  0.794110  0.986360  0.158456
    H   H48   0.004550  0.647390  0.985360  0.149828
    H   H49   0.046230  0.728530  0.985770  0.166894
    H   H50   0.168440  0.728680  0.986020  0.177877
    H   H51   0.044890  0.831780  0.986180  0.218794
    H   H52   0.127600  0.995180  0.987000  0.123797
    H   H53   0.169080  0.955560  0.986920  0.163684
    H   H54   0.273850  0.955690  0.987140  0.206825
    H   H55   0.355040  0.873590  0.986980  0.139437
    H   H56   0.273650  0.832060  0.986650  0.145529
    H   H57   0.793170  0.206080  0.013490  0.156517
    H   H58   0.792840  0.073380  0.012750  0.152593
    H   H59   0.926210  0.206240  0.013600  0.151216
    H   H60   0.871510  0.352600  0.014370  0.139156
    H   H61   0.831550  0.271490  0.013880  0.143078
    H   H62   0.953690  0.271650  0.013990  0.198577
    H   H63   0.726310  0.168140  0.013220  0.184309
    H   H64   0.644620  0.004800  0.012240  0.157306
    H   H65   0.726000  0.044550  0.012530  0.171388
    H   H66   0.830710  0.044680  0.012620  0.220337
    H   H67   0.994580  0.127060  0.013220  0.135495
    H   H68   0.954930  0.168430  0.013420  0.160124
    H   H69   0.207330  0.793840  0.428170  0.149756
    H   H70   0.208150  0.926730  0.295660  0.145771
    H   H71   0.074650  0.793990  0.295060  0.149235
    H   H72   0.128670  0.647290  0.496390  0.138215
    H   H73   0.168810  0.728420  0.455210  0.151589
    H   H74   0.047000  0.728570  0.333010  0.194542
    H   H75   0.274160  0.831670  0.457180  0.199635
    H   H76   0.356220  0.995050  0.375480  0.135452
    H   H77   0.274920  0.955440  0.333760  0.157928
    H   H78   0.170480  0.955560  0.228980  0.201951
    H   H79   0.006750  0.873460  0.147300  0.135587
    H   H80   0.046140  0.831940  0.228430  0.156207
    H   H81   0.925370  0.206010  0.705060  0.146361
    H   H82   0.791820  0.073320  0.704580  0.149142
    H   H83   0.792610  0.206170  0.572030  0.149656
    H   H84   0.994940  0.352530  0.627620  0.138206
    H   H85   0.953020  0.271420  0.667080  0.153907
    H   H86   0.831140  0.271570  0.544950  0.193681
    H   H87   0.953910  0.168080  0.771690  0.200686
    H   H88   0.870720  0.004760  0.852370  0.136058
    H   H89   0.829520  0.044500  0.771250  0.155986
    H   H90   0.725030  0.044630  0.666530  0.198506
    H   H91   0.644410  0.126990  0.503170  0.138626
    H   H92   0.725760  0.168360  0.543070  0.156880
    H   H93   0.602880  0.515210  0.474250  0.342906
    H   H94   0.889850  0.515270  0.898830  0.352972
    H   H95   0.024280  0.515210  0.610270  0.351139
    H   H96   0.397130  0.484810  0.386530  0.353037
    H   H97   0.110160  0.484740  0.524220  0.349659
    H   H98   0.975740  0.484850  0.101140  0.340223
    H   H99   0.515210  0.602910  0.525790  0.342029
    H   H100  0.516070  0.889260  0.101870  0.355369
    H   H101  0.515530  0.024160  0.389960  0.351822
    H   H102  0.484620  0.397310  0.613240  0.354117
    H   H103  0.484800  0.110210  0.475700  0.349316
    H   H104  0.484520  0.976420  0.898250  0.338414
    H   H105  0.113850  0.602950  0.985410  0.354847
    H   H106  0.976430  0.889400  0.986270  0.354101
    H   H107  0.400380  0.024210  0.987670  0.348125
    H   H108  0.025590  0.397350  0.014750  0.343328
    H   H109  0.599820  0.110300  0.012790  0.364033
    H   H110  0.888370  0.976420  0.012300  0.362086
    H   H111  0.974830  0.602850  0.386820  0.345636
    H   H112  0.400520  0.889290  0.525990  0.351789
    H   H113  0.113230  0.024070  0.102880  0.353745
    H   H114  0.886120  0.397260  0.473820  0.345210
    H   H115  0.021940  0.110260  0.897820  0.339750
    H   H116  0.598540  0.976360  0.608450  0.350789
    H   H117  0.794160  0.515240  0.705940  0.157420
    H   H118  0.927060  0.515230  0.705940  0.154208
    H   H119  0.794160  0.515210  0.573040  0.150437
    H   H120  0.647510  0.515240  0.628050  0.137469
    O   O1    0.060220  0.561330  0.989780  -0.515501
    O   O2    0.009120  0.438750  0.010330  -0.510335
    O   O3    0.060000  0.489460  0.061330  -0.579268
    O   O4    0.009340  0.510620  0.938780  -0.602795
    O   O5    0.510580  0.561280  0.509290  -0.508052
    O   O6    0.940040  0.510650  0.938640  -0.489867
    O   O7    0.990710  0.489520  0.061180  -0.486582
    O   O8    0.939830  0.438730  0.010260  -0.589335
    O   O9    0.990910  0.561380  0.989620  -0.612561
    O   O10   0.489290  0.438700  0.559900  -0.512117
    O   O11   0.991070  0.561240  0.440200  -0.502713
    O   O12   0.939720  0.438660  0.490540  -0.500755
    O   O13   0.990720  0.489350  0.439980  -0.588656
    O   O14   0.940070  0.510540  0.490760  -0.590479
    O   O15   0.009260  0.510570  0.560060  -0.495610
    O   O16   0.059930  0.489420  0.509270  -0.495065
    O   O17   0.008920  0.438640  0.559830  -0.582113
    O   O18   0.060270  0.561290  0.509500  -0.580723
    O   O19   0.639870  0.515210  0.487980  -0.524652
    O   O20   0.865410  0.515270  0.862110  -0.563642
    O   O21   0.012000  0.515210  0.634710  -0.563146
    O   O22   0.360140  0.484810  0.363280  -0.546768
    O   O23   0.134610  0.484740  0.511930  -0.561806
    O   O24   0.988010  0.484840  0.137870  -0.539742
    O   O25   0.515240  0.639880  0.512070  -0.523863
    O   O26   0.515990  0.864870  0.138540  -0.565903
    O   O27   0.515580  0.011840  0.365550  -0.563858
    O   O28   0.484620  0.360370  0.636460  -0.547792
    O   O29   0.484780  0.134670  0.487970  -0.561700
    O   O30   0.484540  0.988640  0.861560  -0.543574
    O   O31   0.137200  0.639920  0.985610  -0.546562
    O   O32   0.988700  0.865000  0.986200  -0.564363
    O   O33   0.438590  0.489400  0.509200  -0.609482
    O   O34   0.363580  0.011900  0.987550  -0.536203
    O   O35   0.011750  0.360400  0.014530  -0.522498
    O   O36   0.636640  0.134760  0.012960  -0.564327
    O   O37   0.863930  0.988650  0.012340  -0.563296
    O   O38   0.988780  0.639820  0.363700  -0.529054
    O   O39   0.363700  0.864890  0.513580  -0.548089
    O   O40   0.137560  0.011760  0.139610  -0.547272
    O   O41   0.862680  0.360320  0.487440  -0.529457
    O   O42   0.009810  0.134710  0.861150  -0.541895
    O   O43   0.635300  0.988590  0.632970  -0.553596
    O   O44   0.562390  0.059430  0.011280  -0.500987
    O   O45   0.439650  0.008520  0.990180  -0.501374
    O   O46   0.490540  0.059230  0.939500  -0.583018
    O   O47   0.511500  0.008720  0.061960  -0.608296
    O   O48   0.511520  0.939400  0.062110  -0.499674
    O   O49   0.490580  0.989930  0.939660  -0.491666
    O   O50   0.561280  0.510580  0.559990  -0.588352
    O   O51   0.439620  0.939220  0.990250  -0.578647
    O   O52   0.562430  0.990110  0.011450  -0.602007
    O   O53   0.561330  0.991120  0.559980  -0.475818
    O   O54   0.438640  0.939900  0.509130  -0.488899
    O   O55   0.561410  0.510590  0.490800  -0.506694
    O   O56   0.489340  0.990900  0.559840  -0.592492
    O   O57   0.510630  0.940120  0.509260  -0.596678
    O   O58   0.510800  0.009220  0.440060  -0.499224
    O   O59   0.489540  0.060010  0.490660  -0.496093
    O   O60   0.438760  0.009010  0.439940  -0.580574
    O   O61   0.561510  0.060210  0.490780  -0.574279
    O   O62   0.438730  0.489450  0.440000  -0.511678
    O   O63   0.010270  0.059570  0.940980  -0.479991
    O   O64   0.060830  0.008680  0.063410  -0.501744
    O   O65   0.010150  0.059390  0.012820  -0.584802
    O   O66   0.060940  0.008860  0.991560  -0.592142
    O   O67   0.991530  0.939540  0.991120  -0.506061
    O   O68   0.940720  0.990100  0.012350  -0.512601
    O   O69   0.991400  0.939380  0.063010  -0.576433
    O   O70   0.940850  0.990260  0.940520  -0.561220
    O   O71   0.489350  0.438660  0.490700  -0.611352
    O   O72   0.510740  0.561310  0.440110  -0.586944
