data_DB1-Zn2O8-irmof10_A-irmof8_A_No374_repeat
_audit_creation_date              2024-02-20
_audit_creation_method            'Materials Studio'
_symmetry_space_group_name_H-M    'P1'
_symmetry_Int_Tables_number       1
_symmetry_cell_setting            triclinic
loop_
_symmetry_equiv_pos_as_xyz
  x,y,z
_cell_length_a                    30.2925
_cell_length_b                    28.3365
_cell_length_c                    10.0000
_cell_angle_alpha                 90.0000
_cell_angle_beta                  90.0000
_cell_angle_gamma                 89.7156
loop_
_atom_site_label
_atom_site_type_symbol
_atom_site_fract_x
_atom_site_fract_y
_atom_site_fract_z
_atom_site_U_iso_or_equiv
_atom_site_adp_type
_atom_site_occupancy
O1     O     0.50051   0.43191   0.36422   0.00000  Uiso   1.00
O2     O     0.50008   0.43198   0.63603   0.00000  Uiso   1.00
C1     C     0.50027   0.40796   0.50011   0.00000  Uiso   1.00
Zn1    Zn    0.50012   0.49997   0.33423   0.00000  Uiso   1.00
O3     O     0.56355   0.49998   0.63618   0.00000  Uiso   1.00
O4     O     0.56378   0.49997   0.36437   0.00000  Uiso   1.00
C2     C     0.58611   0.49992   0.50024   0.00000  Uiso   1.00
O5     O     0.49958   0.56811   0.63578   0.00000  Uiso   1.00
O6     O     0.49984   0.56803   0.36397   0.00000  Uiso   1.00
C3     C     0.49969   0.59205   0.49989   0.00000  Uiso   1.00
Zn2    Zn    0.49988   0.50005   0.66577   0.00000  Uiso   1.00
O7     O     0.43645   0.49994   0.36382   0.00000  Uiso   1.00
O8     O     0.43622   0.50012   0.63563   0.00000  Uiso   1.00
C4     C     0.41390   0.49993   0.49976   0.00000  Uiso   1.00
O9     O     0.99986   0.43078   0.63578   0.00000  Uiso   1.00
O10    O     0.00029   0.43085   0.36398   0.00000  Uiso   1.00
C5     C     0.00023   0.40684   0.49990   0.00000  Uiso   1.00
Zn3    Zn    0.99989   0.49884   0.66575   0.00000  Uiso   1.00
O11    O     0.93646   0.49913   0.36380   0.00000  Uiso   1.00
O12    O     0.93623   0.49913   0.63562   0.00000  Uiso   1.00
C6     C     0.91390   0.49918   0.49974   0.00000  Uiso   1.00
O13    O     0.00007   0.56698   0.36419   0.00000  Uiso   1.00
O14    O     0.99981   0.56691   0.63599   0.00000  Uiso   1.00
C7     C     0.99983   0.59092   0.50007   0.00000  Uiso   1.00
Zn4    Zn    0.00013   0.49891   0.33422   0.00000  Uiso   1.00
O15    O     0.06356   0.49853   0.63617   0.00000  Uiso   1.00
O16    O     0.06379   0.49870   0.36435   0.00000  Uiso   1.00
C8     C     0.08611   0.49841   0.50023   0.00000  Uiso   1.00
O17    O     0.49993   0.03360   0.63572   0.00000  Uiso   1.00
O18    O     0.50003   0.03353   0.36391   0.00000  Uiso   1.00
C9     C     0.49993   0.05754   0.49983   0.00000  Uiso   1.00
Zn5    Zn    0.49956   0.96555   0.66570   0.00000  Uiso   1.00
O19    O     0.56356   0.96494   0.36486   0.00000  Uiso   1.00
O20    O     0.56328   0.96494   0.63668   0.00000  Uiso   1.00
C10    C     0.58586   0.96478   0.50120   0.00000  Uiso   1.00
O21    O     0.49966   0.89741   0.36415   0.00000  Uiso   1.00
O22    O     0.49940   0.89748   0.63595   0.00000  Uiso   1.00
C11    C     0.49955   0.87346   0.50004   0.00000  Uiso   1.00
Zn6    Zn    0.49995   0.96546   0.33417   0.00000  Uiso   1.00
O23    O     0.43595   0.96617   0.63500   0.00000  Uiso   1.00
O24    O     0.43624   0.96599   0.36319   0.00000  Uiso   1.00
C12    C     0.41365   0.96639   0.49867   0.00000  Uiso   1.00
O25    O     0.99723   0.03248   0.36413   0.00000  Uiso   1.00
O26    O     0.99713   0.03241   0.63594   0.00000  Uiso   1.00
C13    C     0.99710   0.05642   0.50001   0.00000  Uiso   1.00
Zn7    Zn    0.99796   0.96442   0.33417   0.00000  Uiso   1.00
O27    O     0.93396   0.96411   0.63500   0.00000  Uiso   1.00
O28    O     0.93425   0.96410   0.36319   0.00000  Uiso   1.00
C14    C     0.91167   0.96404   0.49867   0.00000  Uiso   1.00
O29    O     0.99823   0.89628   0.63573   0.00000  Uiso   1.00
O30    O     0.99849   0.89635   0.36393   0.00000  Uiso   1.00
C15    C     0.99847   0.87234   0.49985   0.00000  Uiso   1.00
Zn8    Zn    0.99757   0.96434   0.66570   0.00000  Uiso   1.00
O31    O     0.06157   0.96475   0.36486   0.00000  Uiso   1.00
O32    O     0.06129   0.96458   0.63667   0.00000  Uiso   1.00
C16    C     0.08387   0.96488   0.50119   0.00000  Uiso   1.00
C17    C     0.63369   0.49981   0.50017   0.00000  Uiso   1.00
C18    C     0.86632   0.49929   0.49981   0.00000  Uiso   1.00
C19    C     0.65695   0.49976   0.38019   0.00000  Uiso   1.00
C20    C     0.70325   0.49966   0.37901   0.00000  Uiso   1.00
C21    C     0.84306   0.49934   0.61979   0.00000  Uiso   1.00
C22    C     0.79676   0.49945   0.62098   0.00000  Uiso   1.00
C23    C     0.84302   0.49934   0.37991   0.00000  Uiso   1.00
C24    C     0.79672   0.49945   0.37887   0.00000  Uiso   1.00
C25    C     0.65699   0.49977   0.62007   0.00000  Uiso   1.00
C26    C     0.70329   0.49966   0.62112   0.00000  Uiso   1.00
C27    C     0.72668   0.49961   0.50003   0.00000  Uiso   1.00
C28    C     0.77333   0.49950   0.49996   0.00000  Uiso   1.00
H1     H     0.64109   0.49980   0.29708   0.00000  Uiso   1.00
H2     H     0.85892   0.49931   0.70291   0.00000  Uiso   1.00
H3     H     0.85885   0.49930   0.29674   0.00000  Uiso   1.00
H4     H     0.78106   0.49948   0.29541   0.00000  Uiso   1.00
H5     H     0.64116   0.49980   0.70324   0.00000  Uiso   1.00
H6     H     0.71895   0.49963   0.70458   0.00000  Uiso   1.00
C29    C     0.36631   0.49971   0.49983   0.00000  Uiso   1.00
C30    C     0.13370   0.49863   0.50016   0.00000  Uiso   1.00
C31    C     0.34302   0.49952   0.37992   0.00000  Uiso   1.00
C32    C     0.29672   0.49931   0.37887   0.00000  Uiso   1.00
C33    C     0.15699   0.49882   0.62007   0.00000  Uiso   1.00
C34    C     0.20329   0.49904   0.62112   0.00000  Uiso   1.00
C35    C     0.15696   0.49866   0.38019   0.00000  Uiso   1.00
C36    C     0.20325   0.49887   0.37901   0.00000  Uiso   1.00
C37    C     0.34306   0.49968   0.61980   0.00000  Uiso   1.00
C38    C     0.29676   0.49947   0.62098   0.00000  Uiso   1.00
C39    C     0.27333   0.49928   0.49996   0.00000  Uiso   1.00
C40    C     0.22668   0.49906   0.50003   0.00000  Uiso   1.00
H7     H     0.35885   0.49954   0.29675   0.00000  Uiso   1.00
H8     H     0.14116   0.49880   0.70323   0.00000  Uiso   1.00
H9     H     0.14110   0.49853   0.29707   0.00000  Uiso   1.00
H10    H     0.21889   0.49889   0.29550   0.00000  Uiso   1.00
H11    H     0.35891   0.49981   0.70292   0.00000  Uiso   1.00
H12    H     0.28112   0.49945   0.70449   0.00000  Uiso   1.00
C41    C     0.49950   0.78935   0.59787   0.00000  Uiso   1.00
C42    C     0.49971   0.80699   0.36382   0.00000  Uiso   1.00
C43    C     0.49977   0.75910   0.32763   0.00000  Uiso   1.00
C44    C     0.49969   0.72533   0.43230   0.00000  Uiso   1.00
C45    C     0.49974   0.67616   0.40206   0.00000  Uiso   1.00
C46    C     0.49953   0.65852   0.63610   0.00000  Uiso   1.00
C47    C     0.49947   0.70641   0.67230   0.00000  Uiso   1.00
C48    C     0.49955   0.74019   0.56763   0.00000  Uiso   1.00
C49    C     0.49957   0.82122   0.50001   0.00000  Uiso   1.00
C50    C     0.49966   0.64430   0.49992   0.00000  Uiso   1.00
H13    H     0.49940   0.80038   0.70253   0.00000  Uiso   1.00
H14    H     0.49977   0.83372   0.28669   0.00000  Uiso   1.00
H15    H     0.49984   0.66513   0.29740   0.00000  Uiso   1.00
H16    H     0.49947   0.63179   0.71322   0.00000  Uiso   1.00
C51    C     0.50022   0.35709   0.50007   0.00000  Uiso   1.00
C52    C     0.49998   0.10842   0.49987   0.00000  Uiso   1.00
C53    C     0.50039   0.33222   0.38011   0.00000  Uiso   1.00
C54    C     0.50034   0.28273   0.37895   0.00000  Uiso   1.00
C55    C     0.49982   0.13329   0.61983   0.00000  Uiso   1.00
C56    C     0.49986   0.18278   0.62098   0.00000  Uiso   1.00
C57    C     0.50019   0.13331   0.37995   0.00000  Uiso   1.00
C58    C     0.50024   0.18280   0.37887   0.00000  Uiso   1.00
C59    C     0.50001   0.33220   0.61999   0.00000  Uiso   1.00
C60    C     0.49996   0.28271   0.62106   0.00000  Uiso   1.00
C61    C     0.50013   0.25769   0.49999   0.00000  Uiso   1.00
C62    C     0.50008   0.20782   0.49995   0.00000  Uiso   1.00
H17    H     0.50053   0.34916   0.29698   0.00000  Uiso   1.00
H18    H     0.49967   0.11635   0.70296   0.00000  Uiso   1.00
H19    H     0.50031   0.11638   0.29680   0.00000  Uiso   1.00
H20    H     0.50039   0.19954   0.29541   0.00000  Uiso   1.00
H21    H     0.49990   0.34913   0.70314   0.00000  Uiso   1.00
H22    H     0.49981   0.26597   0.70453   0.00000  Uiso   1.00
C63    C     0.99897   0.78822   0.40204   0.00000  Uiso   1.00
C64    C     0.99866   0.80587   0.63608   0.00000  Uiso   1.00
C65    C     0.99886   0.75798   0.67229   0.00000  Uiso   1.00
C66    C     0.99912   0.72420   0.56763   0.00000  Uiso   1.00
C67    C     0.99933   0.67504   0.59788   0.00000  Uiso   1.00
C68    C     0.99964   0.65739   0.36384   0.00000  Uiso   1.00
C69    C     0.99944   0.70528   0.32763   0.00000  Uiso   1.00
C70    C     0.99918   0.73906   0.43229   0.00000  Uiso   1.00
C71    C     0.99872   0.82009   0.49989   0.00000  Uiso   1.00
C72    C     0.99957   0.64317   0.50003   0.00000  Uiso   1.00
H23    H     0.99901   0.79925   0.29738   0.00000  Uiso   1.00
H24    H     0.99845   0.83261   0.71321   0.00000  Uiso   1.00
H25    H     0.99929   0.66401   0.70254   0.00000  Uiso   1.00
H26    H     0.99984   0.63065   0.28673   0.00000  Uiso   1.00
C73    C     0.00055   0.35596   0.49996   0.00000  Uiso   1.00
C74    C     0.00212   0.10728   0.50022   0.00000  Uiso   1.00
C75    C     0.00052   0.33110   0.61992   0.00000  Uiso   1.00
C76    C     0.00083   0.28160   0.62109   0.00000  Uiso   1.00
C77    C     0.00215   0.13215   0.38025   0.00000  Uiso   1.00
C78    C     0.00184   0.18164   0.37909   0.00000  Uiso   1.00
C79    C     0.00178   0.13218   0.62013   0.00000  Uiso   1.00
C80    C     0.00146   0.18167   0.62119   0.00000  Uiso   1.00
C81    C     0.00089   0.33107   0.38004   0.00000  Uiso   1.00
C82    C     0.00121   0.28157   0.37898   0.00000  Uiso   1.00
C83    C     0.00118   0.25656   0.50006   0.00000  Uiso   1.00
C84    C     0.00149   0.20669   0.50011   0.00000  Uiso   1.00
H27    H     0.00028   0.34804   0.70305   0.00000  Uiso   1.00
H28    H     0.00239   0.11520   0.29713   0.00000  Uiso   1.00
H29    H     0.00175   0.11526   0.70329   0.00000  Uiso   1.00
H30    H     0.00123   0.19842   0.70466   0.00000  Uiso   1.00
H31    H     0.00092   0.34799   0.29688   0.00000  Uiso   1.00
H32    H     0.00145   0.26483   0.29552   0.00000  Uiso   1.00
C85    C     0.63345   0.96444   0.50210   0.00000  Uiso   1.00
C86    C     0.86607   0.96277   0.50652   0.00000  Uiso   1.00
C87    C     0.65648   0.96427   0.62248   0.00000  Uiso   1.00
C88    C     0.70277   0.96394   0.62447   0.00000  Uiso   1.00
C89    C     0.84304   0.96294   0.38614   0.00000  Uiso   1.00
C90    C     0.79674   0.96327   0.38414   0.00000  Uiso   1.00
C91    C     0.84254   0.96294   0.62601   0.00000  Uiso   1.00
C92    C     0.79624   0.96327   0.62625   0.00000  Uiso   1.00
C93    C     0.65697   0.96427   0.38260   0.00000  Uiso   1.00
C94    C     0.70327   0.96394   0.38237   0.00000  Uiso   1.00
C95    C     0.72643   0.96377   0.50387   0.00000  Uiso   1.00
C96    C     0.77308   0.96344   0.50475   0.00000  Uiso   1.00
H33    H     0.64046   0.96439   0.70532   0.00000  Uiso   1.00
H34    H     0.85905   0.96282   0.30330   0.00000  Uiso   1.00
H35    H     0.85821   0.96283   0.70946   0.00000  Uiso   1.00
H36    H     0.78042   0.96339   0.70943   0.00000  Uiso   1.00
H37    H     0.64130   0.96438   0.29916   0.00000  Uiso   1.00
H38    H     0.71909   0.96382   0.29919   0.00000  Uiso   1.00
C97    C     0.36607   0.96706   0.49777   0.00000  Uiso   1.00
C98    C     0.13346   0.97032   0.49337   0.00000  Uiso   1.00
C99    C     0.34255   0.96747   0.61727   0.00000  Uiso   1.00
C100   C     0.29625   0.96812   0.61751   0.00000  Uiso   1.00
C101   C     0.15698   0.96992   0.37387   0.00000  Uiso   1.00
C102   C     0.20328   0.96926   0.37363   0.00000  Uiso   1.00
C103   C     0.15649   0.97008   0.61375   0.00000  Uiso   1.00
C104   C     0.20278   0.96943   0.61574   0.00000  Uiso   1.00
C105   C     0.34304   0.96730   0.37739   0.00000  Uiso   1.00
C106   C     0.29675   0.96795   0.37540   0.00000  Uiso   1.00
C107   C     0.27309   0.96836   0.49601   0.00000  Uiso   1.00
C108   C     0.22644   0.96902   0.49513   0.00000  Uiso   1.00
H39    H     0.35822   0.96730   0.70071   0.00000  Uiso   1.00
H40    H     0.14131   0.97008   0.29043   0.00000  Uiso   1.00
H41    H     0.14047   0.97036   0.69659   0.00000  Uiso   1.00
H42    H     0.21826   0.96927   0.69952   0.00000  Uiso   1.00
H43    H     0.35905   0.96702   0.29455   0.00000  Uiso   1.00
H44    H     0.28127   0.96812   0.29162   0.00000  Uiso   1.00
O33    O     0.72439   0.49961   0.26611   0.00000  Uiso   1.00
Li1    Li    0.70746   0.49964   0.10287   0.00000  Uiso   1.00
O34    O     0.77562   0.49950   0.73388   0.00000  Uiso   1.00
Li2    Li    0.79255   0.49946   0.89712   0.00000  Uiso   1.00
O35    O     0.27555   0.49913   0.26603   0.00000  Uiso   1.00
Li3    Li    0.29242   0.49910   0.10274   0.00000  Uiso   1.00
O36    O     0.22447   0.49921   0.73395   0.00000  Uiso   1.00
Li4    Li    0.20759   0.49924   0.89724   0.00000  Uiso   1.00
O37    O     0.50049   0.26012   0.26607   0.00000  Uiso   1.00
Li5    Li    0.50077   0.27820   0.10282   0.00000  Uiso   1.00
O38    O     0.49971   0.20539   0.73387   0.00000  Uiso   1.00
Li6    Li    0.49944   0.18731   0.89712   0.00000  Uiso   1.00
O39    O     0.00080   0.25900   0.73398   0.00000  Uiso   1.00
Li7    Li    0.00043   0.27708   0.89722   0.00000  Uiso   1.00
O40    O     0.00187   0.20425   0.26620   0.00000  Uiso   1.00
Li8    Li    0.00224   0.18617   0.10295   0.00000  Uiso   1.00
O41    O     0.72370   0.96379   0.73774   0.00000  Uiso   1.00
Li9    Li    0.70646   0.96392   0.90068   0.00000  Uiso   1.00
O42    O     0.77582   0.96342   0.27088   0.00000  Uiso   1.00
Li10   Li    0.79305   0.96329   0.10794   0.00000  Uiso   1.00
O43    O     0.27486   0.96849   0.72997   0.00000  Uiso   1.00
Li11   Li    0.29142   0.96837   0.89355   0.00000  Uiso   1.00
O44    O     0.22467   0.96889   0.26117   0.00000  Uiso   1.00
Li12   Li    0.20811   0.96902   0.09759   0.00000  Uiso   1.00
S1     S     0.49930   0.72452   0.83908   0.00000  Uiso   1.00
O45    O     0.44876   0.74311   0.88727   0.00000  Uiso   1.00
O46    O     0.51393   0.68386   0.93978   0.00000  Uiso   1.00
H45    H     0.45583   0.77082   0.94156   0.00000  Uiso   1.00
O47    O     0.53077   0.76851   0.86299   0.00000  Uiso   1.00
S2     S     0.49994   0.74099   0.16084   0.00000  Uiso   1.00
O48    O     0.44952   0.72288   0.11176   0.00000  Uiso   1.00
O49    O     0.51472   0.78152   0.06041   0.00000  Uiso   1.00
H46    H     0.45672   0.69510   0.05760   0.00000  Uiso   1.00
O50    O     0.53150   0.69672   0.13748   0.00000  Uiso   1.00
S3     S     0.99951   0.72338   0.16084   0.00000  Uiso   1.00
O51    O     0.04995   0.74174   0.11265   0.00000  Uiso   1.00
O52    O     0.98510   0.68278   0.06016   0.00000  Uiso   1.00
H47    H     0.04274   0.76948   0.05836   0.00000  Uiso   1.00
O53    O     0.96781   0.76751   0.13693   0.00000  Uiso   1.00
S4     S     0.99878   0.73988   0.83908   0.00000  Uiso   1.00
O54    O     0.04931   0.72154   0.88817   0.00000  Uiso   1.00
O55    O     0.98378   0.78048   0.93950   0.00000  Uiso   1.00
H48    H     0.04225   0.69380   0.94234   0.00000  Uiso   1.00
O56    O     0.96746   0.69574   0.86245   0.00000  Uiso   1.00
