# Generated by REPEAT Assigner based on pymatgen
data_DB1-Zn2O8N2-irmof8_A-TePM_No172
_audit_creation_date              2022-05-24
_audit_creation_method            REPEAT_Assigner
_cell_length_a                    12.228900
_cell_length_b                    12.520600
_cell_length_c                    22.932500
_cell_angle_alpha                 89.941800
_cell_angle_beta                  89.931100
_cell_angle_gamma                 89.891000
_cell_volume                      3511.256968
_symmetry_space_group_name_H-M    P1
_symmetry_Int_Tables_number       1
loop_
    _symmetry_equiv_pos_site_id
    _symmetry_equiv_pos_as_xyz
    1  x,y,z
loop_
    _atom_site_type_symbol
    _atom_site_label
    _atom_site_fract_x
    _atom_site_fract_y
    _atom_site_fract_z
    _atom_type_partial_charge
    O   O1   0.611070  0.608360  0.440180  -0.372949
    O   O2   0.388800  0.608730  0.440390  -0.656426
    C   C1   0.499970  0.647010  0.419360  0.419646
    Zn  Zn1  0.635550  0.499990  0.500010  0.943258
    O   O3   0.389340  0.390810  0.440770  -0.388701
    O   O4   0.611610  0.390650  0.440800  -0.638964
    C   C2   0.500750  0.352280  0.419880  0.438138
    O   O5   0.388930  0.391470  0.559760  -0.641262
    O   O6   0.611200  0.391380  0.559700  -0.388432
    C   C3   0.500040  0.353020  0.580690  0.424508
    Zn  Zn2  0.364450  0.499980  0.500000  0.945123
    O   O7   0.610660  0.609320  0.559160  -0.661247
    O   O8   0.388390  0.609190  0.559280  -0.380226
    C   C4   0.499250  0.647950  0.579990  0.454517
    O   O9   0.123900  0.890970  0.058990  -0.446159
    O   O10  0.123270  0.108060  0.059030  -0.711547
    C   C5   0.162760  0.999440  0.080000  0.536246
    Zn  Zn3  0.011900  0.867190  0.999870  0.929657
    O   O11  0.122910  0.107880  0.940050  -0.446516
    O   O12  0.123080  0.890780  0.940130  -0.741832
    C   C6   0.162270  0.999140  0.919090  0.544009
    O   O13  0.899780  0.108210  0.940480  -0.682496
    O   O14  0.900120  0.891120  0.940600  -0.391148
    C   C7   0.860710  0.999740  0.919580  0.482900
    Zn  Zn4  0.011640  0.131990  0.999680  1.025614
    O   O15  0.900780  0.891300  0.059580  -0.648161
    O   O16  0.900320  0.108400  0.059350  -0.433151
    C   C8   0.861530  0.000040  0.080610  0.479021
    C   C9   0.131250  0.499660  0.457320  -0.019492
    C   C10  0.171870  0.500420  0.559380  0.003637
    C   C11  0.060860  0.500540  0.575150  0.045312
    C   C12  0.982710  0.500200  0.529510  0.010187
    C   C13  0.868750  0.500300  0.542680  -0.020551
    C   C14  0.828130  0.499540  0.440620  0.002650
    C   C15  0.939140  0.499420  0.424850  0.048676
    C   C16  0.017290  0.499760  0.470500  0.003791
    N   N1   0.204980  0.499980  0.500000  -0.081998
    N   N2   0.795030  0.499980  0.500010  -0.081546
    H   H1   0.156930  0.499340  0.411680  0.114724
    H   H2   0.233720  0.500680  0.593020  0.105600
    H   H3   0.843070  0.500620  0.588320  0.116243
    H   H4   0.766270  0.499280  0.406990  0.104463
    C   C17  0.500110  0.000150  0.750140  0.521154
    C   C18  0.404530  0.002020  0.793320  0.179536
    C   C19  0.595460  0.998150  0.793340  0.139325
    C   C20  0.498430  0.906970  0.706960  0.168020
    C   C21  0.502020  0.093450  0.706940  0.149630
    C   C22  0.598420  0.151390  0.692940  -0.471955
    C   C23  0.402100  0.849060  0.692960  -0.478884
    C   C24  0.345000  0.096230  0.807310  -0.485394
    C   C25  0.654910  0.903900  0.807370  -0.467952
    C   C26  0.598250  0.235870  0.652380  0.579637
    C   C27  0.402480  0.764700  0.652430  0.568306
    C   C28  0.258460  0.096060  0.847840  0.622777
    C   C29  0.741240  0.903960  0.847910  0.625722
    C   C30  0.501070  0.264220  0.623040  -0.105086
    C   C31  0.499810  0.736430  0.623120  -0.134544
    C   C32  0.229590  0.001090  0.877170  -0.162610
    C   C33  0.769960  0.998850  0.877230  -0.152858
    C   C34  0.404870  0.205830  0.634550  -0.159779
    C   C35  0.595950  0.794790  0.634620  -0.137976
    C   C36  0.289560  0.907060  0.865690  -0.130696
    C   C37  0.710050  0.092910  0.865710  -0.147734
    C   C38  0.406240  0.121730  0.675290  -0.247467
    C   C39  0.594370  0.878770  0.675340  -0.255995
    C   C40  0.375710  0.908400  0.824970  -0.271960
    C   C41  0.624110  0.091690  0.824970  -0.255043
    H   H5   0.671470  0.131990  0.711720  0.052814
    H   H6   0.328950  0.868410  0.711720  0.059804
    H   H7   0.364750  0.167610  0.788520  0.034851
    H   H8   0.635260  0.832570  0.788600  0.035727
    H   H9   0.332810  0.223030  0.613630  0.142322
    H   H10  0.668120  0.777640  0.613720  0.136047
    H   H11  0.272060  0.836630  0.886610  0.142487
    H   H12  0.727440  0.163280  0.886610  0.131371
    H   H13  0.335240  0.080340  0.681840  0.088887
    H   H14  0.665330  0.920140  0.681900  0.093322
    H   H15  0.418230  0.839000  0.818420  0.090274
    H   H16  0.581630  0.161100  0.818400  0.094442
    C   C42  0.500440  0.000390  0.250210  0.532017
    C   C43  0.404980  0.998970  0.207070  0.173055
    C   C44  0.595910  0.002170  0.206970  0.117100
    C   C45  0.498600  0.093440  0.293470  0.163953
    C   C46  0.502240  0.906950  0.293330  0.154288
    C   C47  0.598620  0.848630  0.307240  -0.467334
    C   C48  0.402220  0.151640  0.307570  -0.486817
    C   C49  0.345520  0.905010  0.193030  -0.489497
    C   C50  0.655380  0.096260  0.193000  -0.468180
    C   C51  0.598350  0.764040  0.347720  0.545932
    C   C52  0.402460  0.235880  0.348180  0.590803
    C   C53  0.259100  0.905590  0.152540  0.629825
    C   C54  0.741830  0.096020  0.152420  0.622972
    C   C55  0.501100  0.735940  0.377080  -0.094423
    C   C56  0.499700  0.263730  0.377470  -0.121971
    C   C57  0.230280  0.000760  0.123300  -0.163946
    C   C58  0.770660  0.001120  0.123000  -0.136951
    C   C59  0.404920  0.794690  0.365670  -0.156220
    C   C60  0.595890  0.205070  0.365870  -0.151097
    C   C61  0.290200  0.094540  0.134840  -0.150758
    C   C62  0.710740  0.907240  0.134470  -0.175282
    C   C63  0.406380  0.878910  0.325000  -0.248235
    C   C64  0.594450  0.121210  0.325080  -0.257147
    C   C65  0.376240  0.092780  0.175520  -0.248640
    C   C66  0.624680  0.908640  0.175250  -0.229250
    H   H17  0.671720  0.867840  0.288440  0.058431
    H   H18  0.329130  0.132600  0.288830  0.055095
    H   H19  0.365240  0.833500  0.211740  0.035691
    H   H20  0.635660  0.167600  0.211840  0.038161
    H   H21  0.332800  0.777680  0.386610  0.139327
    H   H22  0.667990  0.221910  0.386750  0.139912
    H   H23  0.272750  0.165090  0.113990  0.150053
    H   H24  0.728210  0.836860  0.113500  0.139692
    H   H25  0.335390  0.920560  0.318520  0.092663
    H   H26  0.665440  0.079620  0.318450  0.095404
    H   H27  0.418720  0.162010  0.182110  0.086486
    H   H28  0.582200  0.839350  0.181780  0.086541
    C   C67  0.092460  0.383070  0.000020  -0.118183
    C   C68  0.901110  0.343330  0.000530  -0.023114
    C   C69  0.871410  0.451750  0.000520  -0.153549
    C   C70  0.956930  0.528110  0.000250  0.149562
    C   C71  0.932110  0.639400  0.000240  -0.190307
    C   C72  0.123460  0.679140  0.999730  0.048506
    C   C73  0.153150  0.570720  0.999730  -0.201102
    C   C74  0.067630  0.494370  0.000000  0.137408
    N   N3   0.012500  0.311040  0.000270  -0.067581
    N   N4   0.012070  0.711440  0.999980  0.002256
    H   H29  0.178060  0.358020  0.999840  0.138636
    H   H30  0.838080  0.282910  0.000730  0.180743
    H   H31  0.846510  0.664460  0.000420  0.168469
    H   H32  0.186470  0.739580  0.999530  0.168796
    Cl  Cl1  0.981660  0.498880  0.351500  -0.188990
    Cl  Cl2  0.018350  0.501100  0.648500  -0.189183
    Cl  Cl3  0.290750  0.529240  0.999420  -0.029292
    Cl  Cl4  0.733820  0.493230  0.000850  -0.036854
    O   O17  0.311490  0.714660  0.642630  -0.892055
    Li  Li1  0.181990  0.728330  0.669980  0.853498
    O   O18  0.792640  0.814950  0.857730  -0.934695
    Li  Li2  0.778920  0.688600  0.830370  0.875339
    O   O19  0.689290  0.285940  0.642590  -0.908414
    Li  Li3  0.818650  0.272190  0.669980  0.866380
    O   O20  0.207010  0.185040  0.857620  -0.890601
    Li  Li4  0.220880  0.311470  0.830230  0.869593
    O   O21  0.311430  0.286210  0.358060  -0.910931
    Li  Li5  0.182010  0.273070  0.330750  0.866622
    O   O22  0.793230  0.184880  0.142660  -0.929902
    Li  Li6  0.779400  0.311200  0.170130  0.870084
    O   O23  0.689380  0.713620  0.357430  -0.884477
    Li  Li7  0.818810  0.727010  0.330000  0.852287
    O   O24  0.207700  0.816820  0.142710  -0.911262
    Li  Li8  0.221520  0.690270  0.169980  0.875024
