# Generated by REPEAT Assigner based on pymatgen
data_DB1-Zn2O8N2-ADC_A-irmof8_A_No231
_audit_creation_date              2022-05-24
_audit_creation_method            REPEAT_Assigner
_cell_length_a                    16.735800
_cell_length_b                    17.722000
_cell_length_c                    13.190800
_cell_angle_alpha                 89.861100
_cell_angle_beta                  92.078900
_cell_angle_gamma                 84.915100
_cell_volume                      3894.259438
_symmetry_space_group_name_H-M    P1
_symmetry_Int_Tables_number       1
loop_
    _symmetry_equiv_pos_site_id
    _symmetry_equiv_pos_as_xyz
    1  x,y,z
loop_
    _atom_site_type_symbol
    _atom_site_label
    _atom_site_fract_x
    _atom_site_fract_y
    _atom_site_fract_z
    _atom_type_partial_charge
    O   O1   0.587330  0.387870  0.505010  -0.523307
    O   O2   0.424380  0.393790  0.496530  -0.562171
    C   C1   0.507960  0.352360  0.500750  0.452275
    Zn  Zn1  0.599380  0.496410  0.504860  0.967734
    O   O3   0.418360  0.503000  0.642180  -0.543309
    O   O4   0.581310  0.497200  0.650220  -0.519823
    C   C2   0.499860  0.500070  0.697730  0.404156
    O   O5   0.412660  0.612150  0.495190  -0.513913
    O   O6   0.575620  0.606230  0.503290  -0.563995
    C   C3   0.492040  0.647660  0.499170  0.477308
    Zn  Zn2  0.400620  0.503610  0.495150  0.969223
    O   O7   0.581650  0.496860  0.357830  -0.568991
    O   O8   0.418680  0.502950  0.349790  -0.537397
    C   C4   0.500150  0.499690  0.302280  0.444996
    N   N1   0.283700  0.507840  0.489440  -0.176107
    C   C5   0.242940  0.461100  0.552530  0.057694
    C   C6   0.158960  0.464070  0.548510  -0.317572
    C   C7   0.113260  0.514110  0.480980  0.313956
    C   C8   0.154160  0.560730  0.418060  -0.363682
    C   C9   0.238060  0.557730  0.422120  0.306658
    C   C10  0.023710  0.520340  0.472570  -0.196240
    C   C11  0.976290  0.479660  0.527480  -0.209265
    C   C12  0.845830  0.439280  0.581970  -0.334029
    C   C13  0.886730  0.485900  0.519060  0.313302
    C   C14  0.841040  0.535930  0.451520  -0.281584
    C   C15  0.757060  0.538910  0.447500  -0.014588
    N   N2   0.716290  0.492170  0.510580  -0.144513
    C   C16  0.761930  0.442290  0.577910  0.278887
    H   H1   0.276540  0.422180  0.605050  0.125255
    H   H2   0.131170  0.426920  0.598660  0.166394
    H   H3   0.121020  0.599810  0.365320  0.176495
    H   H4   0.878960  0.400200  0.634720  0.149780
    H   H5   0.868830  0.573100  0.401370  0.159525
    H   H6   0.723470  0.577830  0.394970  0.180589
    H   H7   0.996660  0.560960  0.417750  0.141496
    H   H8   0.003330  0.439040  0.582300  0.144446
    C   C17  0.512570  0.267820  0.500880  -0.137258
    C   C18  0.442300  0.229550  0.497350  -0.048267
    C   C19  0.446530  0.150260  0.497470  -0.275877
    C   C20  0.521480  0.106880  0.501150  0.296741
    C   C21  0.591550  0.145270  0.504680  -0.379058
    C   C22  0.587280  0.224490  0.504550  0.264930
    C   C23  0.530580  0.022300  0.501510  -0.217687
    C   C24  0.469390  0.977720  0.498410  -0.209780
    C   C25  0.408430  0.854750  0.495240  -0.371361
    C   C26  0.478490  0.893140  0.498770  0.287983
    C   C27  0.553450  0.849770  0.502450  -0.273058
    C   C28  0.557680  0.770470  0.502580  -0.037508
    C   C29  0.487430  0.732200  0.499040  -0.145847
    C   C30  0.412710  0.775520  0.495370  0.270412
    H   H9   0.384000  0.261460  0.494480  0.115341
    H   H10  0.390690  0.124190  0.494660  0.145110
    H   H11  0.650100  0.113800  0.507560  0.150924
    H   H12  0.349880  0.886210  0.492370  0.148035
    H   H13  0.609290  0.875830  0.505260  0.145629
    H   H14  0.615990  0.738570  0.505440  0.110576
    H   H15  0.591450  0.996570  0.504510  0.144851
    H   H16  0.408520  0.003440  0.495410  0.143676
    C   C31  0.558740  0.497720  0.124260  -0.123831
    C   C32  0.418440  0.502690  0.155760  -0.129907
    C   C33  0.396710  0.503520  0.051890  0.027868
    C   C34  0.459430  0.501330  0.982190  0.052985
    C   C35  0.441270  0.502040  0.875750  -0.144554
    C   C36  0.581570  0.497070  0.844250  -0.152764
    C   C37  0.603300  0.496240  0.948120  0.035424
    C   C38  0.540580  0.498430  0.017820  0.038116
    C   C39  0.500100  0.499760  0.190040  0.090445
    C   C40  0.499910  0.500000  0.809970  0.127827
    H   H17  0.621490  0.495480  0.150830  0.117917
    H   H18  0.372220  0.504300  0.211070  0.149529
    H   H19  0.378520  0.504280  0.849180  0.118116
    H   H20  0.627780  0.495460  0.788930  0.153741
    C   C41  0.280590  0.610270  0.351220  -0.261241
    H   H21  0.267060  0.599250  0.281790  0.111141
    H   H22  0.337650  0.601850  0.362790  0.106626
    H   H23  0.263360  0.662190  0.365220  0.084921
    C   C42  0.719390  0.389750  0.648810  -0.235998
    H   H24  0.736440  0.337820  0.634600  0.077779
    H   H25  0.662320  0.398330  0.637450  0.105315
    H   H26  0.733110  0.400620  0.718220  0.096467
    C   C43  0.666240  0.264400  0.508530  -0.218439
    H   H27  0.696760  0.249740  0.569530  0.049792
    H   H28  0.653660  0.318320  0.507810  0.104444
    H   H29  0.697130  0.249830  0.450700  0.043310
    C   C44  0.333750  0.735610  0.491400  -0.256834
    H   H30  0.302980  0.750000  0.549380  0.060837
    H   H31  0.346340  0.681690  0.491810  0.125859
    H   H32  0.303110  0.750450  0.430540  0.053809
    S   S1   0.703300  0.492660  0.991600  0.782210
    O   O9   0.737170  0.405020  0.032750  -0.475791
    O   O10  0.762190  0.515780  0.907030  -0.440010
    H   H33  0.769030  0.416060  0.093780  0.392313
    O   O11  0.714570  0.546130  0.086800  -0.457386
    S   S2   0.296710  0.507120  0.008420  0.771327
    O   O12  0.272230  0.421610  0.968070  -0.470398
    O   O13  0.235080  0.534420  0.092760  -0.447182
    H   H34  0.239040  0.435040  0.906930  0.394610
    O   O14  0.279570  0.561720  0.912720  -0.446586
