# Generated by REPEAT Assigner based on pymatgen
data_DB1-Zn2O8N2-AZO_A-irmof10_A_No343
_audit_creation_date              2022-05-24
_audit_creation_method            REPEAT_Assigner
_cell_length_a                    32.984700
_cell_length_b                    21.943200
_cell_length_c                    21.931400
_cell_angle_alpha                 121.483000
_cell_angle_beta                  43.637200
_cell_angle_gamma                 136.393000
_cell_volume                      7555.209469
_symmetry_space_group_name_H-M    P1
_symmetry_Int_Tables_number       1
loop_
    _symmetry_equiv_pos_site_id
    _symmetry_equiv_pos_as_xyz
    1  x,y,z
loop_
    _atom_site_type_symbol
    _atom_site_label
    _atom_site_fract_x
    _atom_site_fract_y
    _atom_site_fract_z
    _atom_type_partial_charge
    O   O1   0.473510  0.495650  0.631080  -0.596933
    O   O2   0.398740  0.503640  0.623540  -0.584498
    C   C1   0.413760  0.499770  0.672170  0.487823
    Zn  Zn1  0.545750  0.495390  0.504580  1.023936
    O   O3   0.398790  0.376480  0.496210  -0.584811
    O   O4   0.473820  0.368870  0.503620  -0.595476
    C   C2   0.413850  0.327800  0.499970  0.488325
    O   O5   0.526420  0.504180  0.368890  -0.593744
    O   O6   0.601360  0.496520  0.376440  -0.580771
    C   C3   0.586290  0.500290  0.327810  0.484263
    Zn  Zn2  0.454260  0.504600  0.495400  1.027205
    O   O7   0.601130  0.623510  0.503940  -0.580810
    O   O8   0.526260  0.631120  0.496200  -0.592892
    C   C4   0.586000  0.672200  0.500310  0.485465
    O   O9   0.026220  0.631120  0.496380  -0.598125
    O   O10  0.100990  0.623550  0.504350  -0.585609
    C   C5   0.085880  0.672190  0.500720  0.494051
    Zn  Zn3  0.954230  0.504610  0.495480  1.021049
    O   O11  0.101440  0.496870  0.376540  -0.583938
    O   O12  0.026410  0.504300  0.368960  -0.595515
    C   C6   0.086470  0.500870  0.327870  0.484632
    O   O13  0.973810  0.368900  0.503590  -0.601083
    O   O14  0.898880  0.376470  0.495950  -0.584092
    C   C7   0.914030  0.327830  0.499490  0.505487
    Zn  Zn4  0.045720  0.495410  0.504660  1.029594
    O   O15  0.898600  0.503330  0.623590  -0.579520
    O   O16  0.973460  0.495560  0.631180  -0.595511
    C   C8   0.913630  0.499460  0.672260  0.483839
    N   N1   0.900430  0.510040  0.490070  -0.230436
    C   C9   0.823840  0.455290  0.544540  -0.031504
    C   C10  0.785320  0.459340  0.540500  -0.138197
    C   C11  0.822510  0.518130  0.482010  0.423568
    C   C12  0.898550  0.572640  0.427770  -0.408243
    C   C13  0.937270  0.568820  0.431590  0.476992
    N   N2   0.784560  0.523790  0.476360  -0.216505
    N   N3   0.715420  0.476220  0.523690  -0.215490
    C   C14  0.601430  0.427360  0.572290  -0.407566
    C   C15  0.677470  0.481880  0.518050  0.422265
    C   C16  0.714660  0.540670  0.459550  -0.137799
    C   C17  0.676140  0.544720  0.455520  -0.029161
    N   N4   0.599550  0.489970  0.509990  -0.233516
    C   C18  0.562700  0.431190  0.568470  0.477604
    H   H1   0.794140  0.409520  0.590080  0.176865
    H   H2   0.726590  0.416830  0.582800  0.059268
    H   H3   0.927670  0.618130  0.382510  0.178552
    H   H4   0.572310  0.381870  0.617550  0.178340
    H   H5   0.773390  0.583180  0.417260  0.059418
    H   H6   0.705830  0.590490  0.409980  0.175061
    N   N5   0.099530  0.489990  0.510050  -0.250541
    C   C19  0.176120  0.544600  0.455430  -0.005803
    C   C20  0.214650  0.540560  0.459470  -0.150643
    C   C21  0.177470  0.481920  0.518100  0.427054
    C   C22  0.101420  0.427540  0.572490  -0.420558
    C   C23  0.062690  0.431360  0.568670  0.498014
    N   N6   0.215420  0.476270  0.523750  -0.213283
    N   N7   0.284560  0.523730  0.476290  -0.214142
    C   C24  0.398560  0.572450  0.427550  -0.418552
    C   C25  0.322510  0.518070  0.481940  0.426397
    C   C26  0.285330  0.459430  0.540580  -0.151154
    C   C27  0.323860  0.455400  0.544610  -0.004270
    N   N8   0.400450  0.510010  0.489990  -0.251500
    C   C28  0.437290  0.568640  0.431370  0.496855
    H   H7   0.205810  0.590250  0.409780  0.172455
    H   H8   0.273370  0.582960  0.417060  0.061970
    H   H9   0.072310  0.382160  0.617860  0.180599
    H   H10  0.427670  0.617830  0.382180  0.180192
    H   H11  0.226610  0.417030  0.582980  0.061941
    H   H12  0.294170  0.409750  0.590260  0.171974
    C   C29  0.633810  0.500170  0.232640  0.075379
    C   C30  0.866110  0.499580  0.767430  0.074194
    C   C31  0.690160  0.496730  0.189340  -0.324884
    C   C32  0.736700  0.496580  0.096790  0.444440
    C   C33  0.809760  0.503020  0.810730  -0.326788
    C   C34  0.763220  0.503170  0.903290  0.458028
    C   C35  0.875970  0.496250  0.817230  -0.113754
    C   C36  0.830050  0.496340  0.909850  -0.329052
    C   C37  0.623950  0.503490  0.182840  -0.114516
    C   C38  0.669880  0.503410  0.090220  -0.331934
    C   C39  0.726670  0.499940  0.046680  0.025351
    C   C40  0.773250  0.499810  0.953390  0.013730
    H   H13  0.697290  0.494430  0.223280  0.170353
    H   H14  0.802630  0.505320  0.776790  0.169541
    H   H15  0.914740  0.493870  0.787810  0.103370
    H   H16  0.837460  0.494030  0.943410  0.283067
    H   H17  0.585180  0.505880  0.212270  0.102900
    H   H18  0.662460  0.505720  0.056660  0.286899
    C   C41  0.366320  0.500050  0.767330  0.073394
    C   C42  0.134410  0.501390  0.232540  0.073676
    C   C43  0.376150  0.496650  0.817130  -0.241650
    C   C44  0.330300  0.496890  0.909750  0.402664
    C   C45  0.124580  0.504780  0.182740  -0.251873
    C   C46  0.170430  0.504550  0.090130  0.426176
    C   C47  0.190650  0.497730  0.189240  -0.194409
    C   C48  0.237110  0.497430  0.096680  -0.286298
    C   C49  0.310080  0.503710  0.810640  -0.198039
    C   C50  0.263620  0.504010  0.903200  -0.287143
    C   C51  0.273620  0.500580  0.953300  0.025979
    C   C52  0.227110  0.500850  0.046580  0.007539
    H   H19  0.414840  0.494120  0.787700  0.140710
    H   H20  0.085890  0.507320  0.212180  0.145087
    H   H21  0.197760  0.495370  0.223170  0.132456
    H   H22  0.275710  0.494880  0.067640  0.279005
    H   H23  0.302970  0.506070  0.776710  0.134070
    H   H24  0.225020  0.506560  0.932240  0.273699
    C   C53  0.366240  0.232620  0.500080  0.073053
    C   C54  0.133490  0.767370  0.500610  0.065755
    C   C55  0.376180  0.182950  0.503400  -0.250310
    C   C56  0.330170  0.090330  0.503540  0.424441
    C   C57  0.123550  0.817040  0.497290  -0.236220
    C   C58  0.169560  0.909660  0.497150  0.400957
    C   C59  0.190010  0.810810  0.503830  -0.194882
    C   C60  0.236640  0.903370  0.503750  -0.286873
    C   C61  0.309720  0.189180  0.496860  -0.197501
    C   C62  0.263090  0.096610  0.496940  -0.284128
    C   C63  0.273200  0.046640  0.500290  0.008447
    C   C64  0.226530  0.953350  0.500400  0.025506
    H   H25  0.415070  0.212480  0.505630  0.144652
    H   H26  0.084660  0.787510  0.495060  0.139036
    H   H27  0.197200  0.776960  0.506130  0.133122
    H   H28  0.275430  0.932510  0.505990  0.273262
    H   H29  0.302540  0.223020  0.494560  0.133610
    H   H30  0.224300  0.067480  0.494700  0.278214
    C   C65  0.633310  0.767370  0.500810  0.070249
    C   C66  0.864560  0.232610  0.503270  0.038043
    C   C67  0.689610  0.810810  0.504470  -0.323418
    C   C68  0.735940  0.903370  0.505000  0.454936
    C   C69  0.808270  0.189170  0.499610  -0.298710
    C   C70  0.761940  0.096610  0.499090  0.428798
    C   C71  0.874580  0.182940  0.506440  -0.091206
    C   C72  0.828860  0.090320  0.505990  -0.345180
    C   C73  0.623300  0.817040  0.497640  -0.110576
    C   C74  0.669010  0.909660  0.498100  -0.327372
    C   C75  0.725750  0.953340  0.501800  0.009024
    C   C76  0.772120  0.046640  0.502290  0.041315
    H   H31  0.696840  0.776960  0.506680  0.169107
    H   H32  0.801030  0.223020  0.497410  0.164090
    H   H33  0.913310  0.212460  0.508980  0.098234
    H   H34  0.836380  0.056850  0.508200  0.287587
    H   H35  0.584560  0.787520  0.495110  0.101851
    H   H36  0.661490  0.943130  0.495890  0.282035
    O   O17  0.019280  0.628520  0.372190  -0.483217
    H   H37  0.040680  0.616690  0.383960  0.358694
    O   O18  0.480700  0.371490  0.627870  -0.483095
    H   H38  0.459300  0.383320  0.616090  0.357783
    O   O19  0.980690  0.371800  0.628230  -0.480884
    H   H39  0.959280  0.383600  0.616440  0.354814
    O   O20  0.519290  0.628190  0.371810  -0.480225
    H   H40  0.540700  0.616390  0.383610  0.352104
    H   H41  0.808660  0.449040  0.993200  0.326244
    H   H42  0.831100  0.533820  0.075460  0.368464
    N   N9   0.797520  0.492820  0.051120  -0.928024
    H   H43  0.647700  0.464080  0.007160  0.328102
    H   H44  0.712390  0.552560  0.924320  0.376426
    N   N10  0.702400  0.506930  0.948960  -0.946288
    H   H45  0.338390  0.536240  0.021110  0.318611
    H   H46  0.354010  0.447350  0.942740  0.368151
    N   N11  0.341920  0.493170  0.962530  -0.915548
    H   H47  0.206040  0.551810  0.978350  0.333384
    H   H48  0.103020  0.467470  0.057550  0.374841
    N   N12  0.158810  0.508270  0.037350  -0.943958
    H   H49  0.294760  0.978860  0.550920  0.333747
    H   H50  0.397710  0.057810  0.466090  0.375088
    N   N13  0.341920  0.037680  0.507170  -0.944059
    H   H51  0.161600  0.021040  0.536390  0.318797
    H   H52  0.145390  0.942260  0.447970  0.368309
    N   N14  0.157810  0.962300  0.493520  -0.915391
    H   H53  0.851350  0.007580  0.466380  0.327764
    H   H54  0.786730  0.924470  0.554550  0.375839
    N   N15  0.796710  0.949190  0.509000  -0.943831
    H   H55  0.690230  0.993030  0.451080  0.326409
    H   H56  0.667440  0.074870  0.536160  0.368796
    N   N16  0.701170  0.050790  0.495090  -0.927026
