data_DB1-Zn2O8-AZO_A-DPAC_A_No826_repeat
_audit_creation_date              2024-02-24
_audit_creation_method            'Materials Studio'
_symmetry_space_group_name_H-M    'P1'
_symmetry_Int_Tables_number       1
_symmetry_cell_setting            triclinic
loop_
_symmetry_equiv_pos_as_xyz
  x,y,z
_cell_length_a                    17.5724
_cell_length_b                    39.0143
_cell_length_c                    10.0000
_cell_angle_alpha                 90.0000
_cell_angle_beta                  90.0000
_cell_angle_gamma                 116.5550
loop_
_atom_site_label
_atom_site_type_symbol
_atom_site_fract_x
_atom_site_fract_y
_atom_site_fract_z
_atom_site_U_iso_or_equiv
_atom_site_adp_type
_atom_site_occupancy
O1     O     0.39056   0.50037   0.63577   0.00000  Uiso   1.00
O2     O     0.39033   0.50000   0.36396   0.00000  Uiso   1.00
C1     C     0.35173   0.50014   0.49988   0.00000  Uiso   1.00
Zn1    Zn    0.50005   0.50011   0.66577   0.00000  Uiso   1.00
O3     O     0.55512   0.55516   0.36380   0.00000  Uiso   1.00
O4     O     0.55531   0.55537   0.63562   0.00000  Uiso   1.00
C2     C     0.57460   0.57474   0.49974   0.00000  Uiso   1.00
O5     O     0.60954   0.49970   0.36423   0.00000  Uiso   1.00
O6     O     0.60963   0.49993   0.63604   0.00000  Uiso   1.00
C3     C     0.64827   0.49983   0.50013   0.00000  Uiso   1.00
Zn2    Zn    0.49998   0.49989   0.33423   0.00000  Uiso   1.00
O7     O     0.44476   0.44484   0.63620   0.00000  Uiso   1.00
O8     O     0.44486   0.44464   0.36438   0.00000  Uiso   1.00
C4     C     0.42517   0.42526   0.50026   0.00000  Uiso   1.00
O9     O     0.88785   0.99982   0.26653   0.00000  Uiso   1.00
O10    O     0.88832   0.00019   0.53833   0.00000  Uiso   1.00
C5     C     0.84952   0.00011   0.40240   0.00000  Uiso   1.00
Zn3    Zn    0.99769   0.99991   0.23657   0.00000  Uiso   1.00
O11    O     0.94310   0.94486   0.53853   0.00000  Uiso   1.00
O12    O     0.94291   0.94466   0.26672   0.00000  Uiso   1.00
C6     C     0.92362   0.92528   0.40259   0.00000  Uiso   1.00
O13    O     0.10778   0.00015   0.53814   0.00000  Uiso   1.00
O14    O     0.10745   0.99992   0.26634   0.00000  Uiso   1.00
C7     C     0.14621   0.99996   0.40226   0.00000  Uiso   1.00
Zn4    Zn    0.99801   0.00013   0.56810   0.00000  Uiso   1.00
O15    O     0.05244   0.05518   0.26614   0.00000  Uiso   1.00
O16    O     0.05291   0.05538   0.53795   0.00000  Uiso   1.00
C8     C     0.07182   0.07476   0.40207   0.00000  Uiso   1.00
C9     C     0.88103   0.88251   0.40252   0.00000  Uiso   1.00
C10    C     0.86044   0.86183   0.52364   0.00000  Uiso   1.00
C11    C     0.82045   0.82166   0.52325   0.00000  Uiso   1.00
C12    C     0.80024   0.80136   0.40193   0.00000  Uiso   1.00
C13    C     0.82054   0.82175   0.28137   0.00000  Uiso   1.00
C14    C     0.86052   0.86190   0.28129   0.00000  Uiso   1.00
N1     N     0.75928   0.76022   0.39829   0.00000  Uiso   1.00
N2     N     0.73894   0.73980   0.50405   0.00000  Uiso   1.00
C15    C     0.67768   0.67827   0.62097   0.00000  Uiso   1.00
C16    C     0.69798   0.69866   0.50040   0.00000  Uiso   1.00
C17    C     0.67777   0.67835   0.37908   0.00000  Uiso   1.00
C18    C     0.63778   0.63819   0.37870   0.00000  Uiso   1.00
C19    C     0.61719   0.61751   0.49981   0.00000  Uiso   1.00
C20    C     0.63770   0.63812   0.62104   0.00000  Uiso   1.00
H1     H     0.87547   0.87693   0.61823   0.00000  Uiso   1.00
H2     H     0.80515   0.80631   0.61715   0.00000  Uiso   1.00
H3     H     0.69299   0.69366   0.71491   0.00000  Uiso   1.00
H4     H     0.69307   0.69371   0.28519   0.00000  Uiso   1.00
C21    C     0.11495   0.11753   0.40213   0.00000  Uiso   1.00
C22    C     0.13564   0.13818   0.52330   0.00000  Uiso   1.00
C23    C     0.17614   0.17834   0.52304   0.00000  Uiso   1.00
C24    C     0.19678   0.19867   0.40178   0.00000  Uiso   1.00
C25    C     0.17638   0.17832   0.28115   0.00000  Uiso   1.00
C26    C     0.13590   0.13817   0.28096   0.00000  Uiso   1.00
N3     N     0.23827   0.23982   0.39826   0.00000  Uiso   1.00
N4     N     0.25871   0.26020   0.50408   0.00000  Uiso   1.00
C27    C     0.32060   0.32171   0.62118   0.00000  Uiso   1.00
C28    C     0.30021   0.30135   0.50056   0.00000  Uiso   1.00
C29    C     0.32085   0.32168   0.37930   0.00000  Uiso   1.00
C30    C     0.36135   0.36184   0.37903   0.00000  Uiso   1.00
C31    C     0.38204   0.38250   0.50021   0.00000  Uiso   1.00
C32    C     0.36109   0.36185   0.62138   0.00000  Uiso   1.00
H5     H     0.12028   0.12305   0.61785   0.00000  Uiso   1.00
H6     H     0.19150   0.19368   0.61698   0.00000  Uiso   1.00
H7     H     0.30496   0.30630   0.71507   0.00000  Uiso   1.00
H8     H     0.30549   0.30634   0.28535   0.00000  Uiso   1.00
C33    C     0.27105   0.50010   0.49991   0.00000  Uiso   1.00
C34    C     0.22925   0.50019   0.62127   0.00000  Uiso   1.00
C35    C     0.14908   0.50016   0.62166   0.00000  Uiso   1.00
C36    C     0.10832   0.50002   0.49998   0.00000  Uiso   1.00
C37    C     0.14882   0.49993   0.37827   0.00000  Uiso   1.00
C38    C     0.22899   0.49997   0.37859   0.00000  Uiso   1.00
C39    C     0.03403   0.49999   0.50002   0.00000  Uiso   1.00
C40    C     0.96595   0.49996   0.50005   0.00000  Uiso   1.00
C41    C     0.89166   0.49993   0.50006   0.00000  Uiso   1.00
C42    C     0.85114   0.50001   0.62177   0.00000  Uiso   1.00
C43    C     0.77098   0.49998   0.62143   0.00000  Uiso   1.00
C44    C     0.72894   0.49986   0.50011   0.00000  Uiso   1.00
C45    C     0.77075   0.49978   0.37876   0.00000  Uiso   1.00
C46    C     0.85092   0.49981   0.37838   0.00000  Uiso   1.00
H9     H     0.12104   0.50023   0.71147   0.00000  Uiso   1.00
H10    H     0.12059   0.49983   0.28848   0.00000  Uiso   1.00
H11    H     0.87935   0.50010   0.71156   0.00000  Uiso   1.00
H12    H     0.87897   0.49975   0.28857   0.00000  Uiso   1.00
C47    C     0.76750   0.99872   0.40270   0.00000  Uiso   1.00
C48    C     0.72559   0.99870   0.28133   0.00000  Uiso   1.00
C49    C     0.64562   0.99886   0.28091   0.00000  Uiso   1.00
C50    C     0.60518   0.99905   0.40258   0.00000  Uiso   1.00
C51    C     0.64578   0.99908   0.52430   0.00000  Uiso   1.00
C52    C     0.72576   0.99892   0.52401   0.00000  Uiso   1.00
C53    C     0.53106   0.99920   0.40251   0.00000  Uiso   1.00
C54    C     0.46315   0.99934   0.40246   0.00000  Uiso   1.00
C55    C     0.38903   0.99948   0.40241   0.00000  Uiso   1.00
C56    C     0.34843   0.99946   0.28069   0.00000  Uiso   1.00
C57    C     0.26845   0.99962   0.28100   0.00000  Uiso   1.00
C58    C     0.22670   0.99980   0.40231   0.00000  Uiso   1.00
C59    C     0.26860   0.99982   0.52368   0.00000  Uiso   1.00
C60    C     0.34858   0.99967   0.52409   0.00000  Uiso   1.00
H13    H     0.61750   0.99883   0.19109   0.00000  Uiso   1.00
H14    H     0.61778   0.99923   0.61408   0.00000  Uiso   1.00
H15    H     0.37643   0.99933   0.19092   0.00000  Uiso   1.00
H16    H     0.37670   0.99969   0.61390   0.00000  Uiso   1.00
O17    O     0.87860   0.88005   0.16801   0.00000  Uiso   1.00
Li1    Li    0.86371   0.86508   0.00508   0.00000  Uiso   1.00
O18    O     0.80218   0.80329   0.16867   0.00000  Uiso   1.00
Li2    Li    0.75466   0.75557   0.12946   0.00000  Uiso   1.00
O19    O     0.61962   0.61997   0.73433   0.00000  Uiso   1.00
Li3    Li    0.63451   0.63494   0.89725   0.00000  Uiso   1.00
O20    O     0.61977   0.62009   0.26531   0.00000  Uiso   1.00
Li4    Li    0.63476   0.63514   0.10247   0.00000  Uiso   1.00
O21    O     0.11774   0.12004   0.16762   0.00000  Uiso   1.00
Li5    Li    0.13306   0.13505   0.00474   0.00000  Uiso   1.00
O22    O     0.19515   0.19680   0.16852   0.00000  Uiso   1.00
Li6    Li    0.24332   0.24453   0.12944   0.00000  Uiso   1.00
O23    O     0.37924   0.37998   0.73471   0.00000  Uiso   1.00
Li7    Li    0.36393   0.36497   0.89760   0.00000  Uiso   1.00
O24    O     0.37976   0.37997   0.26570   0.00000  Uiso   1.00
Li8    Li    0.36480   0.36497   0.10281   0.00000  Uiso   1.00
O25    O     0.27043   0.50034   0.75393   0.00000  Uiso   1.00
H17    H     0.33282   0.50035   0.73645   0.00000  Uiso   1.00
O26    O     0.26989   0.49986   0.24589   0.00000  Uiso   1.00
H18    H     0.33231   0.49991   0.26332   0.00000  Uiso   1.00
O27    O     0.73006   0.50007   0.75413   0.00000  Uiso   1.00
H19    H     0.66764   0.50003   0.73669   0.00000  Uiso   1.00
O28    O     0.72960   0.49965   0.24609   0.00000  Uiso   1.00
H20    H     0.66721   0.49964   0.26356   0.00000  Uiso   1.00
O29    O     0.76644   0.99849   0.14868   0.00000  Uiso   1.00
H21    H     0.82870   0.99838   0.16619   0.00000  Uiso   1.00
O30    O     0.76678   0.99896   0.65672   0.00000  Uiso   1.00
H22    H     0.82902   0.99882   0.63932   0.00000  Uiso   1.00
O31    O     0.22743   0.99959   0.14829   0.00000  Uiso   1.00
H23    H     0.16518   0.99973   0.16571   0.00000  Uiso   1.00
O32    O     0.22775   0.00001   0.65633   0.00000  Uiso   1.00
H24    H     0.16548   0.00012   0.63884   0.00000  Uiso   1.00
