data_DB1-Zn2O8-BTC_B-DPAC_A_No25_repeat
_audit_creation_date              2024-02-20
_audit_creation_method            'Materials Studio'
_symmetry_space_group_name_H-M    'P1'
_symmetry_Int_Tables_number       1
_symmetry_cell_setting            triclinic
loop_
_symmetry_equiv_pos_as_xyz
  x,y,z
_cell_length_a                    35.1453
_cell_length_b                    24.8322
_cell_length_c                    10.0000
_cell_angle_alpha                 90.0000
_cell_angle_beta                  90.0000
_cell_angle_gamma                 45.1735
loop_
_atom_site_label
_atom_site_type_symbol
_atom_site_fract_x
_atom_site_fract_y
_atom_site_fract_z
_atom_site_U_iso_or_equiv
_atom_site_adp_type
_atom_site_occupancy
O1     O     0.44558   0.60956   0.63577   0.00000  Uiso   1.00
O2     O     0.44528   0.60943   0.36396   0.00000  Uiso   1.00
C1     C     0.42609   0.64808   0.49988   0.00000  Uiso   1.00
Zn1    Zn    0.50008   0.50006   0.66577   0.00000  Uiso   1.00
O3     O     0.55474   0.50006   0.36380   0.00000  Uiso   1.00
O4     O     0.55494   0.50008   0.63561   0.00000  Uiso   1.00
C2     C     0.57413   0.50016   0.49974   0.00000  Uiso   1.00
O5     O     0.55450   0.39041   0.36423   0.00000  Uiso   1.00
O6     O     0.55467   0.39055   0.63604   0.00000  Uiso   1.00
C3     C     0.57389   0.35190   0.50012   0.00000  Uiso   1.00
Zn2    Zn    0.49994   0.49992   0.33423   0.00000  Uiso   1.00
O7     O     0.44520   0.50007   0.63620   0.00000  Uiso   1.00
O8     O     0.44514   0.49977   0.36439   0.00000  Uiso   1.00
C4     C     0.42575   0.50007   0.50027   0.00000  Uiso   1.00
O9     O     0.94394   0.61177   0.36421   0.00000  Uiso   1.00
O10    O     0.94432   0.61174   0.63601   0.00000  Uiso   1.00
C5     C     0.92494   0.65033   0.50005   0.00000  Uiso   1.00
Zn3    Zn    0.99878   0.50225   0.33434   0.00000  Uiso   1.00
O11    O     0.94429   0.50188   0.63629   0.00000  Uiso   1.00
O12    O     0.94414   0.50179   0.36447   0.00000  Uiso   1.00
C6     C     0.92492   0.50175   0.50034   0.00000  Uiso   1.00
O13    O     0.05376   0.39273   0.63600   0.00000  Uiso   1.00
O14    O     0.05353   0.39276   0.36419   0.00000  Uiso   1.00
C7     C     0.07286   0.35416   0.50015   0.00000  Uiso   1.00
Zn4    Zn    0.99899   0.50224   0.66587   0.00000  Uiso   1.00
O15    O     0.05340   0.50277   0.36392   0.00000  Uiso   1.00
O16    O     0.05369   0.50257   0.63574   0.00000  Uiso   1.00
C8     C     0.07272   0.50300   0.49986   0.00000  Uiso   1.00
C9     C     0.88468   0.50158   0.50027   0.00000  Uiso   1.00
C10    C     0.86381   0.50146   0.37889   0.00000  Uiso   1.00
C11    C     0.82383   0.50128   0.37845   0.00000  Uiso   1.00
C12    C     0.80354   0.50122   0.50011   0.00000  Uiso   1.00
C13    C     0.82376   0.50134   0.62185   0.00000  Uiso   1.00
C14    C     0.86374   0.50151   0.62157   0.00000  Uiso   1.00
C15    C     0.76649   0.50105   0.50004   0.00000  Uiso   1.00
C16    C     0.73254   0.50090   0.49998   0.00000  Uiso   1.00
C17    C     0.69550   0.50073   0.49992   0.00000  Uiso   1.00
C18    C     0.67526   0.50064   0.37819   0.00000  Uiso   1.00
C19    C     0.63528   0.50045   0.37849   0.00000  Uiso   1.00
C20    C     0.61436   0.50036   0.49980   0.00000  Uiso   1.00
C21    C     0.63525   0.50046   0.62117   0.00000  Uiso   1.00
C22    C     0.67522   0.50064   0.62159   0.00000  Uiso   1.00
H1     H     0.87771   0.50150   0.28896   0.00000  Uiso   1.00
H2     H     0.80983   0.50120   0.28863   0.00000  Uiso   1.00
H3     H     0.87759   0.50160   0.71155   0.00000  Uiso   1.00
H4     H     0.62142   0.50038   0.28851   0.00000  Uiso   1.00
H5     H     0.62136   0.50040   0.71110   0.00000  Uiso   1.00
H6     H     0.68923   0.50071   0.71141   0.00000  Uiso   1.00
C23    C     0.11321   0.50266   0.49991   0.00000  Uiso   1.00
C24    C     0.13432   0.50237   0.37859   0.00000  Uiso   1.00
C25    C     0.17456   0.50203   0.37827   0.00000  Uiso   1.00
C26    C     0.19488   0.50197   0.49999   0.00000  Uiso   1.00
C27    C     0.17442   0.50225   0.62166   0.00000  Uiso   1.00
C28    C     0.13419   0.50259   0.62126   0.00000  Uiso   1.00
C29    C     0.23216   0.50166   0.50002   0.00000  Uiso   1.00
C30    C     0.26633   0.50138   0.50005   0.00000  Uiso   1.00
C31    C     0.30361   0.50107   0.50010   0.00000  Uiso   1.00
C32    C     0.32408   0.50076   0.37843   0.00000  Uiso   1.00
C33    C     0.36431   0.50043   0.37885   0.00000  Uiso   1.00
C34    C     0.38527   0.50040   0.50021   0.00000  Uiso   1.00
C35    C     0.36415   0.50071   0.62152   0.00000  Uiso   1.00
C36    C     0.32392   0.50104   0.62183   0.00000  Uiso   1.00
H7     H     0.12041   0.50240   0.28862   0.00000  Uiso   1.00
H8     H     0.18872   0.50182   0.28849   0.00000  Uiso   1.00
H9     H     0.12018   0.50279   0.71121   0.00000  Uiso   1.00
H10    H     0.37833   0.50021   0.28891   0.00000  Uiso   1.00
H11    H     0.37805   0.50069   0.71149   0.00000  Uiso   1.00
H12    H     0.30974   0.50125   0.71161   0.00000  Uiso   1.00
C37    C     0.88469   0.73079   0.50005   0.00000  Uiso   1.00
C38    C     0.86365   0.77261   0.37872   0.00000  Uiso   1.00
C39    C     0.82365   0.85256   0.37836   0.00000  Uiso   1.00
C40    C     0.80349   0.89307   0.50006   0.00000  Uiso   1.00
C41    C     0.82387   0.85256   0.62176   0.00000  Uiso   1.00
C42    C     0.86388   0.77261   0.62139   0.00000  Uiso   1.00
C43    C     0.76641   0.96717   0.50006   0.00000  Uiso   1.00
C44    C     0.73244   0.03506   0.50006   0.00000  Uiso   1.00
C45    C     0.69536   0.10916   0.50008   0.00000  Uiso   1.00
C46    C     0.67499   0.14968   0.37839   0.00000  Uiso   1.00
C47    C     0.63498   0.22963   0.37876   0.00000  Uiso   1.00
C48    C     0.61416   0.27144   0.50011   0.00000  Uiso   1.00
C49    C     0.63519   0.22962   0.62144   0.00000  Uiso   1.00
C50    C     0.67520   0.14967   0.62178   0.00000  Uiso   1.00
H13    H     0.87745   0.74486   0.28876   0.00000  Uiso   1.00
H14    H     0.80953   0.88061   0.28857   0.00000  Uiso   1.00
H15    H     0.87785   0.74486   0.71135   0.00000  Uiso   1.00
H16    H     0.62102   0.25739   0.28881   0.00000  Uiso   1.00
H17    H     0.62138   0.25736   0.71140   0.00000  Uiso   1.00
H18    H     0.68931   0.12161   0.71157   0.00000  Uiso   1.00
C51    C     0.11474   0.26918   0.50005   0.00000  Uiso   1.00
C52    C     0.13586   0.22736   0.62138   0.00000  Uiso   1.00
C53    C     0.17594   0.14740   0.62172   0.00000  Uiso   1.00
C54    C     0.19609   0.10690   0.50002   0.00000  Uiso   1.00
C55    C     0.17562   0.14742   0.37833   0.00000  Uiso   1.00
C56    C     0.13554   0.22737   0.37871   0.00000  Uiso   1.00
C57    C     0.23324   0.03280   0.50001   0.00000  Uiso   1.00
C58    C     0.26727   0.96491   0.50000   0.00000  Uiso   1.00
C59    C     0.30441   0.89081   0.49997   0.00000  Uiso   1.00
C60    C     0.32490   0.85029   0.62165   0.00000  Uiso   1.00
C61    C     0.36498   0.77033   0.62126   0.00000  Uiso   1.00
C62    C     0.38576   0.72853   0.49991   0.00000  Uiso   1.00
C63    C     0.36463   0.77036   0.37859   0.00000  Uiso   1.00
C64    C     0.32455   0.85031   0.37826   0.00000  Uiso   1.00
H19    H     0.12206   0.25510   0.71134   0.00000  Uiso   1.00
H20    H     0.19012   0.11935   0.71151   0.00000  Uiso   1.00
H21    H     0.12151   0.25512   0.28876   0.00000  Uiso   1.00
H22    H     0.37901   0.74258   0.71121   0.00000  Uiso   1.00
H23    H     0.37841   0.74262   0.28862   0.00000  Uiso   1.00
H24    H     0.31036   0.87837   0.28847   0.00000  Uiso   1.00
O17    O     0.80597   0.50129   0.73554   0.00000  Uiso   1.00
Li1    Li    0.75886   0.50109   0.77736   0.00000  Uiso   1.00
O18    O     0.69304   0.50071   0.26450   0.00000  Uiso   1.00
Li2    Li    0.74013   0.50093   0.22266   0.00000  Uiso   1.00
O19    O     0.19224   0.50221   0.73540   0.00000  Uiso   1.00
Li3    Li    0.23962   0.50185   0.77736   0.00000  Uiso   1.00
O20    O     0.30628   0.50078   0.26469   0.00000  Uiso   1.00
Li4    Li    0.25891   0.50112   0.22272   0.00000  Uiso   1.00
O21    O     0.80620   0.88809   0.73548   0.00000  Uiso   1.00
Li5    Li    0.75911   0.98228   0.77739   0.00000  Uiso   1.00
O22    O     0.69267   0.11416   0.26466   0.00000  Uiso   1.00
Li6    Li    0.73976   0.01997   0.22273   0.00000  Uiso   1.00
O23    O     0.19329   0.11189   0.26460   0.00000  Uiso   1.00
Li7    Li    0.24045   0.01771   0.22268   0.00000  Uiso   1.00
O24    O     0.30725   0.88581   0.73538   0.00000  Uiso   1.00
Li8    Li    0.26010   0.97999   0.77732   0.00000  Uiso   1.00
