data_DB1-Zn2O8-irmof6_A-TED_A_No12_repeat
_audit_creation_date              2024-02-20
_audit_creation_method            'Materials Studio'
_symmetry_space_group_name_H-M    'P1'
_symmetry_Int_Tables_number       1
_symmetry_cell_setting            triclinic
loop_
_symmetry_equiv_pos_as_xyz
  x,y,z
_cell_length_a                    22.0103
_cell_length_b                    15.5549
_cell_length_c                    10.0000
_cell_angle_alpha                 90.0000
_cell_angle_beta                  90.0000
_cell_angle_gamma                 45.1278
loop_
_atom_site_label
_atom_site_type_symbol
_atom_site_fract_x
_atom_site_fract_y
_atom_site_fract_z
_atom_site_U_iso_or_equiv
_atom_site_adp_type
_atom_site_occupancy
O1     O     0.41301   0.67505   0.63576   0.00000  Uiso   1.00
O2     O     0.41256   0.67483   0.36396   0.00000  Uiso   1.00
C1     C     0.38188   0.73658   0.49987   0.00000  Uiso   1.00
Zn1    Zn    0.50011   0.50010   0.66577   0.00000  Uiso   1.00
O3     O     0.58748   0.49998   0.36385   0.00000  Uiso   1.00
O4     O     0.58776   0.50001   0.63567   0.00000  Uiso   1.00
C2     C     0.61846   0.50010   0.49981   0.00000  Uiso   1.00
O5     O     0.58712   0.32492   0.36424   0.00000  Uiso   1.00
O6     O     0.58735   0.32514   0.63604   0.00000  Uiso   1.00
C3     C     0.61809   0.26338   0.50013   0.00000  Uiso   1.00
Zn2    Zn    0.49992   0.49986   0.33423   0.00000  Uiso   1.00
O7     O     0.41242   0.50023   0.63615   0.00000  Uiso   1.00
O8     O     0.41236   0.49974   0.36433   0.00000  Uiso   1.00
C4     C     0.38136   0.50028   0.50020   0.00000  Uiso   1.00
O9     O     0.91131   0.67670   0.36420   0.00000  Uiso   1.00
O10    O     0.91195   0.67655   0.63600   0.00000  Uiso   1.00
C5     C     0.88097   0.73827   0.50007   0.00000  Uiso   1.00
Zn3    Zn    0.99898   0.50175   0.33424   0.00000  Uiso   1.00
O11    O     0.91198   0.50111   0.63616   0.00000  Uiso   1.00
O12    O     0.91170   0.50108   0.36434   0.00000  Uiso   1.00
C6     C     0.88101   0.50099   0.50020   0.00000  Uiso   1.00
O13    O     0.08691   0.32664   0.63582   0.00000  Uiso   1.00
O14    O     0.08650   0.32680   0.36402   0.00000  Uiso   1.00
C7     C     0.11743   0.26507   0.49994   0.00000  Uiso   1.00
Zn4    Zn    0.99936   0.50159   0.66578   0.00000  Uiso   1.00
O15    O     0.08624   0.50248   0.36386   0.00000  Uiso   1.00
O16    O     0.08674   0.50206   0.63568   0.00000  Uiso   1.00
C8     C     0.11712   0.50277   0.49981   0.00000  Uiso   1.00
C9     C     0.81596   0.50077   0.50010   0.00000  Uiso   1.00
C10    C     0.68351   0.50032   0.49990   0.00000  Uiso   1.00
C11    C     0.78275   0.50067   0.60567   0.00000  Uiso   1.00
C12    C     0.71672   0.50042   0.39434   0.00000  Uiso   1.00
C13    C     0.71664   0.50045   0.60557   0.00000  Uiso   1.00
C14    C     0.78283   0.50064   0.39444   0.00000  Uiso   1.00
C15    C     0.78128   0.50068   0.75588   0.00000  Uiso   1.00
C16    C     0.71799   0.50047   0.75578   0.00000  Uiso   1.00
H1     H     0.80355   0.50076   0.29584   0.00000  Uiso   1.00
H2     H     0.76387   0.58035   0.80008   0.00000  Uiso   1.00
H3     H     0.84366   0.42123   0.79929   0.00000  Uiso   1.00
H4     H     0.73537   0.42081   0.79994   0.00000  Uiso   1.00
H5     H     0.65559   0.57993   0.79909   0.00000  Uiso   1.00
C17    C     0.18259   0.50215   0.49991   0.00000  Uiso   1.00
C18    C     0.31589   0.50090   0.50010   0.00000  Uiso   1.00
C19    C     0.21585   0.50203   0.60557   0.00000  Uiso   1.00
C20    C     0.28263   0.50102   0.39443   0.00000  Uiso   1.00
C21    C     0.28238   0.50140   0.60567   0.00000  Uiso   1.00
C22    C     0.21610   0.50165   0.39434   0.00000  Uiso   1.00
C23    C     0.21709   0.50229   0.75578   0.00000  Uiso   1.00
C24    C     0.28079   0.50169   0.75587   0.00000  Uiso   1.00
H6     H     0.19539   0.50162   0.29568   0.00000  Uiso   1.00
H7     H     0.23403   0.42299   0.80010   0.00000  Uiso   1.00
H8     H     0.15476   0.58211   0.79894   0.00000  Uiso   1.00
H9     H     0.26374   0.58114   0.79991   0.00000  Uiso   1.00
H10    H     0.34301   0.42201   0.79944   0.00000  Uiso   1.00
C25    C     0.81584   0.86838   0.50008   0.00000  Uiso   1.00
C26    C     0.68323   0.13328   0.50012   0.00000  Uiso   1.00
C27    C     0.78276   0.93471   0.60571   0.00000  Uiso   1.00
C28    C     0.71630   0.06694   0.39449   0.00000  Uiso   1.00
C29    C     0.71657   0.06693   0.60573   0.00000  Uiso   1.00
C30    C     0.78249   0.93473   0.39448   0.00000  Uiso   1.00
C31    C     0.78154   0.93751   0.75592   0.00000  Uiso   1.00
C32    C     0.71817   0.06410   0.75593   0.00000  Uiso   1.00
H11    H     0.80313   0.89330   0.29584   0.00000  Uiso   1.00
H12    H     0.84368   0.89311   0.79985   0.00000  Uiso   1.00
H13    H     0.76461   0.89186   0.79951   0.00000  Uiso   1.00
H14    H     0.65614   0.10850   0.80035   0.00000  Uiso   1.00
H15    H     0.73521   0.10974   0.79906   0.00000  Uiso   1.00
C33    C     0.18382   0.13159   0.49996   0.00000  Uiso   1.00
C34    C     0.31664   0.86669   0.49990   0.00000  Uiso   1.00
C35    C     0.21686   0.06526   0.39433   0.00000  Uiso   1.00
C36    C     0.28360   0.93301   0.60553   0.00000  Uiso   1.00
C37    C     0.28315   0.93304   0.39430   0.00000  Uiso   1.00
C38    C     0.21731   0.06523   0.60556   0.00000  Uiso   1.00
C39    C     0.21795   0.06247   0.24412   0.00000  Uiso   1.00
C40    C     0.28142   0.93588   0.24409   0.00000  Uiso   1.00
H16    H     0.19677   0.10665   0.70420   0.00000  Uiso   1.00
H17    H     0.23507   0.10764   0.19956   0.00000  Uiso   1.00
H18    H     0.15551   0.10736   0.20117   0.00000  Uiso   1.00
H19    H     0.26411   0.89072   0.20031   0.00000  Uiso   1.00
H20    H     0.34366   0.89101   0.20033   0.00000  Uiso   1.00
O17    O     0.69203   0.50030   0.27652   0.00000  Uiso   1.00
Li1    Li    0.72134   0.50038   0.11809   0.00000  Uiso   1.00
O18    O     0.30767   0.50060   0.27669   0.00000  Uiso   1.00
Li2    Li    0.27841   0.50059   0.11817   0.00000  Uiso   1.00
O19    O     0.69137   0.11645   0.27672   0.00000  Uiso   1.00
Li3    Li    0.72045   0.05795   0.11824   0.00000  Uiso   1.00
O20    O     0.30866   0.88350   0.72330   0.00000  Uiso   1.00
Li4    Li    0.27966   0.94199   0.88179   0.00000  Uiso   1.00
