# Generated by REPEAT Assigner based on pymatgen
data_DB1-Zn2O8-AZO_A-irmof20_A_No512
_audit_creation_date              2022-05-24
_audit_creation_method            REPEAT_Assigner
_cell_length_a                    12.701400
_cell_length_b                    37.098200
_cell_length_c                    10.000000
_cell_angle_alpha                 90.000000
_cell_angle_beta                  90.000000
_cell_angle_gamma                 109.830000
_cell_volume                      4432.585164
_symmetry_space_group_name_H-M    P1
_symmetry_Int_Tables_number       1
loop_
    _symmetry_equiv_pos_site_id
    _symmetry_equiv_pos_as_xyz
    1  x,y,z
loop_
    _atom_site_type_symbol
    _atom_site_label
    _atom_site_fract_x
    _atom_site_fract_y
    _atom_site_fract_z
    _atom_type_partial_charge
    O   O1   0.348440  0.500350  0.635790  -0.462319
    O   O2   0.348230  0.499980  0.363980  -0.523587
    C   C1   0.294780  0.500110  0.499910  0.291939
    Zn  Zn1  0.500040  0.500110  0.665770  1.174079
    O   O3   0.555080  0.555160  0.363800  -0.325785
    O   O4   0.555290  0.555370  0.635620  -0.378521
    C   C2   0.574550  0.574740  0.499740  0.034019
    O   O5   0.651660  0.499730  0.364210  -0.451708
    O   O6   0.651730  0.499950  0.636020  -0.309415
    C   C3   0.705220  0.499860  0.500090  0.139213
    Zn  Zn2  0.499990  0.499890  0.334230  1.187420
    O   O7   0.444740  0.444840  0.636200  -0.283883
    O   O8   0.444920  0.444640  0.364380  -0.295310
    C   C4   0.425120  0.425260  0.500260  -0.059806
    O   O9   0.844860  0.999800  0.266550  -0.454861
    O   O10  0.845390  0.000170  0.538360  -0.524679
    C   C5   0.791720  0.000080  0.402430  0.283840
    Zn  Zn3  0.996810  0.999910  0.236570  1.183806
    O   O11  0.942430  0.944860  0.538530  -0.311752
    O   O12  0.942220  0.944650  0.266720  -0.388721
    C   C6   0.922960  0.925280  0.402590  0.038664
    O   O13  0.149080  0.000170  0.538120  -0.458886
    O   O14  0.148690  0.999940  0.266310  -0.319504
    C   C7   0.202320  0.999990  0.402230  0.152939
    Zn  Zn4  0.997200  0.000130  0.568100  1.180747
    O   O15  0.051370  0.055180  0.266140  -0.301950
    O   O16  0.051970  0.055380  0.537950  -0.291096
    C   C8   0.070690  0.074760  0.402070  -0.043103
    C   C9   0.880450  0.882510  0.402520  0.439560
    C   C10  0.859900  0.861830  0.523640  -0.001304
    C   C11  0.819980  0.821660  0.523250  -0.084036
    C   C12  0.799790  0.801360  0.401930  0.220983
    C   C13  0.820060  0.821750  0.281370  -0.022522
    C   C14  0.859960  0.861900  0.281290  -0.128463
    N   N1   0.758900  0.760220  0.398290  -0.034370
    N   N2   0.738610  0.739800  0.504050  0.045261
    C   C15  0.677450  0.678270  0.620970  -0.024221
    C   C16  0.697720  0.698660  0.500410  0.174704
    C   C17  0.677530  0.678360  0.379080  -0.051003
    C   C18  0.637610  0.638190  0.378700  -0.049341
    C   C19  0.617060  0.617510  0.499810  0.458795
    C   C20  0.637550  0.638120  0.621040  -0.108817
    C   C21  0.113950  0.117520  0.402130  0.496975
    C   C22  0.134670  0.138180  0.523300  -0.012756
    C   C23  0.175300  0.178340  0.523040  -0.110301
    C   C24  0.196040  0.198670  0.401780  0.242606
    C   C25  0.175620  0.178310  0.281150  -0.013117
    C   C26  0.135010  0.138170  0.280960  -0.178029
    N   N3   0.237670  0.239820  0.398260  -0.042987
    N   N4   0.258140  0.260200  0.504080  0.032589
    C   C27  0.320190  0.321710  0.621180  -0.012157
    C   C28  0.299770  0.301350  0.500560  0.194179
    C   C29  0.320510  0.321680  0.379300  -0.074663
    C   C30  0.361140  0.361840  0.379030  -0.057939
    C   C31  0.381860  0.382500  0.500210  0.516698
    C   C32  0.360800  0.361850  0.621380  -0.157821
    C   C33  0.891150  0.500030  0.606110  -0.019214
    S   S1   0.886010  0.499810  0.346960  0.177835
    C   C34  0.108850  0.499940  0.393900  -0.190497
    H   H1   0.130820  0.499880  0.305160  0.215703
    S   S2   0.113990  0.500160  0.653040  0.159859
    C   C35  0.822750  0.499910  0.500060  0.108810
    C   C36  0.177250  0.500060  0.499950  0.073659
    C   C37  0.999930  0.499930  0.431650  0.045561
    C   C38  0.000070  0.500040  0.568350  -0.085601
    C   C39  0.387760  0.999670  0.296220  -0.003646
    S   S3   0.383070  0.999890  0.555360  0.184544
    C   C40  0.605460  0.999570  0.508410  -0.186058
    H   H2   0.627550  0.999620  0.597160  0.215159
    S   S4   0.610150  0.999350  0.249270  0.158083
    C   C41  0.319650  0.999840  0.402270  0.094760
    C   C42  0.673560  0.999400  0.402370  0.078520
    C   C43  0.496650  0.999680  0.470660  0.032979
    C   C44  0.496560  0.999560  0.333970  -0.080377
    O   O17  0.983340  0.916770  0.130680  -0.211018
    O   O18  0.799150  0.869970  0.039220  -0.238047
    N   N5   0.880980  0.883050  0.149350  0.316471
    O   O19  0.696290  0.766480  0.132530  -0.277070
    O   O20  0.880230  0.813040  0.039560  -0.206182
    N   N6   0.798690  0.800250  0.150120  0.384228
    O   O21  0.845580  0.916680  0.674560  -0.162322
    O   O22  0.936590  0.869730  0.765750  -0.152929
    N   N7   0.880860  0.882910  0.655700  0.103251
    O   O23  0.833850  0.766370  0.672190  -0.176208
    O   O24  0.742580  0.813050  0.765070  -0.057669
    N   N8   0.798630  0.800190  0.654540  0.229238
    O   O25  0.663600  0.733590  0.769800  -0.294220
    O   O26  0.754890  0.686920  0.862770  -0.188703
    N   N9   0.698820  0.699770  0.752220  0.382907
    O   O27  0.651790  0.583200  0.771650  -0.204181
    O   O28  0.560750  0.630110  0.863120  -0.211996
    N   N10  0.616530  0.616980  0.752980  0.267657
    O   O29  0.801280  0.733600  0.230140  -0.166655
    O   O30  0.617310  0.687030  0.137260  -0.081102
    N   N11  0.698880  0.699830  0.247790  0.237491
    O   O31  0.514310  0.583390  0.227770  -0.175433
    O   O32  0.698540  0.630240  0.136580  -0.181461
    N   N12  0.616650  0.617110  0.246640  0.169491
    O   O33  0.011080  0.083500  0.130030  -0.233489
    O   O34  0.195930  0.129990  0.039030  -0.207863
    N   N13  0.113840  0.117050  0.148960  0.334907
    O   O35  0.300460  0.233450  0.132650  -0.270779
    O   O36  0.116170  0.187240  0.039220  -0.202517
    N   N14  0.197590  0.199840  0.149970  0.359461
    O   O37  0.147600  0.083130  0.674230  -0.170854
    O   O38  0.057590  0.130380  0.765240  -0.174794
    N   N15  0.113110  0.117060  0.655300  0.136108
    O   O39  0.162310  0.233760  0.671980  -0.175704
    O   O40  0.252280  0.186740  0.765040  -0.073041
    N   N16  0.196800  0.199780  0.654390  0.251432
    O   O41  0.332650  0.266190  0.770010  -0.288382
    O   O42  0.242350  0.313160  0.862800  -0.191714
    N   N17  0.298220  0.300180  0.752370  0.368212
    O   O43  0.347430  0.416900  0.771990  -0.218018
    O   O44  0.437170  0.369650  0.863630  -0.180388
    N   N18  0.381970  0.382970  0.753380  0.276093
    O   O45  0.196210  0.266640  0.230030  -0.166410
    O   O46  0.380820  0.312900  0.137610  -0.095814
    N   N19  0.299010  0.300240  0.247940  0.262933
    O   O47  0.485510  0.416510  0.228430  -0.183861
    O   O48  0.300930  0.370020  0.136780  -0.200018
    N   N20  0.382700  0.382960  0.247030  0.189544
    O   O49  0.933160  0.525300  0.848580  -0.305765
    O   O50  0.742890  0.475080  0.792730  -0.326562
    N   N21  0.855450  0.500140  0.750280  0.449705
    O   O51  0.379520  0.974390  0.053740  -0.303183
    O   O52  0.289190  0.024720  0.109600  -0.312966
    N   N22  0.351870  0.999590  0.152040  0.427821
