data_DB1-Cu2O8N2-ADC_A-irmof14_A_No568_repeat
_audit_creation_date              2024-02-24
_audit_creation_method            'Materials Studio'
_symmetry_space_group_name_H-M    'P1'
_symmetry_Int_Tables_number       1
_symmetry_cell_setting            triclinic
loop_
_symmetry_equiv_pos_as_xyz
  x,y,z
_cell_length_a                    22.9831
_cell_length_b                    29.7942
_cell_length_c                    15.8494
_cell_angle_alpha                 92.3220
_cell_angle_beta                  95.5228
_cell_angle_gamma                 49.6709
loop_
_atom_site_label
_atom_site_type_symbol
_atom_site_fract_x
_atom_site_fract_y
_atom_site_fract_z
_atom_site_U_iso_or_equiv
_atom_site_adp_type
_atom_site_occupancy
Cu1    Cu    0.49703   0.49974   0.41941   0.00000  Uiso   1.00
Cu2    Cu    0.50296   0.50026   0.58059   0.00000  Uiso   1.00
O1     O     0.39765   0.54948   0.41917   0.00000  Uiso   1.00
O2     O     0.59701   0.45007   0.43052   0.00000  Uiso   1.00
O3     O     0.49745   0.55814   0.42485   0.00000  Uiso   1.00
O4     O     0.49722   0.44142   0.42484   0.00000  Uiso   1.00
O5     O     0.50257   0.44185   0.57515   0.00000  Uiso   1.00
O6     O     0.50275   0.55860   0.57516   0.00000  Uiso   1.00
O7     O     0.60242   0.45054   0.58083   0.00000  Uiso   1.00
O8     O     0.40298   0.54991   0.56948   0.00000  Uiso   1.00
C1     C     0.35636   0.57164   0.49183   0.00000  Uiso   1.00
C2     C     0.64363   0.42837   0.50817   0.00000  Uiso   1.00
C3     C     0.50010   0.58413   0.50001   0.00000  Uiso   1.00
C4     C     0.49989   0.41587   0.49999   0.00000  Uiso   1.00
Cu3    Cu    0.50270   0.00039   0.58060   0.00000  Uiso   1.00
Cu4    Cu    0.49726   0.99963   0.41944   0.00000  Uiso   1.00
O9     O     0.40292   0.04982   0.56913   0.00000  Uiso   1.00
O10    O     0.60230   0.95067   0.58122   0.00000  Uiso   1.00
O11    O     0.50273   0.94177   0.57518   0.00000  Uiso   1.00
O12    O     0.50249   0.05872   0.57517   0.00000  Uiso   1.00
O13    O     0.49725   0.05824   0.42486   0.00000  Uiso   1.00
O14    O     0.49743   0.94131   0.42487   0.00000  Uiso   1.00
O15    O     0.59712   0.95009   0.43092   0.00000  Uiso   1.00
O16    O     0.39765   0.04936   0.41882   0.00000  Uiso   1.00
C5     C     0.35633   0.07143   0.49131   0.00000  Uiso   1.00
C6     C     0.64363   0.92859   0.50873   0.00000  Uiso   1.00
C7     C     0.50008   0.91578   0.50002   0.00000  Uiso   1.00
C8     C     0.49987   0.08424   0.50001   0.00000  Uiso   1.00
N1     N     0.49263   0.49936   0.29962   0.00000  Uiso   1.00
C9     C     0.53997   0.50347   0.25674   0.00000  Uiso   1.00
C10    C     0.53677   0.50319   0.16803   0.00000  Uiso   1.00
C11    C     0.48592   0.49878   0.11958   0.00000  Uiso   1.00
C12    C     0.43871   0.49468   0.16260   0.00000  Uiso   1.00
C13    C     0.44193   0.49496   0.25123   0.00000  Uiso   1.00
C14    C     0.47941   0.49821   0.02496   0.00000  Uiso   1.00
C15    C     0.52059   0.50179   0.97504   0.00000  Uiso   1.00
C16    C     0.56129   0.50532   0.83739   0.00000  Uiso   1.00
C17    C     0.51408   0.50122   0.88042   0.00000  Uiso   1.00
C18    C     0.46322   0.49681   0.83197   0.00000  Uiso   1.00
C19    C     0.46003   0.49653   0.74326   0.00000  Uiso   1.00
N2     N     0.50736   0.50064   0.70038   0.00000  Uiso   1.00
C20    C     0.55806   0.50504   0.74876   0.00000  Uiso   1.00
H1     H     0.57952   0.50691   0.29237   0.00000  Uiso   1.00
H2     H     0.57441   0.50647   0.13881   0.00000  Uiso   1.00
H3     H     0.39900   0.49123   0.12746   0.00000  Uiso   1.00
H4     H     0.60100   0.50878   0.87253   0.00000  Uiso   1.00
H5     H     0.42558   0.49354   0.86119   0.00000  Uiso   1.00
H6     H     0.42048   0.49309   0.70763   0.00000  Uiso   1.00
H7     H     0.43815   0.49463   0.99625   0.00000  Uiso   1.00
H8     H     0.56186   0.50537   0.00375   0.00000  Uiso   1.00
C21    C     0.50275   0.65389   0.57545   0.00000  Uiso   1.00
C22    C     0.50262   0.70085   0.57175   0.00000  Uiso   1.00
C23    C     0.50521   0.72710   0.64534   0.00000  Uiso   1.00
H9     H     0.50459   0.63944   0.62748   0.00000  Uiso   1.00
H10    H     0.50705   0.71253   0.69738   0.00000  Uiso   1.00
C24    C     0.49743   0.65330   0.42458   0.00000  Uiso   1.00
C25    C     0.49756   0.70028   0.42827   0.00000  Uiso   1.00
C26    C     0.49497   0.72595   0.35469   0.00000  Uiso   1.00
H11    H     0.49560   0.63844   0.37254   0.00000  Uiso   1.00
C27    C     0.49743   0.84601   0.42459   0.00000  Uiso   1.00
C28    C     0.49756   0.79906   0.42828   0.00000  Uiso   1.00
C29    C     0.49497   0.77281   0.35469   0.00000  Uiso   1.00
H12    H     0.49559   0.86046   0.37255   0.00000  Uiso   1.00
H13    H     0.49313   0.78737   0.30266   0.00000  Uiso   1.00
C30    C     0.50275   0.84661   0.57546   0.00000  Uiso   1.00
C31    C     0.50262   0.79963   0.57176   0.00000  Uiso   1.00
C32    C     0.50521   0.77395   0.64534   0.00000  Uiso   1.00
H14    H     0.50458   0.86147   0.62749   0.00000  Uiso   1.00
C33    C     0.50009   0.62902   0.50001   0.00000  Uiso   1.00
C34    C     0.50009   0.72780   0.50002   0.00000  Uiso   1.00
C35    C     0.50009   0.87089   0.50002   0.00000  Uiso   1.00
C36    C     0.50009   0.77211   0.50002   0.00000  Uiso   1.00
C37    C     0.50257   0.34670   0.57543   0.00000  Uiso   1.00
C38    C     0.50244   0.29972   0.57174   0.00000  Uiso   1.00
C39    C     0.50505   0.27403   0.64533   0.00000  Uiso   1.00
H15    H     0.50443   0.36155   0.62747   0.00000  Uiso   1.00
H16    H     0.50691   0.28900   0.69737   0.00000  Uiso   1.00
C40    C     0.49720   0.34612   0.42456   0.00000  Uiso   1.00
C41    C     0.49733   0.29917   0.42826   0.00000  Uiso   1.00
C42    C     0.49471   0.27293   0.35467   0.00000  Uiso   1.00
H17    H     0.49535   0.36058   0.37253   0.00000  Uiso   1.00
C43    C     0.49719   0.15342   0.42457   0.00000  Uiso   1.00
C44    C     0.49732   0.20040   0.42826   0.00000  Uiso   1.00
C45    C     0.49470   0.22608   0.35467   0.00000  Uiso   1.00
H18    H     0.49533   0.13857   0.37254   0.00000  Uiso   1.00
H19    H     0.49285   0.21112   0.30264   0.00000  Uiso   1.00
C46    C     0.50256   0.15399   0.57545   0.00000  Uiso   1.00
C47    C     0.50243   0.20094   0.57175   0.00000  Uiso   1.00
C48    C     0.50505   0.22719   0.64534   0.00000  Uiso   1.00
H20    H     0.50441   0.13954   0.62748   0.00000  Uiso   1.00
C49    C     0.49989   0.37099   0.50000   0.00000  Uiso   1.00
C50    C     0.49988   0.27221   0.50000   0.00000  Uiso   1.00
C51    C     0.49987   0.12913   0.50001   0.00000  Uiso   1.00
C52    C     0.49988   0.22790   0.50000   0.00000  Uiso   1.00
C53    C     0.72916   0.88590   0.51359   0.00000  Uiso   1.00
C54    C     0.76764   0.86511   0.43936   0.00000  Uiso   1.00
C55    C     0.84786   0.82507   0.44381   0.00000  Uiso   1.00
C56    C     0.89197   0.80463   0.52299   0.00000  Uiso   1.00
C57    C     0.85336   0.82548   0.59702   0.00000  Uiso   1.00
C58    C     0.77321   0.86548   0.59251   0.00000  Uiso   1.00
C59    C     0.97755   0.76201   0.53258   0.00000  Uiso   1.00
C60    C     0.02244   0.73822   0.46794   0.00000  Uiso   1.00
C61    C     0.14664   0.67475   0.40352   0.00000  Uiso   1.00
C62    C     0.10802   0.69560   0.47755   0.00000  Uiso   1.00
C63    C     0.15213   0.67516   0.55673   0.00000  Uiso   1.00
C64    C     0.23234   0.63512   0.56119   0.00000  Uiso   1.00
C65    C     0.27084   0.61433   0.48696   0.00000  Uiso   1.00
C66    C     0.22678   0.63474   0.40803   0.00000  Uiso   1.00
H21    H     0.73519   0.88008   0.37777   0.00000  Uiso   1.00
H22    H     0.87405   0.81075   0.38482   0.00000  Uiso   1.00
H23    H     0.88537   0.81073   0.65886   0.00000  Uiso   1.00
H24    H     0.11463   0.68949   0.34167   0.00000  Uiso   1.00
H25    H     0.12594   0.68948   0.61572   0.00000  Uiso   1.00
H26    H     0.26479   0.62015   0.62278   0.00000  Uiso   1.00
H27    H     0.00375   0.75022   0.59689   0.00000  Uiso   1.00
H28    H     0.99624   0.75000   0.40363   0.00000  Uiso   1.00
C67    C     0.27084   0.11373   0.48649   0.00000  Uiso   1.00
C68    C     0.23235   0.13458   0.56072   0.00000  Uiso   1.00
C69    C     0.15213   0.17467   0.55625   0.00000  Uiso   1.00
C70    C     0.10803   0.19509   0.47707   0.00000  Uiso   1.00
C71    C     0.14665   0.17417   0.40305   0.00000  Uiso   1.00
C72    C     0.22679   0.13412   0.40756   0.00000  Uiso   1.00
C73    C     0.02245   0.23775   0.46747   0.00000  Uiso   1.00
C74    C     0.97755   0.26161   0.53210   0.00000  Uiso   1.00
C75    C     0.85335   0.32518   0.59651   0.00000  Uiso   1.00
C76    C     0.89197   0.30427   0.52249   0.00000  Uiso   1.00
C77    C     0.84787   0.32468   0.44330   0.00000  Uiso   1.00
C78    C     0.76765   0.36477   0.43883   0.00000  Uiso   1.00
C79    C     0.72916   0.38563   0.51305   0.00000  Uiso   1.00
C80    C     0.77320   0.36523   0.59198   0.00000  Uiso   1.00
H29    H     0.26480   0.11963   0.62231   0.00000  Uiso   1.00
H30    H     0.12593   0.18904   0.61524   0.00000  Uiso   1.00
H31    H     0.11464   0.18890   0.34120   0.00000  Uiso   1.00
H32    H     0.88534   0.31046   0.65836   0.00000  Uiso   1.00
H33    H     0.87407   0.31032   0.38431   0.00000  Uiso   1.00
H34    H     0.73521   0.37972   0.37724   0.00000  Uiso   1.00
H35    H     0.99625   0.24951   0.40316   0.00000  Uiso   1.00
H36    H     0.00375   0.24984   0.59641   0.00000  Uiso   1.00
N3     N     0.43609   0.03613   0.69621   0.00000  Uiso   1.00
C81    C     0.48665   0.98327   0.74485   0.00000  Uiso   1.00
C82    C     0.48972   0.98361   0.83355   0.00000  Uiso   1.00
C83    C     0.44207   0.03708   0.87621   0.00000  Uiso   1.00
C84    C     0.39162   0.08980   0.82745   0.00000  Uiso   1.00
C85    C     0.38860   0.08943   0.73883   0.00000  Uiso   1.00
C86    C     0.44222   0.04080   0.97045   0.00000  Uiso   1.00
C87    C     0.48710   0.99438   0.02544   0.00000  Uiso   1.00
C88    C     0.53769   0.94539   0.16845   0.00000  Uiso   1.00
C89    C     0.48724   0.99811   0.11968   0.00000  Uiso   1.00
C90    C     0.43960   0.05158   0.16234   0.00000  Uiso   1.00
C91    C     0.44266   0.05193   0.25104   0.00000  Uiso   1.00
N4     N     0.49322   0.99907   0.29968   0.00000  Uiso   1.00
C92    C     0.54071   0.94577   0.25706   0.00000  Uiso   1.00
H37    H     0.52385   0.94162   0.71372   0.00000  Uiso   1.00
H38    H     0.52958   0.94175   0.86732   0.00000  Uiso   1.00
H39    H     0.35423   0.13165   0.85806   0.00000  Uiso   1.00
H40    H     0.57509   0.90354   0.13784   0.00000  Uiso   1.00
H41    H     0.39974   0.09344   0.12857   0.00000  Uiso   1.00
H42    H     0.40546   0.09358   0.28216   0.00000  Uiso   1.00
H43    H     0.40281   0.08456   0.99442   0.00000  Uiso   1.00
H44    H     0.52651   0.95062   0.00147   0.00000  Uiso   1.00
O17    O     0.39744   0.49109   0.28863   0.00000  Uiso   1.00
Li1    Li    0.33021   0.48525   0.25162   0.00000  Uiso   1.00
O18    O     0.60255   0.50891   0.71136   0.00000  Uiso   1.00
Li2    Li    0.66978   0.51475   0.74836   0.00000  Uiso   1.00
O19    O     0.73967   0.88370   0.66226   0.00000  Uiso   1.00
Li3    Li    0.77353   0.86892   0.76710   0.00000  Uiso   1.00
O20    O     0.26033   0.61652   0.33829   0.00000  Uiso   1.00
Li4    Li    0.22648   0.63130   0.23345   0.00000  Uiso   1.00
O21    O     0.26035   0.11584   0.33782   0.00000  Uiso   1.00
Li5    Li    0.22649   0.13058   0.23298   0.00000  Uiso   1.00
O22    O     0.73964   0.38352   0.66172   0.00000  Uiso   1.00
Li6    Li    0.77349   0.36878   0.76657   0.00000  Uiso   1.00
O23    O     0.34128   0.13901   0.69604   0.00000  Uiso   1.00
Li7    Li    0.32110   0.15652   0.58985   0.00000  Uiso   1.00
O24    O     0.58803   0.89619   0.29986   0.00000  Uiso   1.00
Li8    Li    0.65293   0.82455   0.27063   0.00000  Uiso   1.00
O25    O     0.50818   0.79821   0.72964   0.00000  Uiso   1.00
H45    H     0.50781   0.83499   0.71900   0.00000  Uiso   1.00
O26    O     0.49200   0.70170   0.27039   0.00000  Uiso   1.00
H46    H     0.49237   0.66491   0.28103   0.00000  Uiso   1.00
O27    O     0.50805   0.20358   0.72963   0.00000  Uiso   1.00
H47    H     0.50767   0.16672   0.71899   0.00000  Uiso   1.00
O28    O     0.49171   0.29654   0.27038   0.00000  Uiso   1.00
H48    H     0.49209   0.33340   0.28101   0.00000  Uiso   1.00
