# Generated by REPEAT Assigner based on pymatgen
data_DB1-Cu2N8-ADC_B-BDC_B_No86
_audit_creation_date              2022-05-24
_audit_creation_method            REPEAT_Assigner
_cell_length_a                    25.944200
_cell_length_b                    13.714100
_cell_length_c                    7.052800
_cell_angle_alpha                 90.000000
_cell_angle_beta                  90.000000
_cell_angle_gamma                 58.089200
_cell_volume                      2130.155979
_symmetry_space_group_name_H-M    P1
_symmetry_Int_Tables_number       1
loop_
    _symmetry_equiv_pos_site_id
    _symmetry_equiv_pos_as_xyz
    1  x,y,z
loop_
    _atom_site_type_symbol
    _atom_site_label
    _atom_site_fract_x
    _atom_site_fract_y
    _atom_site_fract_z
    _atom_type_partial_charge
    Cu  Cu1  0.500000  0.500000  0.000000  0.328062
    Cu  Cu2  0.500000  0.500000  0.500000  0.289925
    N   N1   0.564020  0.370960  0.156200  -0.033280
    N   N2   0.612090  0.276160  0.092900  -0.348075
    N   N3   0.435980  0.499000  0.343800  0.096342
    N   N4   0.387910  0.500330  0.407100  -0.529927
    N   N5   0.435980  0.629040  0.656200  0.125822
    N   N6   0.387910  0.723840  0.592900  -0.525429
    N   N7   0.564020  0.501000  0.843800  0.110560
    N   N8   0.612090  0.499660  0.907100  -0.522695
    N   N9   0.435980  0.629040  0.843800  -0.002937
    N   N10  0.387910  0.723840  0.907100  -0.438958
    N   N11  0.564020  0.501000  0.656200  0.000223
    N   N12  0.612090  0.499660  0.592900  -0.417250
    N   N13  0.564020  0.370960  0.343800  0.122878
    N   N14  0.612090  0.276160  0.407100  -0.508669
    N   N15  0.435980  0.499000  0.156200  0.023756
    N   N16  0.387910  0.500330  0.092900  -0.462134
    C   C1   0.640530  0.219210  0.250000  0.752458
    C   C2   0.359480  0.500260  0.250000  0.872900
    C   C3   0.359470  0.780780  0.750000  0.848082
    C   C4   0.640530  0.499730  0.750000  0.818813
    Cu  Cu3  -0.000000  0.500000  0.000000  0.294178
    Cu  Cu4  -0.000000  0.500000  0.500000  0.333466
    N   N17  0.935980  0.629040  0.156200  0.114734
    N   N18  0.887910  0.723840  0.092900  -0.521435
    N   N19  0.064020  0.501000  0.343800  -0.015913
    N   N20  0.112090  0.499660  0.407100  -0.345348
    N   N21  0.064020  0.370960  0.656200  -0.038804
    N   N22  0.112090  0.276160  0.592900  -0.354319
    N   N23  0.935980  0.499000  0.843800  -0.028027
    N   N24  0.887910  0.500330  0.907100  -0.347109
    N   N25  0.064020  0.370960  0.843800  0.118366
    N   N26  0.112090  0.276160  0.907100  -0.491683
    N   N27  0.935980  0.499000  0.656200  0.111343
    N   N28  0.887910  0.500330  0.592900  -0.506864
    N   N29  0.935980  0.629040  0.343800  -0.008664
    N   N30  0.887910  0.723840  0.407100  -0.416350
    N   N31  0.064020  0.501000  0.156200  0.096253
    N   N32  0.112090  0.499660  0.092900  -0.473592
    C   C5   0.859480  0.780780  0.250000  0.818894
    C   C6   0.140520  0.499730  0.250000  0.721380
    C   C7   0.140530  0.219210  0.750000  0.739984
    C   C8   0.859480  0.500260  0.750000  0.755295
    C   C9   0.696050  0.499870  0.750000  -0.431594
    C   C10  0.803950  0.500130  0.750000  -0.343060
    C   C11  0.723210  0.499930  0.579940  0.652162
    C   C12  0.776790  0.500060  0.920060  0.489344
    C   C13  0.776790  0.500060  0.579940  -0.361749
    C   C14  0.723210  0.499930  0.920060  -0.272932
    H   H1   0.795280  0.500110  0.462050  0.237805
    H   H2   0.704730  0.499890  0.037950  0.206708
    C   C15  0.303950  0.500130  0.250000  -0.482180
    C   C16  0.196050  0.499870  0.250000  -0.316813
    C   C17  0.276790  0.500060  0.079940  0.652360
    C   C18  0.223210  0.499930  0.420060  0.482830
    C   C19  0.223210  0.499930  0.079940  -0.363532
    C   C20  0.276790  0.500060  0.420060  -0.246057
    H   H3   0.204730  0.499890  0.962050  0.234640
    H   H4   0.295280  0.500110  0.537950  0.203717
    C   C21  0.696050  0.108030  0.250000  -0.335867
    C   C22  0.803950  0.891970  0.250000  -0.431540
    C   C23  0.723210  0.053640  0.079940  0.484435
    C   C24  0.776790  0.946350  0.420060  0.653941
    C   C25  0.776790  0.946350  0.079940  -0.271071
    C   C26  0.723210  0.053640  0.420060  -0.366657
    H   H5   0.795270  0.909340  0.962050  0.205589
    H   H6   0.704730  0.090660  0.537950  0.239320
    C   C27  0.303950  0.891970  0.750000  -0.469929
    C   C28  0.196050  0.108030  0.750000  -0.315695
    C   C29  0.276790  0.946350  0.920060  0.653180
    C   C30  0.223210  0.053640  0.579940  0.475287
    C   C31  0.223210  0.053640  0.920060  -0.369659
    C   C32  0.276790  0.946350  0.579940  -0.244587
    H   H7   0.204730  0.090660  0.037950  0.238028
    H   H8   0.295280  0.909340  0.462050  0.204137
    H   H9   0.675790  0.443420  0.376160  0.423938
    H   H10  0.691110  0.556250  0.276560  0.385309
    N   N33  0.694130  0.499860  0.394510  -1.067859
    H   H11  0.855770  0.443860  0.123840  0.301639
    H   H12  0.777340  0.556460  0.223440  0.332566
    N   N34  0.805870  0.500130  0.105490  -0.838679
    H   H13  0.324210  0.556580  0.876160  0.414300
    H   H14  0.308890  0.443740  0.776560  0.368173
    N   N35  0.305870  0.500130  0.894510  -1.033661
    H   H15  0.144230  0.556140  0.623840  0.310410
    H   H16  0.222660  0.443530  0.723440  0.333036
    N   N36  0.194130  0.499860  0.605490  -0.851865
    H   H17  0.644240  0.155390  0.876160  0.301833
    H   H18  0.722660  0.111140  0.776560  0.332329
    N   N37  0.694130  0.111870  0.894510  -0.837347
    H   H19  0.824220  0.794990  0.623840  0.424925
    H   H20  0.808890  0.938470  0.723440  0.385262
    N   N38  0.805870  0.888130  0.605490  -1.070650
    H   H21  0.324220  0.794990  0.123840  0.413651
    H   H22  0.308890  0.938470  0.223440  0.368330
    N   N39  0.305870  0.888130  0.105490  -1.038196
    H   H23  0.144230  0.155390  0.376160  0.311827
    H   H24  0.222660  0.111140  0.276560  0.334941
    N   N40  0.194130  0.111870  0.394510  -0.851023
