data_DB1-Cu2O8N2-AZO_A-DPAC_A_No724_repeat
_audit_creation_date              2024-02-23
_audit_creation_method            'Materials Studio'
_symmetry_space_group_name_H-M    'P1'
_symmetry_Int_Tables_number       1
_symmetry_cell_setting            triclinic
loop_
_symmetry_equiv_pos_as_xyz
  x,y,z
_cell_length_a                    15.6063
_cell_length_b                    17.2765
_cell_length_c                    17.3722
_cell_angle_alpha                 89.9200
_cell_angle_beta                  87.4575
_cell_angle_gamma                 95.7732
loop_
_atom_site_label
_atom_site_type_symbol
_atom_site_fract_x
_atom_site_fract_y
_atom_site_fract_z
_atom_site_U_iso_or_equiv
_atom_site_adp_type
_atom_site_occupancy
Cu1    Cu    0.41809   0.49671   0.50326   0.00000  Uiso   1.00
Cu2    Cu    0.58191   0.50328   0.49674   0.00000  Uiso   1.00
O1     O     0.42360   0.49698   0.60313   0.00000  Uiso   1.00
O2     O     0.42364   0.49711   0.40275   0.00000  Uiso   1.00
O3     O     0.42996   0.59821   0.50260   0.00000  Uiso   1.00
O4     O     0.41728   0.39589   0.50328   0.00000  Uiso   1.00
O5     O     0.57004   0.40178   0.49738   0.00000  Uiso   1.00
O6     O     0.58272   0.60410   0.49675   0.00000  Uiso   1.00
O7     O     0.57640   0.50312   0.39679   0.00000  Uiso   1.00
O8     O     0.57636   0.50285   0.59726   0.00000  Uiso   1.00
C1     C     0.49998   0.49993   0.64437   0.00000  Uiso   1.00
C2     C     0.50002   0.50006   0.35563   0.00000  Uiso   1.00
C3     C     0.50914   0.64576   0.49958   0.00000  Uiso   1.00
C4     C     0.49086   0.35423   0.50043   0.00000  Uiso   1.00
N1     N     0.29635   0.49183   0.50811   0.00000  Uiso   1.00
C5     C     0.25306   0.53979   0.46049   0.00000  Uiso   1.00
C6     C     0.16283   0.53605   0.46421   0.00000  Uiso   1.00
C7     C     0.11406   0.48434   0.51555   0.00000  Uiso   1.00
C8     C     0.15670   0.43657   0.56298   0.00000  Uiso   1.00
C9     C     0.24688   0.44013   0.55945   0.00000  Uiso   1.00
N2     N     0.02154   0.47916   0.52069   0.00000  Uiso   1.00
N3     N     0.97846   0.52083   0.47932   0.00000  Uiso   1.00
C10    C     0.84330   0.56342   0.43703   0.00000  Uiso   1.00
C11    C     0.88594   0.51566   0.48445   0.00000  Uiso   1.00
C12    C     0.83717   0.46395   0.53580   0.00000  Uiso   1.00
C13    C     0.74694   0.46020   0.53952   0.00000  Uiso   1.00
N4     N     0.70365   0.50816   0.49190   0.00000  Uiso   1.00
C14    C     0.75312   0.55986   0.44056   0.00000  Uiso   1.00
H1     H     0.28946   0.58005   0.42052   0.00000  Uiso   1.00
H2     H     0.13079   0.57329   0.42723   0.00000  Uiso   1.00
H3     H     0.88031   0.60343   0.39730   0.00000  Uiso   1.00
H4     H     0.86921   0.42670   0.57278   0.00000  Uiso   1.00
C15    C     0.48542   0.26748   0.50062   0.00000  Uiso   1.00
C16    C     0.56076   0.22869   0.49773   0.00000  Uiso   1.00
C17    C     0.55544   0.14721   0.49791   0.00000  Uiso   1.00
C18    C     0.47479   0.10287   0.50099   0.00000  Uiso   1.00
C19    C     0.39976   0.14108   0.50388   0.00000  Uiso   1.00
C20    C     0.40478   0.22251   0.50370   0.00000  Uiso   1.00
N5     N     0.46725   0.01932   0.50126   0.00000  Uiso   1.00
N6     N     0.53275   0.98067   0.49875   0.00000  Uiso   1.00
C21    C     0.60024   0.85891   0.49613   0.00000  Uiso   1.00
C22    C     0.52521   0.89712   0.49902   0.00000  Uiso   1.00
C23    C     0.44456   0.85278   0.50210   0.00000  Uiso   1.00
C24    C     0.43924   0.77130   0.50228   0.00000  Uiso   1.00
C25    C     0.51459   0.73251   0.49939   0.00000  Uiso   1.00
C26    C     0.59522   0.77748   0.49631   0.00000  Uiso   1.00
H5     H     0.62356   0.26178   0.49533   0.00000  Uiso   1.00
H6     H     0.61394   0.11850   0.49567   0.00000  Uiso   1.00
H7     H     0.66265   0.89256   0.49375   0.00000  Uiso   1.00
H8     H     0.38606   0.88149   0.50434   0.00000  Uiso   1.00
C27    C     0.50001   0.50005   0.27406   0.00000  Uiso   1.00
C28    C     0.42192   0.49703   0.23479   0.00000  Uiso   1.00
C29    C     0.42168   0.49701   0.15374   0.00000  Uiso   1.00
C30    C     0.50000   0.50003   0.10954   0.00000  Uiso   1.00
C31    C     0.57833   0.50307   0.14748   0.00000  Uiso   1.00
C32    C     0.57810   0.50307   0.22855   0.00000  Uiso   1.00
C33    C     0.49999   0.50002   0.03442   0.00000  Uiso   1.00
C34    C     0.49998   0.50001   0.96559   0.00000  Uiso   1.00
C35    C     0.49998   0.49999   0.89047   0.00000  Uiso   1.00
C36    C     0.42166   0.49698   0.85252   0.00000  Uiso   1.00
C37    C     0.42189   0.49697   0.77145   0.00000  Uiso   1.00
C38    C     0.49998   0.49996   0.72594   0.00000  Uiso   1.00
C39    C     0.57807   0.50297   0.76522   0.00000  Uiso   1.00
C40    C     0.57830   0.50299   0.84627   0.00000  Uiso   1.00
H9     H     0.36388   0.49477   0.12761   0.00000  Uiso   1.00
H10    H     0.63611   0.50530   0.11673   0.00000  Uiso   1.00
H11    H     0.36387   0.49477   0.88327   0.00000  Uiso   1.00
H12    H     0.63609   0.50522   0.87240   0.00000  Uiso   1.00
O9     O     0.28470   0.39516   0.60410   0.00000  Uiso   1.00
Li1    Li    0.24682   0.32682   0.67196   0.00000  Uiso   1.00
O10    O     0.11230   0.38858   0.61064   0.00000  Uiso   1.00
Li2    Li    0.00408   0.36818   0.63089   0.00000  Uiso   1.00
O11    O     0.71530   0.60483   0.39591   0.00000  Uiso   1.00
Li3    Li    0.75318   0.67317   0.32805   0.00000  Uiso   1.00
O12    O     0.70331   0.41195   0.58743   0.00000  Uiso   1.00
Li4    Li    0.73285   0.34632   0.65260   0.00000  Uiso   1.00
O13    O     0.33416   0.25639   0.50641   0.00000  Uiso   1.00
Li5    Li    0.22740   0.22178   0.51050   0.00000  Uiso   1.00
O14    O     0.32490   0.10071   0.50674   0.00000  Uiso   1.00
Li6    Li    0.29363   0.00290   0.50791   0.00000  Uiso   1.00
O15    O     0.66584   0.74360   0.49360   0.00000  Uiso   1.00
Li7    Li    0.77260   0.77821   0.48951   0.00000  Uiso   1.00
O16    O     0.36397   0.73163   0.50516   0.00000  Uiso   1.00
Li8    Li    0.26106   0.75791   0.50911   0.00000  Uiso   1.00
H13    H     0.32427   0.45522   0.33103   0.00000  Uiso   1.00
H14    H     0.28601   0.52981   0.26138   0.00000  Uiso   1.00
N7     N     0.33653   0.49373   0.27970   0.00000  Uiso   1.00
H15    H     0.67576   0.54490   0.31687   0.00000  Uiso   1.00
H16    H     0.71402   0.47029   0.24438   0.00000  Uiso   1.00
N8     N     0.66350   0.50638   0.26663   0.00000  Uiso   1.00
H17    H     0.32917   0.53143   0.68281   0.00000  Uiso   1.00
H18    H     0.28106   0.45352   0.75593   0.00000  Uiso   1.00
N9     N     0.33650   0.49368   0.73336   0.00000  Uiso   1.00
H19    H     0.67080   0.46847   0.66930   0.00000  Uiso   1.00
H20    H     0.71891   0.54641   0.73833   0.00000  Uiso   1.00
N10    N     0.66347   0.50624   0.72032   0.00000  Uiso   1.00
