# Generated by REPEAT Assigner based on pymatgen
data_DB1-Zn2O8N2-irmof14_A-irmof7_A_No339
_audit_creation_date              2022-05-24
_audit_creation_method            REPEAT_Assigner
_cell_length_a                    10.743800
_cell_length_b                    25.840800
_cell_length_c                    14.421900
_cell_angle_alpha                 90.040700
_cell_angle_beta                  89.881600
_cell_angle_gamma                 89.775900
_cell_volume                      4003.888627
_symmetry_space_group_name_H-M    P1
_symmetry_Int_Tables_number       1
loop_
    _symmetry_equiv_pos_site_id
    _symmetry_equiv_pos_as_xyz
    1  x,y,z
loop_
    _atom_site_type_symbol
    _atom_site_label
    _atom_site_fract_x
    _atom_site_fract_y
    _atom_site_fract_z
    _atom_type_partial_charge
    O   O1   0.501150  0.425370  0.594150  -0.584956
    O   O2   0.500530  0.425380  0.405680  -0.637801
    C   C1   0.500780  0.399080  0.499930  0.503786
    Zn  Zn1  0.500000  0.500010  0.614940  1.050969
    O   O3   0.679460  0.500020  0.405600  -0.623333
    O   O4   0.679540  0.500090  0.594070  -0.641150
    C   C2   0.742770  0.500030  0.499870  0.576705
    O   O5   0.499080  0.574650  0.405850  -0.630559
    O   O6   0.499240  0.574640  0.594320  -0.613663
    C   C3   0.499120  0.600940  0.500070  0.558518
    Zn  Zn2  0.500010  0.500010  0.385060  1.035342
    O   O7   0.320540  0.499890  0.594400  -0.666130
    O   O8   0.320460  0.500020  0.405930  -0.607354
    C   C4   0.257230  0.499810  0.500130  0.552455
    O   O9   0.500160  0.990400  0.405910  -0.610737
    O   O10  0.499850  0.990390  0.594380  -0.638395
    C   C5   0.499870  0.016690  0.500130  0.517169
    Zn  Zn3  0.499190  0.915760  0.385130  1.077270
    O   O11  0.679010  0.915260  0.593750  -0.633661
    O   O12  0.678770  0.915190  0.405270  -0.645076
    C   C6   0.742160  0.915080  0.499230  0.592057
    O   O13  0.498840  0.841130  0.594220  -0.617005
    O   O14  0.498690  0.841130  0.405750  -0.634149
    C   C7   0.498800  0.814830  0.499990  0.557720
    Zn  Zn4  0.499590  0.915770  0.615010  1.012266
    O   O15  0.319770  0.916370  0.406380  -0.644257
    O   O16  0.320000  0.916250  0.594860  -0.609402
    C   C8   0.256620  0.916630  0.500900  0.535123
    C   C9   0.578830  0.467460  0.800780  -0.076442
    C   C10  0.574980  0.469050  0.897810  0.100668
    C   C11  0.651880  0.437300  0.951290  -0.294218
    H   H1   0.633210  0.445010  0.770390  0.153095
    H   H2   0.706260  0.414850  0.920660  0.206179
    C   C12  0.421170  0.532550  0.801110  -0.219262
    C   C13  0.425040  0.530960  0.898130  0.022909
    C   C14  0.348140  0.562710  0.951930  0.251957
    H   H3   0.366790  0.555000  0.770950  0.259975
    C   C15  0.421190  0.532550  0.199220  -0.092186
    C   C16  0.425050  0.530960  0.102190  0.130349
    C   C17  0.348150  0.562710  0.048710  -0.337121
    H   H4   0.366810  0.555000  0.229620  0.159163
    H   H5   0.293770  0.585160  0.079340  0.220613
    C   C18  0.578850  0.467460  0.198890  -0.233621
    C   C19  0.574990  0.469050  0.101880  0.033157
    C   C20  0.651880  0.437300  0.048070  0.223055
    H   H6   0.633230  0.445010  0.229050  0.260805
    N   N1   0.500000  0.500010  0.750160  0.025092
    C   C21  0.500010  0.500010  0.954230  0.030481
    N   N2   0.500020  0.500000  0.249840  0.046577
    C   C22  0.500020  0.500010  0.045770  0.020689
    C   C23  0.498890  0.758360  0.500020  -0.113855
    C   C24  0.418400  0.732020  0.560210  0.197794
    C   C25  0.579450  0.731730  0.439840  -0.126260
    C   C26  0.339700  0.760140  0.618990  -0.461087
    C   C27  0.258280  0.735390  0.679890  0.133184
    H   H7   0.341770  0.796070  0.617390  0.262021
    C   C28  0.499040  0.657410  0.500050  -0.136340
    C   C29  0.579520  0.683760  0.439860  -0.056340
    C   C30  0.418470  0.684040  0.560230  0.237131
    C   C31  0.339860  0.656190  0.619030  -0.500993
    C   C32  0.258360  0.681220  0.679910  0.118013
    H   H8   0.342030  0.620260  0.617460  0.264137
    H   H9   0.632070  0.665250  0.400610  0.118135
    H   H10  0.631940  0.750060  0.400580  0.142871
    C   C33  0.500320  0.318930  0.417370  -0.076209
    C   C34  0.500200  0.264790  0.421450  0.037967
    C   C35  0.499860  0.234810  0.340890  -0.292241
    H   H11  0.500170  0.335800  0.360390  0.118549
    H   H12  0.499710  0.251800  0.283900  0.198275
    C   C36  0.500860  0.319030  0.582570  -0.152012
    C   C37  0.500720  0.264870  0.578560  -0.060570
    C   C38  0.500920  0.234980  0.659150  0.261089
    H   H13  0.501090  0.335950  0.639540  0.124033
    C   C39  0.500330  0.096830  0.582690  -0.073487
    C   C40  0.500450  0.150980  0.578610  0.038514
    C   C41  0.500790  0.180960  0.659180  -0.298361
    H   H14  0.500480  0.079970  0.639670  0.116333
    H   H15  0.500940  0.163960  0.716160  0.199458
    C   C42  0.499790  0.096740  0.417490  -0.156973
    C   C43  0.499930  0.150900  0.421510  -0.058984
    C   C44  0.499730  0.180790  0.340920  0.253694
    H   H16  0.499560  0.079810  0.360530  0.135298
    C   C45  0.500660  0.347320  0.499960  0.007389
    C   C46  0.500380  0.233430  0.500020  0.070205
    C   C47  0.499990  0.068450  0.500110  0.000662
    C   C48  0.500260  0.182340  0.500050  0.072898
    C   C49  0.121410  0.499870  0.500060  -0.098057
    C   C50  0.058160  0.466370  0.440010  0.228382
    C   C51  0.057240  0.533420  0.560060  -0.177284
    C   C52  0.125920  0.433600  0.381410  -0.500477
    C   C53  0.066520  0.399710  0.320650  0.146712
    H   H17  0.212330  0.434440  0.383030  0.286352
    C   C54  0.878600  0.499970  0.499940  -0.152757
    C   C55  0.941850  0.533470  0.560000  -0.027177
    C   C56  0.942760  0.466420  0.439950  0.226989
    C   C57  0.875900  0.433700  0.381280  -0.484817
    C   C58  0.936220  0.399760  0.320580  0.110522
    H   H18  0.789460  0.434620  0.382810  0.251972
    H   H19  0.897260  0.555350  0.599130  0.111359
    H   H20  0.101240  0.555270  0.599230  0.155747
    C   C59  0.577620  0.948090  0.198970  -0.089194
    C   C60  0.573610  0.946510  0.101960  0.092841
    C   C61  0.650330  0.978050  0.048170  -0.287511
    H   H21  0.631980  0.970400  0.229150  0.157962
    H   H22  0.704690  0.000350  0.078580  0.206099
    C   C62  0.420150  0.883430  0.199280  -0.199851
    C   C63  0.423850  0.885020  0.102240  -0.006630
    C   C64  0.346960  0.853480  0.048750  0.261588
    H   H23  0.365890  0.861130  0.229660  0.208145
    C   C65  0.419500  0.883440  0.801160  -0.219694
    C   C66  0.423520  0.885020  0.898180  0.195858
    C   C67  0.346800  0.853480  0.951960  -0.388105
    H   H24  0.365140  0.861140  0.770990  0.230199
    H   H25  0.292440  0.831180  0.921550  0.252427
    C   C68  0.576970  0.948100  0.800860  -0.220558
    C   C69  0.573270  0.946510  0.897890  0.029488
    C   C70  0.650170  0.978050  0.951390  0.215230
    H   H26  0.631230  0.970400  0.770480  0.253684
    N   N3   0.498970  0.915760  0.249900  0.040218
    C   C71  0.498640  0.915770  0.045840  0.063839
    N   N4   0.498160  0.915770  0.750230  0.085233
    C   C72  0.498490  0.915770  0.954300  0.003725
    C   C73  0.120790  0.914200  0.497510  -0.100226
    C   C74  0.057540  0.947870  0.557820  0.237332
    C   C75  0.056630  0.880820  0.437770  -0.145372
    C   C76  0.125300  0.980460  0.616150  -0.525093
    C   C77  0.065910  0.014510  0.677140  0.154051
    H   H27  0.211720  0.979370  0.614180  0.297742
    C   C78  0.877990  0.914760  0.498610  -0.161246
    C   C79  0.941230  0.881090  0.438300  -0.056137
    C   C80  0.942150  0.948140  0.558350  0.235398
    C   C81  0.875290  0.981040  0.617280  -0.493457
    C   C82  0.935610  0.014810  0.677730  0.108360
    H   H28  0.788850  0.980360  0.616090  0.257600
    H   H29  0.896640  0.859330  0.399350  0.125414
    H   H30  0.100620  0.858860  0.398420  0.148699
    O   O17  0.739970  0.400940  0.097320  -0.458237
    H   H31  0.728860  0.405530  0.173420  0.257234
    O   O18  0.260050  0.599080  0.902680  -0.457638
    H   H32  0.271170  0.594490  0.826580  0.237691
    O   O19  0.499360  0.153150  0.248630  -0.517548
    H   H33  0.499300  0.110700  0.260310  0.342962
    O   O20  0.501290  0.262620  0.751430  -0.519751
    H   H34  0.501350  0.305070  0.739760  0.346029
    O   O21  0.738070  0.014180  0.901790  -0.455635
    H   H35  0.726840  0.009620  0.825730  0.259587
    O   O22  0.259060  0.817350  0.098350  -0.485232
    H   H36  0.270290  0.821910  0.174400  0.337216
    C   C83  0.170990  0.766760  0.745080  -0.246581
    H   H37  0.189300  0.758300  0.808420  0.073529
    H   H38  0.183750  0.803100  0.735290  0.057996
    H   H39  0.085940  0.758290  0.731850  0.092355
    C   C84  0.171160  0.650160  0.745130  -0.221083
    H   H40  0.086070  0.658740  0.731700  0.086325
    H   H41  0.184300  0.613770  0.735560  0.083407
    H   H42  0.189190  0.658750  0.808450  0.110579
    C   C85  0.142090  0.363360  0.255650  -0.236248
    H   H43  0.121900  0.370930  0.192270  0.071898
    H   H44  0.229470  0.368660  0.265450  0.073678
    H   H45  0.121640  0.328010  0.269040  0.081675
    C   C86  0.861630  0.363470  0.255510  -0.212243
    H   H46  0.882210  0.328100  0.269110  0.079905
    H   H47  0.774110  0.368960  0.265020  0.063049
    H   H48  0.882470  0.370920  0.192160  0.110255
    C   C87  0.141490  0.050650  0.741840  -0.228900
    H   H49  0.121420  0.043140  0.805300  0.068567
    H   H50  0.228870  0.045110  0.731690  0.071655
    H   H51  0.120900  0.086060  0.728530  0.079722
    C   C88  0.861030  0.051310  0.743110  -0.209357
    H   H52  0.881470  0.086620  0.729430  0.079442
    H   H53  0.773500  0.046060  0.733950  0.062638
    H   H54  0.881990  0.043800  0.806370  0.107937
