data_DB1-Zn2O8-irmof10_A-irmof20_A_No391_repeat
_audit_creation_date              2024-02-24
_audit_creation_method            'Materials Studio'
_symmetry_space_group_name_H-M    'P1'
_symmetry_Int_Tables_number       1
_symmetry_cell_setting            triclinic
loop_
_symmetry_equiv_pos_as_xyz
  x,y,z
_cell_length_a                    30.2925
_cell_length_b                    27.8474
_cell_length_c                    10.0000
_cell_angle_alpha                 90.0000
_cell_angle_beta                  90.0000
_cell_angle_gamma                 89.7150
loop_
_atom_site_label
_atom_site_type_symbol
_atom_site_fract_x
_atom_site_fract_y
_atom_site_fract_z
_atom_site_U_iso_or_equiv
_atom_site_adp_type
_atom_site_occupancy
O1     O     0.50051   0.43071   0.36422   0.00000  Uiso   1.00
O2     O     0.50009   0.43079   0.63603   0.00000  Uiso   1.00
C1     C     0.50027   0.40635   0.50010   0.00000  Uiso   1.00
Zn1    Zn    0.50012   0.49997   0.33423   0.00000  Uiso   1.00
O3     O     0.56355   0.49997   0.63618   0.00000  Uiso   1.00
O4     O     0.56378   0.49997   0.36437   0.00000  Uiso   1.00
C2     C     0.58610   0.49992   0.50024   0.00000  Uiso   1.00
O5     O     0.49958   0.56930   0.63578   0.00000  Uiso   1.00
O6     O     0.49983   0.56923   0.36397   0.00000  Uiso   1.00
C3     C     0.49969   0.59367   0.49989   0.00000  Uiso   1.00
Zn2    Zn    0.49988   0.50005   0.66577   0.00000  Uiso   1.00
O7     O     0.43645   0.49994   0.36382   0.00000  Uiso   1.00
O8     O     0.43622   0.50013   0.63563   0.00000  Uiso   1.00
C4     C     0.41390   0.49993   0.49976   0.00000  Uiso   1.00
O9     O     0.99987   0.42957   0.63578   0.00000  Uiso   1.00
O10    O     0.00029   0.42964   0.36398   0.00000  Uiso   1.00
C5     C     0.00023   0.40520   0.49990   0.00000  Uiso   1.00
Zn3    Zn    0.99989   0.49882   0.66575   0.00000  Uiso   1.00
O11    O     0.93646   0.49911   0.36380   0.00000  Uiso   1.00
O12    O     0.93623   0.49912   0.63562   0.00000  Uiso   1.00
C6     C     0.91390   0.49917   0.49974   0.00000  Uiso   1.00
O13    O     0.00007   0.56815   0.36419   0.00000  Uiso   1.00
O14    O     0.99981   0.56808   0.63600   0.00000  Uiso   1.00
C7     C     0.99982   0.59252   0.50007   0.00000  Uiso   1.00
Zn4    Zn    0.00013   0.49889   0.33422   0.00000  Uiso   1.00
O15    O     0.06356   0.49851   0.63617   0.00000  Uiso   1.00
O16    O     0.06379   0.49868   0.36435   0.00000  Uiso   1.00
C8     C     0.08611   0.49839   0.50023   0.00000  Uiso   1.00
O17    O     0.49994   0.02541   0.63571   0.00000  Uiso   1.00
O18    O     0.50003   0.02533   0.36390   0.00000  Uiso   1.00
C9     C     0.49994   0.04977   0.49983   0.00000  Uiso   1.00
Zn5    Zn    0.49957   0.95616   0.66569   0.00000  Uiso   1.00
O19    O     0.56357   0.95554   0.36486   0.00000  Uiso   1.00
O20    O     0.56328   0.95554   0.63667   0.00000  Uiso   1.00
C10    C     0.58587   0.95538   0.50119   0.00000  Uiso   1.00
O21    O     0.49967   0.88682   0.36414   0.00000  Uiso   1.00
O22    O     0.49941   0.88690   0.63595   0.00000  Uiso   1.00
C11    C     0.49955   0.86246   0.50003   0.00000  Uiso   1.00
Zn6    Zn    0.49996   0.95607   0.33416   0.00000  Uiso   1.00
O23    O     0.43596   0.95679   0.63500   0.00000  Uiso   1.00
O24    O     0.43624   0.95660   0.36318   0.00000  Uiso   1.00
C12    C     0.41366   0.95702   0.49867   0.00000  Uiso   1.00
O25    O     0.99730   0.02426   0.36415   0.00000  Uiso   1.00
O26    O     0.99721   0.02419   0.63596   0.00000  Uiso   1.00
C13    C     0.99718   0.04863   0.50003   0.00000  Uiso   1.00
Zn7    Zn    0.99804   0.95501   0.33418   0.00000  Uiso   1.00
O27    O     0.93404   0.95469   0.63502   0.00000  Uiso   1.00
O28    O     0.93433   0.95469   0.36320   0.00000  Uiso   1.00
C14    C     0.91175   0.95463   0.49869   0.00000  Uiso   1.00
O29    O     0.99831   0.88568   0.63575   0.00000  Uiso   1.00
O30    O     0.99856   0.88575   0.36394   0.00000  Uiso   1.00
C15    C     0.99855   0.86131   0.49987   0.00000  Uiso   1.00
Zn8    Zn    0.99765   0.95494   0.66571   0.00000  Uiso   1.00
O31    O     0.06165   0.95535   0.36488   0.00000  Uiso   1.00
O32    O     0.06136   0.95517   0.63669   0.00000  Uiso   1.00
C16    C     0.08395   0.95548   0.50121   0.00000  Uiso   1.00
C17    C     0.63369   0.49981   0.50017   0.00000  Uiso   1.00
C18    C     0.86632   0.49928   0.49981   0.00000  Uiso   1.00
C19    C     0.65695   0.49976   0.38019   0.00000  Uiso   1.00
C20    C     0.70325   0.49965   0.37901   0.00000  Uiso   1.00
C21    C     0.84306   0.49933   0.61979   0.00000  Uiso   1.00
C22    C     0.79676   0.49944   0.62098   0.00000  Uiso   1.00
C23    C     0.84302   0.49933   0.37991   0.00000  Uiso   1.00
C24    C     0.79672   0.49944   0.37887   0.00000  Uiso   1.00
C25    C     0.65699   0.49976   0.62007   0.00000  Uiso   1.00
C26    C     0.70329   0.49965   0.62112   0.00000  Uiso   1.00
C27    C     0.72668   0.49960   0.50003   0.00000  Uiso   1.00
C28    C     0.77333   0.49949   0.49996   0.00000  Uiso   1.00
H1     H     0.71888   0.49961   0.29550   0.00000  Uiso   1.00
H2     H     0.78113   0.49948   0.70448   0.00000  Uiso   1.00
H3     H     0.85885   0.49929   0.29674   0.00000  Uiso   1.00
H4     H     0.78106   0.49947   0.29541   0.00000  Uiso   1.00
H5     H     0.64116   0.49980   0.70324   0.00000  Uiso   1.00
H6     H     0.71895   0.49962   0.70458   0.00000  Uiso   1.00
C29    C     0.36631   0.49970   0.49983   0.00000  Uiso   1.00
C30    C     0.13370   0.49861   0.50016   0.00000  Uiso   1.00
C31    C     0.34302   0.49951   0.37992   0.00000  Uiso   1.00
C32    C     0.29672   0.49929   0.37887   0.00000  Uiso   1.00
C33    C     0.15699   0.49880   0.62007   0.00000  Uiso   1.00
C34    C     0.20329   0.49902   0.62112   0.00000  Uiso   1.00
C35    C     0.15696   0.49864   0.38019   0.00000  Uiso   1.00
C36    C     0.20325   0.49885   0.37901   0.00000  Uiso   1.00
C37    C     0.34305   0.49968   0.61980   0.00000  Uiso   1.00
C38    C     0.29676   0.49946   0.62098   0.00000  Uiso   1.00
C39    C     0.27333   0.49927   0.49996   0.00000  Uiso   1.00
C40    C     0.22668   0.49905   0.50003   0.00000  Uiso   1.00
H7     H     0.28106   0.49916   0.29541   0.00000  Uiso   1.00
H8     H     0.21895   0.49915   0.70458   0.00000  Uiso   1.00
H9     H     0.14110   0.49851   0.29707   0.00000  Uiso   1.00
H10    H     0.21889   0.49887   0.29550   0.00000  Uiso   1.00
H11    H     0.35891   0.49981   0.70292   0.00000  Uiso   1.00
H12    H     0.28112   0.49944   0.70449   0.00000  Uiso   1.00
C41    C     0.49955   0.67838   0.60601   0.00000  Uiso   1.00
S1     S     0.49979   0.67617   0.34686   0.00000  Uiso   1.00
C42    C     0.49970   0.77774   0.39392   0.00000  Uiso   1.00
S2     S     0.49945   0.77995   0.65307   0.00000  Uiso   1.00
C43    C     0.49966   0.64725   0.49992   0.00000  Uiso   1.00
C44    C     0.49958   0.80887   0.50000   0.00000  Uiso   1.00
C45    C     0.49969   0.72807   0.43161   0.00000  Uiso   1.00
C46    C     0.49956   0.72806   0.56831   0.00000  Uiso   1.00
C47    C     0.50023   0.35458   0.50007   0.00000  Uiso   1.00
C48    C     0.49998   0.10154   0.49987   0.00000  Uiso   1.00
C49    C     0.50039   0.32927   0.38011   0.00000  Uiso   1.00
C50    C     0.50034   0.27891   0.37895   0.00000  Uiso   1.00
C51    C     0.49982   0.12685   0.61982   0.00000  Uiso   1.00
C52    C     0.49987   0.17721   0.62098   0.00000  Uiso   1.00
C53    C     0.50020   0.12687   0.37995   0.00000  Uiso   1.00
C54    C     0.50025   0.17723   0.37887   0.00000  Uiso   1.00
C55    C     0.50001   0.32925   0.61998   0.00000  Uiso   1.00
C56    C     0.49996   0.27889   0.62106   0.00000  Uiso   1.00
C57    C     0.50013   0.25343   0.49999   0.00000  Uiso   1.00
C58    C     0.50008   0.20269   0.49995   0.00000  Uiso   1.00
H13    H     0.50046   0.26189   0.29546   0.00000  Uiso   1.00
H14    H     0.49975   0.19423   0.70447   0.00000  Uiso   1.00
H15    H     0.50031   0.10964   0.29679   0.00000  Uiso   1.00
H16    H     0.50039   0.19426   0.29540   0.00000  Uiso   1.00
H17    H     0.49990   0.34648   0.70314   0.00000  Uiso   1.00
H18    H     0.49982   0.26186   0.70453   0.00000  Uiso   1.00
C59    C     0.99952   0.67723   0.39394   0.00000  Uiso   1.00
S3     S     0.99929   0.67503   0.65309   0.00000  Uiso   1.00
C60    C     0.99885   0.77660   0.60600   0.00000  Uiso   1.00
S4     S     0.99909   0.77880   0.34685   0.00000  Uiso   1.00
C61    C     0.99957   0.64610   0.50003   0.00000  Uiso   1.00
C62    C     0.99880   0.80773   0.49991   0.00000  Uiso   1.00
C63    C     0.99912   0.72692   0.56832   0.00000  Uiso   1.00
C64    C     0.99925   0.72691   0.43162   0.00000  Uiso   1.00
C65    C     0.00055   0.35344   0.49996   0.00000  Uiso   1.00
C66    C     0.00212   0.10038   0.50021   0.00000  Uiso   1.00
C67    C     0.00052   0.32813   0.61992   0.00000  Uiso   1.00
C68    C     0.00083   0.27777   0.62109   0.00000  Uiso   1.00
C69    C     0.00215   0.12569   0.38025   0.00000  Uiso   1.00
C70    C     0.00184   0.17605   0.37908   0.00000  Uiso   1.00
C71    C     0.00178   0.12572   0.62013   0.00000  Uiso   1.00
C72    C     0.00146   0.17608   0.62119   0.00000  Uiso   1.00
C73    C     0.00090   0.32810   0.38004   0.00000  Uiso   1.00
C74    C     0.00121   0.27773   0.37898   0.00000  Uiso   1.00
C75    C     0.00118   0.25228   0.50006   0.00000  Uiso   1.00
C76    C     0.00150   0.20154   0.50011   0.00000  Uiso   1.00
H19    H     0.00081   0.26075   0.70459   0.00000  Uiso   1.00
H20    H     0.00187   0.19307   0.29558   0.00000  Uiso   1.00
H21    H     0.00176   0.10850   0.70329   0.00000  Uiso   1.00
H22    H     0.00123   0.19312   0.70465   0.00000  Uiso   1.00
H23    H     0.00092   0.34532   0.29688   0.00000  Uiso   1.00
H24    H     0.00145   0.26070   0.29552   0.00000  Uiso   1.00
C77    C     0.63345   0.95503   0.50209   0.00000  Uiso   1.00
C78    C     0.86607   0.95334   0.50652   0.00000  Uiso   1.00
C79    C     0.65648   0.95486   0.62247   0.00000  Uiso   1.00
C80    C     0.70277   0.95453   0.62447   0.00000  Uiso   1.00
C81    C     0.84304   0.95350   0.38614   0.00000  Uiso   1.00
C82    C     0.79675   0.95384   0.38414   0.00000  Uiso   1.00
C83    C     0.84255   0.95351   0.62601   0.00000  Uiso   1.00
C84    C     0.79625   0.95385   0.62625   0.00000  Uiso   1.00
C85    C     0.65698   0.95486   0.38260   0.00000  Uiso   1.00
C86    C     0.70328   0.95452   0.38236   0.00000  Uiso   1.00
C87    C     0.72644   0.95435   0.50386   0.00000  Uiso   1.00
C88    C     0.77308   0.95401   0.50475   0.00000  Uiso   1.00
H25    H     0.71825   0.95441   0.70825   0.00000  Uiso   1.00
H26    H     0.78127   0.95395   0.30036   0.00000  Uiso   1.00
H27    H     0.85822   0.95340   0.70945   0.00000  Uiso   1.00
H28    H     0.78042   0.95396   0.70943   0.00000  Uiso   1.00
H29    H     0.64131   0.95497   0.29916   0.00000  Uiso   1.00
H30    H     0.71910   0.95440   0.29918   0.00000  Uiso   1.00
C89    C     0.36607   0.95770   0.49777   0.00000  Uiso   1.00
C90    C     0.13346   0.96102   0.49336   0.00000  Uiso   1.00
C91    C     0.34255   0.95811   0.61726   0.00000  Uiso   1.00
C92    C     0.29625   0.95877   0.61750   0.00000  Uiso   1.00
C93    C     0.15698   0.96060   0.37387   0.00000  Uiso   1.00
C94    C     0.20328   0.95994   0.37363   0.00000  Uiso   1.00
C95    C     0.15649   0.96077   0.61374   0.00000  Uiso   1.00
C96    C     0.20278   0.96011   0.61573   0.00000  Uiso   1.00
C97    C     0.34304   0.95795   0.37739   0.00000  Uiso   1.00
C98    C     0.29675   0.95861   0.37540   0.00000  Uiso   1.00
C99    C     0.27309   0.95903   0.49601   0.00000  Uiso   1.00
C100   C     0.22645   0.95969   0.49512   0.00000  Uiso   1.00
H31    H     0.28043   0.95906   0.70069   0.00000  Uiso   1.00
H32    H     0.21910   0.95966   0.29044   0.00000  Uiso   1.00
H33    H     0.14048   0.96105   0.69658   0.00000  Uiso   1.00
H34    H     0.21826   0.95994   0.69951   0.00000  Uiso   1.00
H35    H     0.35906   0.95766   0.29455   0.00000  Uiso   1.00
H36    H     0.28127   0.95877   0.29162   0.00000  Uiso   1.00
O33    O     0.63551   0.49980   0.26781   0.00000  Uiso   1.00
Li1    Li    0.65200   0.49976   0.10417   0.00000  Uiso   1.00
O34    O     0.86450   0.49929   0.73217   0.00000  Uiso   1.00
Li2    Li    0.84801   0.49933   0.89582   0.00000  Uiso   1.00
O35    O     0.36442   0.49954   0.26747   0.00000  Uiso   1.00
Li3    Li    0.34788   0.49935   0.10388   0.00000  Uiso   1.00
O36    O     0.13559   0.49878   0.73251   0.00000  Uiso   1.00
Li4    Li    0.15213   0.49897   0.89611   0.00000  Uiso   1.00
O37    O     0.50059   0.35258   0.26771   0.00000  Uiso   1.00
Li5    Li    0.50082   0.33463   0.10408   0.00000  Uiso   1.00
O38    O     0.49962   0.10353   0.73222   0.00000  Uiso   1.00
Li6    Li    0.49938   0.12149   0.89585   0.00000  Uiso   1.00
O39    O     0.00020   0.35144   0.73231   0.00000  Uiso   1.00
Li7    Li    0.00006   0.33350   0.89595   0.00000  Uiso   1.00
O40    O     0.00247   0.10237   0.26786   0.00000  Uiso   1.00
Li8    Li    0.00262   0.12032   0.10422   0.00000  Uiso   1.00
O41    O     0.63483   0.95502   0.73448   0.00000  Uiso   1.00
Li9    Li    0.65101   0.95491   0.89841   0.00000  Uiso   1.00
O42    O     0.86470   0.95334   0.27413   0.00000  Uiso   1.00
Li10   Li    0.84852   0.95346   0.11020   0.00000  Uiso   1.00
O43    O     0.36374   0.95788   0.73008   0.00000  Uiso   1.00
Li11   Li    0.34689   0.95823   0.89339   0.00000  Uiso   1.00
O44    O     0.13580   0.96083   0.26105   0.00000  Uiso   1.00
Li12   Li    0.15265   0.96048   0.09775   0.00000  Uiso   1.00
S5     S     0.49940   0.65950   0.77240   0.00000  Uiso   1.00
O45    O     0.44884   0.66518   0.84152   0.00000  Uiso   1.00
O46    O     0.51411   0.60492   0.78989   0.00000  Uiso   1.00
H37    H     0.45588   0.67731   0.93088   0.00000  Uiso   1.00
O47    O     0.53080   0.69148   0.86320   0.00000  Uiso   1.00
S6     S     0.49984   0.79662   0.22753   0.00000  Uiso   1.00
O48    O     0.44943   0.79143   0.15752   0.00000  Uiso   1.00
O49    O     0.51454   0.85106   0.21029   0.00000  Uiso   1.00
H38    H     0.45665   0.77923   0.06829   0.00000  Uiso   1.00
O50    O     0.53146   0.76435   0.13728   0.00000  Uiso   1.00
S7     S     0.99977   0.65834   0.22755   0.00000  Uiso   1.00
O51    O     0.05030   0.66379   0.15843   0.00000  Uiso   1.00
O52    O     0.98534   0.60383   0.21007   0.00000  Uiso   1.00
H39    H     0.04319   0.67595   0.06907   0.00000  Uiso   1.00
O53    O     0.96820   0.69046   0.13674   0.00000  Uiso   1.00
S8     S     0.99860   0.79549   0.77239   0.00000  Uiso   1.00
O54    O     0.04905   0.79006   0.84239   0.00000  Uiso   1.00
O55    O     0.98362   0.84999   0.78961   0.00000  Uiso   1.00
H40    H     0.04189   0.77790   0.93163   0.00000  Uiso   1.00
O56    O     0.96716   0.76336   0.86265   0.00000  Uiso   1.00
