# Generated by REPEAT Assigner based on pymatgen
data_DB1-Al2O6-ADC_B-DPAC_B_No58
_audit_creation_date              2022-05-24
_audit_creation_method            REPEAT_Assigner
_cell_length_a                    23.849000
_cell_length_b                    34.076500
_cell_length_c                    6.607200
_cell_angle_alpha                 90.000900
_cell_angle_beta                  90.007300
_cell_angle_gamma                 45.581900
_cell_volume                      3835.251383
_symmetry_space_group_name_H-M    P1
_symmetry_Int_Tables_number       1
loop_
    _symmetry_equiv_pos_site_id
    _symmetry_equiv_pos_as_xyz
    1  x,y,z
loop_
    _atom_site_type_symbol
    _atom_site_label
    _atom_site_fract_x
    _atom_site_fract_y
    _atom_site_fract_z
    _atom_type_partial_charge
    Al  Al1  0.500000  0.500000  0.000000  1.200338
    Al  Al2  0.500000  0.500000  0.500000  1.189310
    O   O1   0.601630  0.449960  0.076330  -0.546392
    O   O2   0.501540  0.550040  0.423720  -0.509922
    O   O3   0.398370  0.550040  0.576250  -0.476189
    O   O4   0.498460  0.449960  0.923710  -0.496030
    O   O5   0.398370  0.550040  0.923670  -0.547014
    O   O6   0.498460  0.449960  0.576290  -0.563954
    O   O7   0.601630  0.449960  0.423750  -0.499728
    O   O8   0.501540  0.550040  0.076300  -0.536825
    O   O9   0.524440  0.500000  0.750010  -0.515653
    O   O10  0.475560  0.500000  0.249990  -0.515064
    C   C1   0.637430  0.431990  0.250060  0.662917
    C   C2   0.501400  0.568020  0.250010  0.656043
    C   C3   0.362570  0.568020  0.749940  0.642677
    C   C4   0.498610  0.431990  0.750000  0.666982
    H   H1   0.564920  0.500000  0.750030  0.295244
    H   H2   0.435080  0.500000  0.249970  0.294173
    Al  Al3  0.499910  0.000030  0.999870  1.178577
    Al  Al4  0.500000  0.000000  0.499870  1.192912
    O   O11  0.398300  0.050080  0.076240  -0.499087
    O   O12  0.498420  0.949980  0.423610  -0.535376
    O   O13  0.601640  0.949940  0.576080  -0.546606
    O   O14  0.501640  0.050000  0.923560  -0.562435
    O   O15  0.601700  0.949920  0.923500  -0.474908
    O   O16  0.501580  0.050020  0.576140  -0.495384
    O   O17  0.398360  0.050060  0.423660  -0.545620
    O   O18  0.498360  0.950000  0.076190  -0.507336
    O   O19  0.475600  0.999990  0.749900  -0.510937
    O   O20  0.524410  0.000010  0.249850  -0.510735
    C   C5   0.362530  0.068050  0.249980  0.663507
    C   C6   0.498530  0.932020  0.249900  0.655333
    C   C7   0.637480  0.931950  0.749770  0.643007
    C   C8   0.501470  0.067980  0.749840  0.667401
    H   H3   0.435110  0.000000  0.749940  0.295162
    H   H4   0.564890  0.000000  0.249810  0.294478
    C   C9   0.498850  0.890280  0.249920  -0.246607
    C   C10  0.499040  0.868580  0.433580  -0.086193
    C   C11  0.499360  0.827090  0.434140  -0.224622
    C   C12  0.499500  0.806080  0.249960  0.301805
    C   C13  0.499320  0.827110  0.065760  -0.345108
    C   C14  0.499000  0.868590  0.066290  0.375442
    C   C15  0.499810  0.767640  0.249990  -0.139494
    C   C16  0.500080  0.732410  0.250010  -0.141001
    C   C17  0.500390  0.693970  0.250000  0.301906
    C   C18  0.500550  0.672950  0.434200  -0.344916
    C   C19  0.500880  0.631470  0.433650  0.374894
    C   C20  0.501060  0.609770  0.250010  -0.245975
    C   C21  0.500880  0.631460  0.066360  -0.086688
    C   C22  0.500550  0.672950  0.065820  -0.223904
    H   H5   0.498940  0.882970  0.569720  0.183482
    H   H6   0.499490  0.812540  0.570060  0.142821
    H   H7   0.499410  0.812560  0.929870  0.199539
    H   H8   0.500430  0.687510  0.570100  0.199631
    H   H9   0.501000  0.617060  0.930220  0.183561
    H   H10  0.500440  0.687500  0.929910  0.142551
    C   C23  0.501150  0.109720  0.749860  -0.254819
    C   C24  0.500960  0.131420  0.933520  -0.079940
    C   C25  0.500640  0.172910  0.934090  -0.227506
    C   C26  0.500500  0.193920  0.749920  0.301942
    C   C27  0.500690  0.172890  0.565710  -0.344547
    C   C28  0.501010  0.131410  0.566230  0.377907
    C   C29  0.500200  0.232360  0.749950  -0.139053
    C   C30  0.499920  0.267590  0.749980  -0.141341
    C   C31  0.499620  0.306030  0.749970  0.302587
    C   C32  0.499450  0.327050  0.934170  -0.344207
    C   C33  0.499120  0.368540  0.933630  0.376892
    C   C34  0.498950  0.390240  0.749990  -0.253904
    C   C35  0.499120  0.368540  0.566340  -0.080277
    C   C36  0.499450  0.327050  0.565790  -0.227339
    H   H11  0.501060  0.117030  0.069660  0.182592
    H   H12  0.500510  0.187460  0.070010  0.143018
    H   H13  0.500590  0.187440  0.429820  0.199837
    H   H14  0.499570  0.312490  0.070070  0.199827
    H   H15  0.499000  0.382940  0.430200  0.182557
    H   H16  0.499560  0.312500  0.429880  0.143034
    C   C37  0.720580  0.890280  0.749780  -0.247578
    C   C38  0.763790  0.868580  0.566140  -0.075927
    C   C39  0.846430  0.827090  0.565610  -0.237269
    C   C40  0.888320  0.806080  0.749800  0.307800
    C   C41  0.846450  0.827110  0.933990  -0.351796
    C   C42  0.763800  0.868590  0.933430  0.379211
    C   C43  0.964910  0.767640  0.749810  -0.136518
    C   C44  0.035080  0.732410  0.749810  -0.139984
    C   C45  0.111670  0.693970  0.749850  0.310929
    C   C46  0.153540  0.672950  0.565670  -0.354145
    C   C47  0.236180  0.631470  0.566250  0.379508
    C   C48  0.279410  0.609770  0.749910  -0.247180
    C   C49  0.236190  0.631460  0.933540  -0.076877
    C   C50  0.153540  0.672950  0.934050  -0.237648
    H   H17  0.735100  0.882970  0.429990  0.183378
    H   H18  0.875420  0.812540  0.429710  0.144817
    H   H19  0.875450  0.812560  0.069890  0.200128
    H   H20  0.124540  0.687510  0.429760  0.201080
    H   H21  0.264870  0.617060  0.069690  0.183715
    H   H22  0.124550  0.687500  0.069950  0.144806
    C   C51  0.279420  0.109660  0.250220  -0.263695
    C   C52  0.236210  0.131340  0.433860  -0.063634
    C   C53  0.153570  0.172840  0.434400  -0.238618
    C   C54  0.111680  0.193880  0.250200  0.308389
    C   C55  0.153550  0.172870  0.066020  -0.355215
    C   C56  0.236200  0.131370  0.066570  0.386595
    C   C57  0.035100  0.232340  0.250190  -0.136765
    C   C58  0.964920  0.267570  0.250190  -0.139405
    C   C59  0.888330  0.306020  0.250150  0.311585
    C   C60  0.846460  0.327050  0.434330  -0.357794
    C   C61  0.763820  0.368540  0.433750  0.387281
    C   C62  0.720600  0.390240  0.250090  -0.263421
    C   C63  0.763810  0.368540  0.066460  -0.064429
    C   C64  0.846460  0.327040  0.065950  -0.240042
    H   H23  0.264900  0.116930  0.570010  0.175540
    H   H24  0.124580  0.187390  0.570300  0.144825
    H   H25  0.124550  0.187440  0.930110  0.201076
    H   H26  0.875460  0.312490  0.570240  0.202011
    H   H27  0.735130  0.382940  0.930310  0.176347
    H   H28  0.875450  0.312490  0.930060  0.145058
    O   O21  0.498800  0.889830  0.865460  -0.542780
    H   H29  0.498560  0.922120  0.891860  0.280347
    O   O22  0.501050  0.610230  0.634470  -0.542475
    H   H30  0.501300  0.577940  0.608050  0.280522
    O   O23  0.501200  0.110170  0.365400  -0.548765
    H   H31  0.501440  0.077880  0.391800  0.289383
    O   O24  0.498960  0.389770  0.134450  -0.547847
    H   H32  0.498700  0.422060  0.108040  0.288911
    O   O25  0.721510  0.889830  0.134240  -0.547386
    H   H33  0.657180  0.922120  0.107810  0.282855
    O   O26  0.278490  0.610230  0.365450  -0.546536
    H   H34  0.342820  0.577940  0.391890  0.282342
    O   O27  0.278490  0.110150  0.865760  -0.550896
    H   H35  0.342820  0.077850  0.892190  0.292844
    O   O28  0.721520  0.389780  0.634550  -0.549823
    H   H36  0.657190  0.422070  0.608110  0.291914
