data_DB1-Zn2O8-AZO_A-irmof7_A_No516_repeat
_audit_creation_date              2024-02-20
_audit_creation_method            'Materials Studio'
_symmetry_space_group_name_H-M    'P1'
_symmetry_Int_Tables_number       1
_symmetry_cell_setting            triclinic
loop_
_symmetry_equiv_pos_as_xyz
  x,y,z
_cell_length_a                    10.7435
_cell_length_b                    36.4827
_cell_length_c                    10.0000
_cell_angle_alpha                 90.0000
_cell_angle_beta                  90.0000
_cell_angle_gamma                 106.9470
loop_
_atom_site_label
_atom_site_type_symbol
_atom_site_fract_x
_atom_site_fract_y
_atom_site_fract_z
_atom_site_U_iso_or_equiv
_atom_site_adp_type
_atom_site_occupancy
O1     O     0.32075   0.50034   0.63580   0.00000  Uiso   1.00
O2     O     0.32055   0.49996   0.36399   0.00000  Uiso   1.00
C1     C     0.25734   0.50009   0.49992   0.00000  Uiso   1.00
Zn1    Zn    0.50003   0.50011   0.66577   0.00000  Uiso   1.00
O3     O     0.55506   0.55516   0.36380   0.00000  Uiso   1.00
O4     O     0.55528   0.55537   0.63562   0.00000  Uiso   1.00
C2     C     0.57451   0.57474   0.49974   0.00000  Uiso   1.00
O5     O     0.67936   0.49974   0.36420   0.00000  Uiso   1.00
O6     O     0.67941   0.49997   0.63601   0.00000  Uiso   1.00
C3     C     0.74266   0.49988   0.50008   0.00000  Uiso   1.00
Zn2    Zn    0.50000   0.49989   0.33423   0.00000  Uiso   1.00
O7     O     0.44472   0.44484   0.63620   0.00000  Uiso   1.00
O8     O     0.44497   0.44464   0.36438   0.00000  Uiso   1.00
C4     C     0.42510   0.42526   0.50026   0.00000  Uiso   1.00
O9     O     0.81659   0.99978   0.26656   0.00000  Uiso   1.00
O10    O     0.81718   0.00016   0.53836   0.00000  Uiso   1.00
C5     C     0.75373   0.00007   0.40244   0.00000  Uiso   1.00
Zn3    Zn    0.99623   0.99991   0.23657   0.00000  Uiso   1.00
O11    O     0.94198   0.94486   0.53853   0.00000  Uiso   1.00
O12    O     0.94176   0.94466   0.26672   0.00000  Uiso   1.00
C6     C     0.92253   0.92528   0.40259   0.00000  Uiso   1.00
O13    O     0.17623   0.00018   0.53811   0.00000  Uiso   1.00
O14    O     0.17579   0.99995   0.26631   0.00000  Uiso   1.00
C7     C     0.23920   0.00000   0.40222   0.00000  Uiso   1.00
Zn4    Zn    0.99667   0.00013   0.56810   0.00000  Uiso   1.00
O15    O     0.05066   0.05518   0.26614   0.00000  Uiso   1.00
O16    O     0.05135   0.05538   0.53795   0.00000  Uiso   1.00
C8     C     0.06994   0.07476   0.40207   0.00000  Uiso   1.00
C9     C     0.88007   0.88251   0.40252   0.00000  Uiso   1.00
C10    C     0.85954   0.86183   0.52364   0.00000  Uiso   1.00
C11    C     0.81967   0.82166   0.52325   0.00000  Uiso   1.00
C12    C     0.79950   0.80136   0.40193   0.00000  Uiso   1.00
C13    C     0.81974   0.82175   0.28137   0.00000  Uiso   1.00
C14    C     0.85960   0.86190   0.28129   0.00000  Uiso   1.00
N1     N     0.75865   0.76022   0.39829   0.00000  Uiso   1.00
N2     N     0.73839   0.73980   0.50405   0.00000  Uiso   1.00
C15    C     0.67731   0.67827   0.62097   0.00000  Uiso   1.00
C16    C     0.69754   0.69866   0.50041   0.00000  Uiso   1.00
C17    C     0.67738   0.67836   0.37908   0.00000  Uiso   1.00
C18    C     0.63750   0.63819   0.37870   0.00000  Uiso   1.00
C19    C     0.61697   0.61751   0.49981   0.00000  Uiso   1.00
C20    C     0.63744   0.63812   0.62104   0.00000  Uiso   1.00
H1     H     0.87454   0.87693   0.61823   0.00000  Uiso   1.00
H2     H     0.80442   0.80631   0.61715   0.00000  Uiso   1.00
H3     H     0.80446   0.80636   0.18743   0.00000  Uiso   1.00
H4     H     0.69258   0.69366   0.71491   0.00000  Uiso   1.00
H5     H     0.69262   0.69371   0.28519   0.00000  Uiso   1.00
H6     H     0.62250   0.62309   0.28411   0.00000  Uiso   1.00
C21    C     0.11329   0.11752   0.40213   0.00000  Uiso   1.00
C22    C     0.13403   0.13818   0.52330   0.00000  Uiso   1.00
C23    C     0.17474   0.17834   0.52304   0.00000  Uiso   1.00
C24    C     0.19556   0.19867   0.40178   0.00000  Uiso   1.00
C25    C     0.17512   0.17831   0.28115   0.00000  Uiso   1.00
C26    C     0.13442   0.13817   0.28096   0.00000  Uiso   1.00
N3     N     0.23727   0.23982   0.39826   0.00000  Uiso   1.00
N4     N     0.25776   0.26020   0.50408   0.00000  Uiso   1.00
C27    C     0.31991   0.32171   0.62118   0.00000  Uiso   1.00
C28    C     0.29948   0.30135   0.50056   0.00000  Uiso   1.00
C29    C     0.32029   0.32168   0.37930   0.00000  Uiso   1.00
C30    C     0.36101   0.36184   0.37903   0.00000  Uiso   1.00
C31    C     0.38174   0.38250   0.50021   0.00000  Uiso   1.00
C32    C     0.36061   0.36185   0.62138   0.00000  Uiso   1.00
H7     H     0.11854   0.12305   0.61785   0.00000  Uiso   1.00
H8     H     0.19013   0.19367   0.61698   0.00000  Uiso   1.00
H9     H     0.19090   0.19372   0.18726   0.00000  Uiso   1.00
H10    H     0.30414   0.30630   0.71507   0.00000  Uiso   1.00
H11    H     0.30490   0.30635   0.28535   0.00000  Uiso   1.00
H12    H     0.37650   0.37697   0.28448   0.00000  Uiso   1.00
C33    C     0.12146   0.50004   0.49996   0.00000  Uiso   1.00
C34    C     0.08207   0.52474   0.41316   0.00000  Uiso   1.00
C35    C     0.03338   0.47528   0.58681   0.00000  Uiso   1.00
C36    C     0.17319   0.54893   0.32833   0.00000  Uiso   1.00
C37    C     0.13794   0.57392   0.24052   0.00000  Uiso   1.00
H13    H     0.25901   0.54831   0.33060   0.00000  Uiso   1.00
C38    C     0.87854   0.49993   0.50004   0.00000  Uiso   1.00
C39    C     0.91793   0.47523   0.58684   0.00000  Uiso   1.00
C40    C     0.96663   0.52469   0.41320   0.00000  Uiso   1.00
C41    C     0.92307   0.54882   0.32841   0.00000  Uiso   1.00
C42    C     0.00758   0.57387   0.24056   0.00000  Uiso   1.00
H14    H     0.83596   0.54814   0.33073   0.00000  Uiso   1.00
H15    H     0.85774   0.45908   0.64349   0.00000  Uiso   1.00
H16    H     0.06181   0.45917   0.64342   0.00000  Uiso   1.00
C43    C     0.61746   0.99963   0.40229   0.00000  Uiso   1.00
C44    C     0.52907   0.97496   0.48910   0.00000  Uiso   1.00
C45    C     0.57857   0.02442   0.31546   0.00000  Uiso   1.00
C46    C     0.57214   0.95073   0.57392   0.00000  Uiso   1.00
C47    C     0.48729   0.92577   0.66174   0.00000  Uiso   1.00
H17    H     0.65913   0.95130   0.57165   0.00000  Uiso   1.00
C48    C     0.37490   0.99987   0.40225   0.00000  Uiso   1.00
C49    C     0.46329   0.02454   0.31544   0.00000  Uiso   1.00
C50    C     0.41379   0.97507   0.48908   0.00000  Uiso   1.00
C51    C     0.32236   0.95098   0.57388   0.00000  Uiso   1.00
C52    C     0.35712   0.92590   0.66172   0.00000  Uiso   1.00
H18    H     0.23667   0.95172   0.57157   0.00000  Uiso   1.00
H19    H     0.43519   0.04071   0.25880   0.00000  Uiso   1.00
H20    H     0.63897   0.04051   0.25884   0.00000  Uiso   1.00
O17    O     0.87762   0.88006   0.16801   0.00000  Uiso   1.00
Li1    Li    0.86275   0.86508   0.00508   0.00000  Uiso   1.00
O18    O     0.61942   0.61997   0.73433   0.00000  Uiso   1.00
Li2    Li    0.63430   0.63494   0.89725   0.00000  Uiso   1.00
O19    O     0.11623   0.12004   0.16762   0.00000  Uiso   1.00
Li3    Li    0.13172   0.13505   0.00474   0.00000  Uiso   1.00
O20    O     0.37880   0.37998   0.73471   0.00000  Uiso   1.00
Li4    Li    0.36332   0.36497   0.89760   0.00000  Uiso   1.00
O21    O     0.22280   0.59635   0.16185   0.00000  Uiso   1.00
Li5    Li    0.38571   0.60343   0.13721   0.00000  Uiso   1.00
O22    O     0.96684   0.59625   0.16193   0.00000  Uiso   1.00
Li6    Li    0.81772   0.60319   0.13738   0.00000  Uiso   1.00
O23    O     0.52758   0.90331   0.74040   0.00000  Uiso   1.00
Li7    Li    0.67637   0.89615   0.76503   0.00000  Uiso   1.00
O24    O     0.27198   0.90356   0.74036   0.00000  Uiso   1.00
Li8    Li    0.10917   0.89671   0.76492   0.00000  Uiso   1.00
