# Generated by REPEAT Assigner based on pymatgen
data_DB1-Al2O6-irmof16_B-irmof20_B_No318
_audit_creation_date              2022-05-24
_audit_creation_method            REPEAT_Assigner
_cell_length_a                    17.055600
_cell_length_b                    24.334200
_cell_length_c                    6.607200
_cell_angle_alpha                 90.000000
_cell_angle_beta                  90.000000
_cell_angle_gamma                 45.501500
_cell_volume                      1955.936517
_symmetry_space_group_name_H-M    P1
_symmetry_Int_Tables_number       1
loop_
    _symmetry_equiv_pos_site_id
    _symmetry_equiv_pos_as_xyz
    1  x,y,z
loop_
    _atom_site_type_symbol
    _atom_site_label
    _atom_site_fract_x
    _atom_site_fract_y
    _atom_site_fract_z
    _atom_type_partial_charge
    Al  Al1  0.500000  0.500000  0.000000  0.813852
    Al  Al2  0.500000  0.500000  0.500000  0.636795
    O   O1   0.642300  0.429830  0.076290  -0.439075
    O   O2   0.501960  0.570170  0.423710  -0.377095
    O   O3   0.357700  0.570170  0.576290  -0.394278
    O   O4   0.498040  0.429830  0.923710  -0.448378
    O   O5   0.357700  0.570170  0.923710  -0.479322
    O   O6   0.498040  0.429830  0.576290  -0.471120
    O   O7   0.642300  0.429830  0.423710  -0.364059
    O   O8   0.501960  0.570170  0.076290  -0.426975
    O   O9   0.534180  0.500000  0.750000  -0.426305
    O   O10  0.465820  0.500000  0.250000  -0.522981
    C   C1   0.692440  0.404620  0.250000  0.666891
    C   C2   0.501680  0.595380  0.250000  0.674141
    C   C3   0.307560  0.595380  0.750000  0.685712
    C   C4   0.498320  0.404620  0.750000  0.786670
    H   H1   0.590780  0.500000  0.750000  0.277608
    H   H2   0.409220  0.500000  0.250000  0.386622
    Al  Al3  0.500000  0.000000  0.000000  0.540168
    Al  Al4  0.500000  0.000000  0.500000  0.725669
    O   O11  0.357700  0.070170  0.076290  -0.365144
    O   O12  0.498040  0.929830  0.423710  -0.429763
    O   O13  0.642300  0.929830  0.576290  -0.424056
    O   O14  0.501960  0.070170  0.923710  -0.365702
    O   O15  0.642300  0.929830  0.923710  -0.345159
    O   O16  0.501960  0.070170  0.576290  -0.353701
    O   O17  0.357700  0.070170  0.423710  -0.468654
    O   O18  0.498040  0.929830  0.076290  -0.403032
    O   O19  0.465820  0.000000  0.750000  -0.408161
    O   O20  0.534180  0.000000  0.250000  -0.343498
    C   C5   0.307560  0.095380  0.250000  0.701852
    C   C6   0.498320  0.904620  0.250000  0.699782
    C   C7   0.692440  0.904620  0.750000  0.664521
    C   C8   0.501680  0.095380  0.750000  0.579618
    H   H3   0.409220  0.000000  0.750000  0.289375
    H   H4   0.590780  0.000000  0.250000  0.222609
    C   C9   0.500620  0.692850  0.089460  0.460831
    S   S1   0.500650  0.690290  0.481690  0.032246
    C   C10  0.499380  0.807150  0.410540  0.454480
    S   S2   0.499350  0.809710  0.018320  0.052039
    C   C11  0.501010  0.657020  0.250000  -0.420054
    C   C12  0.498990  0.842970  0.250000  -0.441446
    C   C13  0.500000  0.750000  0.353440  -0.068611
    C   C14  0.500000  0.750000  0.146560  -0.082261
    C   C15  0.499380  0.307150  0.589460  0.475645
    S   S3   0.499350  0.309710  0.981690  0.039998
    C   C16  0.500620  0.192850  0.910540  0.370213
    S   S4   0.500650  0.190290  0.518320  0.028802
    C   C17  0.498990  0.342970  0.750000  -0.476121
    C   C18  0.501010  0.157020  0.750000  -0.344482
    C   C19  0.500000  0.250000  0.853440  -0.037733
    C   C20  0.500000  0.250000  0.646560  -0.089860
    C   C21  0.113680  0.692850  0.910540  0.421319
    S   S5   0.118770  0.690290  0.518320  0.013815
    C   C22  0.886320  0.807150  0.589460  0.412736
    S   S6   0.881230  0.809710  0.981690  0.027010
    C   C23  0.184940  0.657020  0.750000  -0.386242
    C   C24  0.815060  0.842970  0.750000  -0.405879
    C   C25  0.000000  0.750000  0.646560  -0.052530
    C   C26  0.000000  0.750000  0.853440  -0.066246
    C   C27  0.886320  0.307150  0.089460  0.428246
    S   S7   0.881230  0.309710  0.481690  0.040933
    C   C28  0.113680  0.192850  0.410540  0.460053
    S   S8   0.118770  0.190290  0.018320  0.010014
    C   C29  0.815060  0.342970  0.250000  -0.410897
    C   C30  0.184940  0.157020  0.250000  -0.417835
    C   C31  0.000000  0.250000  0.353440  -0.083746
    C   C32  0.000000  0.250000  0.146560  -0.051599
    H   H5   0.446670  0.721190  0.759410  0.349118
    H   H6   0.555140  0.613130  0.823440  0.355999
    N   N1   0.500830  0.674060  0.871530  -0.836702
    H   H7   0.445470  0.831500  0.740590  0.321869
    H   H8   0.552730  0.834170  0.676560  0.355419
    N   N2   0.499170  0.825930  0.628470  -0.810688
    H   H9   0.553330  0.278810  0.259410  0.343704
    H   H10  0.444860  0.386860  0.323440  0.329106
    N   N3   0.499170  0.325930  0.371530  -0.817169
    H   H11  0.554530  0.168490  0.240590  0.316137
    H   H12  0.447270  0.165830  0.176560  0.341685
    N   N4   0.500830  0.174060  0.128470  -0.758332
    H   H13  0.110960  0.721190  0.240590  0.340233
    H   H14  0.218590  0.613130  0.176560  0.326781
    N   N5   0.151040  0.674060  0.128470  -0.786128
    H   H15  0.891520  0.831500  0.259410  0.321784
    H   H16  0.778930  0.834170  0.323440  0.347801
    N   N6   0.848960  0.825930  0.371530  -0.779730
    H   H17  0.891520  0.331500  0.759410  0.315580
    H   H18  0.778930  0.334170  0.823440  0.340910
    N   N7   0.848960  0.325930  0.871530  -0.781522
    H   H19  0.110960  0.221190  0.740590  0.360942
    H   H20  0.218590  0.113140  0.676560  0.357031
    N   N8   0.151040  0.174060  0.628470  -0.842093
