data_DB1-Cu2O8-AZO_A-DPAC_A_No857_repeat
_audit_creation_date              2024-02-24
_audit_creation_method            'Materials Studio'
_symmetry_space_group_name_H-M    'P1'
_symmetry_Int_Tables_number       1
_symmetry_cell_setting            triclinic
loop_
_symmetry_equiv_pos_as_xyz
  x,y,z
_cell_length_a                    17.3722
_cell_length_b                    34.4976
_cell_length_c                    10.0000
_cell_angle_alpha                 90.0000
_cell_angle_beta                  90.0000
_cell_angle_gamma                 90.0963
loop_
_atom_site_label
_atom_site_type_symbol
_atom_site_fract_x
_atom_site_fract_y
_atom_site_fract_z
_atom_site_U_iso_or_equiv
_atom_site_adp_type
_atom_site_occupancy
Cu1    Cu    0.50000   0.50000   0.62726   0.00000  Uiso   1.00
Cu2    Cu    0.50001   0.50000   0.37274   0.00000  Uiso   1.00
O1     O     0.60008   0.49998   0.61870   0.00000  Uiso   1.00
O2     O     0.39970   0.49991   0.61866   0.00000  Uiso   1.00
O3     O     0.49978   0.44949   0.61868   0.00000  Uiso   1.00
O4     O     0.50001   0.55040   0.61868   0.00000  Uiso   1.00
O5     O     0.50020   0.55051   0.38132   0.00000  Uiso   1.00
O6     O     0.50002   0.44961   0.38132   0.00000  Uiso   1.00
O7     O     0.39984   0.49997   0.38130   0.00000  Uiso   1.00
O8     O     0.60030   0.50010   0.38134   0.00000  Uiso   1.00
C1     C     0.64437   0.50003   0.50002   0.00000  Uiso   1.00
C2     C     0.35563   0.49997   0.49997   0.00000  Uiso   1.00
C3     C     0.49990   0.42730   0.50000   0.00000  Uiso   1.00
C4     C     0.50011   0.57270   0.50000   0.00000  Uiso   1.00
Cu3    Cu    0.50032   0.00000   0.27502   0.00000  Uiso   1.00
Cu4    Cu    0.49992  -0.00000   0.52953   0.00000  Uiso   1.00
O9     O     0.60039   0.00020   0.28406   0.00000  Uiso   1.00
O10    O     0.40001   0.99992   0.28313   0.00000  Uiso   1.00
O11    O     0.50009   0.05051   0.28359   0.00000  Uiso   1.00
O12    O     0.50031   0.94961   0.28359   0.00000  Uiso   1.00
O13    O     0.50012   0.94949   0.52095   0.00000  Uiso   1.00
O14    O     0.49995   0.05040   0.52096   0.00000  Uiso   1.00
O15    O     0.39976   0.99986   0.52048   0.00000  Uiso   1.00
O16    O     0.60023   0.00007   0.52142   0.00000  Uiso   1.00
C5     C     0.64449   0.00021   0.40296   0.00000  Uiso   1.00
C6     C     0.35575   0.99979   0.40160   0.00000  Uiso   1.00
C7     C     0.50003   0.07270   0.40228   0.00000  Uiso   1.00
C8     C     0.50021   0.92730   0.40228   0.00000  Uiso   1.00
C9     C     0.50021   0.88404   0.40227   0.00000  Uiso   1.00
C10    C     0.50011   0.86313   0.52342   0.00000  Uiso   1.00
C11    C     0.50010   0.82250   0.52310   0.00000  Uiso   1.00
C12    C     0.50020   0.80194   0.40182   0.00000  Uiso   1.00
C13    C     0.50030   0.82255   0.28122   0.00000  Uiso   1.00
C14    C     0.50030   0.86317   0.28108   0.00000  Uiso   1.00
N1     N     0.50020   0.76032   0.39824   0.00000  Uiso   1.00
N2     N     0.50011   0.73968   0.50403   0.00000  Uiso   1.00
C15    C     0.50002   0.67745   0.62106   0.00000  Uiso   1.00
C16    C     0.50011   0.69806   0.50046   0.00000  Uiso   1.00
C17    C     0.50021   0.67751   0.37917   0.00000  Uiso   1.00
C18    C     0.50021   0.63687   0.37885   0.00000  Uiso   1.00
C19    C     0.50011   0.61597   0.50000   0.00000  Uiso   1.00
C20    C     0.50001   0.63684   0.62120   0.00000  Uiso   1.00
H1     H     0.50003   0.87842   0.61799   0.00000  Uiso   1.00
H2     H     0.50003   0.80697   0.61703   0.00000  Uiso   1.00
H3     H     0.49994   0.69303   0.71497   0.00000  Uiso   1.00
H4     H     0.50029   0.69303   0.28525   0.00000  Uiso   1.00
C21    C     0.50002   0.11597   0.40227   0.00000  Uiso   1.00
C22    C     0.49990   0.13687   0.52342   0.00000  Uiso   1.00
C23    C     0.49990   0.17751   0.52310   0.00000  Uiso   1.00
C24    C     0.50002   0.19806   0.40182   0.00000  Uiso   1.00
C25    C     0.50015   0.17745   0.28122   0.00000  Uiso   1.00
C26    C     0.50015   0.13684   0.28108   0.00000  Uiso   1.00
N3     N     0.50002   0.23968   0.39824   0.00000  Uiso   1.00
N4     N     0.49991   0.26032   0.50403   0.00000  Uiso   1.00
C27    C     0.49979   0.32255   0.62105   0.00000  Uiso   1.00
C28    C     0.49991   0.30194   0.50046   0.00000  Uiso   1.00
C29    C     0.50003   0.32250   0.37917   0.00000  Uiso   1.00
C30    C     0.50003   0.36313   0.37885   0.00000  Uiso   1.00
C31    C     0.49991   0.38404   0.50000   0.00000  Uiso   1.00
C32    C     0.49978   0.36317   0.62120   0.00000  Uiso   1.00
H5     H     0.49980   0.12158   0.61799   0.00000  Uiso   1.00
H6     H     0.49980   0.19303   0.61703   0.00000  Uiso   1.00
H7     H     0.49969   0.30698   0.71497   0.00000  Uiso   1.00
H8     H     0.50013   0.30698   0.28525   0.00000  Uiso   1.00
C33    C     0.27406   0.49997   0.49998   0.00000  Uiso   1.00
C34    C     0.23168   0.49992   0.62133   0.00000  Uiso   1.00
C35    C     0.15062   0.49993   0.62170   0.00000  Uiso   1.00
C36    C     0.10954   0.49998   0.50001   0.00000  Uiso   1.00
C37    C     0.15061   0.50003   0.37830   0.00000  Uiso   1.00
C38    C     0.23167   0.50003   0.37865   0.00000  Uiso   1.00
C39    C     0.03442   0.49999   0.50002   0.00000  Uiso   1.00
C40    C     0.96559   0.50000   0.50003   0.00000  Uiso   1.00
C41    C     0.89047   0.50000   0.50003   0.00000  Uiso   1.00
C42    C     0.84939   0.49994   0.62173   0.00000  Uiso   1.00
C43    C     0.76833   0.49995   0.62137   0.00000  Uiso   1.00
C44    C     0.72594   0.50002   0.50003   0.00000  Uiso   1.00
C45    C     0.76834   0.50008   0.37869   0.00000  Uiso   1.00
C46    C     0.84939   0.50007   0.37833   0.00000  Uiso   1.00
H9     H     0.25981   0.49988   0.71128   0.00000  Uiso   1.00
H10    H     0.25979   0.50007   0.28869   0.00000  Uiso   1.00
H11    H     0.74020   0.49990   0.71132   0.00000  Uiso   1.00
H12    H     0.74021   0.50013   0.28873   0.00000  Uiso   1.00
C47    C     0.27418   0.00131   0.40607   0.00000  Uiso   1.00
C48    C     0.23199   0.00130   0.28452   0.00000  Uiso   1.00
C49    C     0.15093   0.00116   0.28375   0.00000  Uiso   1.00
C50    C     0.10965   0.00103   0.40524   0.00000  Uiso   1.00
C51    C     0.15052   0.00105   0.52715   0.00000  Uiso   1.00
C52    C     0.23158   0.00119   0.52720   0.00000  Uiso   1.00
C53    C     0.03453   0.00090   0.40486   0.00000  Uiso   1.00
C54    C     0.96570   0.00078   0.40451   0.00000  Uiso   1.00
C55    C     0.89058   0.00065   0.40415   0.00000  Uiso   1.00
C56    C     0.84970   0.00064   0.28226   0.00000  Uiso   1.00
C57    C     0.76864   0.00050   0.28222   0.00000  Uiso   1.00
C58    C     0.72606   0.00036   0.40335   0.00000  Uiso   1.00
C59    C     0.76825   0.00037   0.52490   0.00000  Uiso   1.00
C60    C     0.84931   0.00051   0.52565   0.00000  Uiso   1.00
H13    H     0.26026   0.00139   0.19471   0.00000  Uiso   1.00
H14    H     0.25956   0.00120   0.61729   0.00000  Uiso   1.00
H15    H     0.74066   0.00050   0.19213   0.00000  Uiso   1.00
H16    H     0.73998   0.00027   0.61471   0.00000  Uiso   1.00
O17    O     0.50040   0.88152   0.16777   0.00000  Uiso   1.00
Li1    Li    0.50053   0.86635   0.00486   0.00000  Uiso   1.00
O18    O     0.50039   0.80387   0.16856   0.00000  Uiso   1.00
Li2    Li    0.50042   0.75558   0.12942   0.00000  Uiso   1.00
O19    O     0.49992   0.61848   0.73451   0.00000  Uiso   1.00
Li3    Li    0.49979   0.63365   0.89741   0.00000  Uiso   1.00
O20    O     0.50030   0.61854   0.26550   0.00000  Uiso   1.00
Li4    Li    0.50043   0.63375   0.10263   0.00000  Uiso   1.00
O21    O     0.50027   0.11849   0.16777   0.00000  Uiso   1.00
Li5    Li    0.50043   0.13365   0.00486   0.00000  Uiso   1.00
O22    O     0.50026   0.19614   0.16856   0.00000  Uiso   1.00
Li6    Li    0.50030   0.24442   0.12942   0.00000  Uiso   1.00
O23    O     0.49966   0.38152   0.73451   0.00000  Uiso   1.00
Li7    Li    0.49950   0.36635   0.89741   0.00000  Uiso   1.00
O24    O     0.50015   0.38146   0.26549   0.00000  Uiso   1.00
Li8    Li    0.50032   0.36626   0.10263   0.00000  Uiso   1.00
H17    H     0.05793   0.51913   0.23137   0.00000  Uiso   1.00
H18    H     0.12866   0.48111   0.16341   0.00000  Uiso   1.00
N5     N     0.10870   0.50010   0.24601   0.00000  Uiso   1.00
H19    H     0.05782   0.48085   0.76866   0.00000  Uiso   1.00
H20    H     0.12883   0.51885   0.83659   0.00000  Uiso   1.00
N6     N     0.10872   0.49987   0.75400   0.00000  Uiso   1.00
H21    H     0.94206   0.48112   0.23116   0.00000  Uiso   1.00
H22    H     0.87134   0.51921   0.16366   0.00000  Uiso   1.00
N7     N     0.89130   0.50014   0.24603   0.00000  Uiso   1.00
H23    H     0.94220   0.51887   0.76890   0.00000  Uiso   1.00
H24    H     0.87119   0.48080   0.83639   0.00000  Uiso   1.00
N8     N     0.89129   0.49986   0.75402   0.00000  Uiso   1.00
H25    H     0.05761   0.98180   0.67363   0.00000  Uiso   1.00
H26    H     0.12823   0.01993   0.74193   0.00000  Uiso   1.00
N9     N     0.10840   0.00092   0.65923   0.00000  Uiso   1.00
H27    H     0.05837   0.02008   0.13634   0.00000  Uiso   1.00
H28    H     0.12948   0.98220   0.06875   0.00000  Uiso   1.00
N10    N     0.10925   0.00114   0.15125   0.00000  Uiso   1.00
H29    H     0.94174   0.01961   0.67327   0.00000  Uiso   1.00
H30    H     0.87090   0.98141   0.74042   0.00000  Uiso   1.00
N11    N     0.89100   0.00051   0.65815   0.00000  Uiso   1.00
H31    H     0.94274   0.98187   0.13553   0.00000  Uiso   1.00
H32    H     0.87185   0.01982   0.06770   0.00000  Uiso   1.00
N12    N     0.89182   0.00079   0.15017   0.00000  Uiso   1.00
