data_DB1-Cu2O8N2-AZO_A-BDC_A_No428_repeat
_audit_creation_date              2024-02-20
_audit_creation_method            'Materials Studio'
_symmetry_space_group_name_H-M    'P1'
_symmetry_Int_Tables_number       1
_symmetry_cell_setting            triclinic
loop_
_symmetry_equiv_pos_as_xyz
  x,y,z
_cell_length_a                    15.6063
_cell_length_b                    17.2765
_cell_length_c                    10.7003
_cell_angle_alpha                 89.9224
_cell_angle_beta                  87.4610
_cell_angle_gamma                 95.7732
loop_
_atom_site_label
_atom_site_type_symbol
_atom_site_fract_x
_atom_site_fract_y
_atom_site_fract_z
_atom_site_U_iso_or_equiv
_atom_site_adp_type
_atom_site_occupancy
Cu1    Cu    0.41809   0.49671   0.50530   0.00000  Uiso   1.00
Cu2    Cu    0.58191   0.50328   0.49471   0.00000  Uiso   1.00
O1     O     0.42361   0.49699   0.66744   0.00000  Uiso   1.00
O2     O     0.42363   0.49710   0.34212   0.00000  Uiso   1.00
O3     O     0.42996   0.59821   0.50423   0.00000  Uiso   1.00
O4     O     0.41728   0.39589   0.50533   0.00000  Uiso   1.00
O5     O     0.57004   0.40178   0.49574   0.00000  Uiso   1.00
O6     O     0.58272   0.60410   0.49473   0.00000  Uiso   1.00
O7     O     0.57639   0.50311   0.33244   0.00000  Uiso   1.00
O8     O     0.57637   0.50286   0.65790   0.00000  Uiso   1.00
C1     C     0.49999   0.49994   0.73439   0.00000  Uiso   1.00
C2     C     0.50001   0.50005   0.26562   0.00000  Uiso   1.00
C3     C     0.50914   0.64576   0.49932   0.00000  Uiso   1.00
C4     C     0.49086   0.35423   0.50070   0.00000  Uiso   1.00
N1     N     0.29635   0.49183   0.51317   0.00000  Uiso   1.00
C5     C     0.25306   0.53979   0.43585   0.00000  Uiso   1.00
C6     C     0.16283   0.53604   0.44189   0.00000  Uiso   1.00
C7     C     0.11406   0.48434   0.52525   0.00000  Uiso   1.00
C8     C     0.15670   0.43658   0.60225   0.00000  Uiso   1.00
C9     C     0.24689   0.44013   0.59652   0.00000  Uiso   1.00
N2     N     0.02155   0.47916   0.53360   0.00000  Uiso   1.00
N3     N     0.97845   0.52083   0.46642   0.00000  Uiso   1.00
C10    C     0.84329   0.56341   0.39777   0.00000  Uiso   1.00
C11    C     0.88594   0.51566   0.47476   0.00000  Uiso   1.00
C12    C     0.83717   0.46395   0.55812   0.00000  Uiso   1.00
C13    C     0.74694   0.46020   0.56416   0.00000  Uiso   1.00
N4     N     0.70365   0.50816   0.48685   0.00000  Uiso   1.00
C14    C     0.75311   0.55986   0.40350   0.00000  Uiso   1.00
H1     H     0.28945   0.58004   0.37096   0.00000  Uiso   1.00
H2     H     0.13079   0.57329   0.38185   0.00000  Uiso   1.00
H3     H     0.88030   0.60342   0.33327   0.00000  Uiso   1.00
H4     H     0.86921   0.42670   0.61816   0.00000  Uiso   1.00
C15    C     0.48542   0.26748   0.50101   0.00000  Uiso   1.00
C16    C     0.56076   0.22869   0.49631   0.00000  Uiso   1.00
C17    C     0.55544   0.14721   0.49661   0.00000  Uiso   1.00
C18    C     0.47479   0.10287   0.50161   0.00000  Uiso   1.00
C19    C     0.39976   0.14108   0.50629   0.00000  Uiso   1.00
C20    C     0.40478   0.22251   0.50601   0.00000  Uiso   1.00
N5     N     0.46725   0.01932   0.50205   0.00000  Uiso   1.00
N6     N     0.53275   0.98067   0.49797   0.00000  Uiso   1.00
C21    C     0.60024   0.85891   0.49373   0.00000  Uiso   1.00
C22    C     0.52521   0.89712   0.49841   0.00000  Uiso   1.00
C23    C     0.44456   0.85278   0.50341   0.00000  Uiso   1.00
C24    C     0.43924   0.77130   0.50371   0.00000  Uiso   1.00
C25    C     0.51458   0.73251   0.49901   0.00000  Uiso   1.00
C26    C     0.59522   0.77748   0.49401   0.00000  Uiso   1.00
H5     H     0.62355   0.26178   0.49242   0.00000  Uiso   1.00
H6     H     0.61394   0.11850   0.49296   0.00000  Uiso   1.00
H7     H     0.66264   0.89256   0.48986   0.00000  Uiso   1.00
H8     H     0.38606   0.88149   0.50706   0.00000  Uiso   1.00
C27    C     0.50000   0.49997   0.86911   0.00000  Uiso   1.00
C28    C     0.50001   0.50002   0.13091   0.00000  Uiso   1.00
C29    C     0.57719   0.50295   0.93001   0.00000  Uiso   1.00
C30    C     0.42281   0.49704   0.07000   0.00000  Uiso   1.00
C31    C     0.57719   0.50297   0.06001   0.00000  Uiso   1.00
C32    C     0.42281   0.49701   0.94001   0.00000  Uiso   1.00
H9     H     0.63071   0.50504   0.10139   0.00000  Uiso   1.00
H10    H     0.36930   0.49495   0.89862   0.00000  Uiso   1.00
O9     O     0.28471   0.39517   0.66900   0.00000  Uiso   1.00
Li1    Li    0.24683   0.32682   0.77918   0.00000  Uiso   1.00
O10    O     0.11231   0.38858   0.67962   0.00000  Uiso   1.00
Li2    Li    0.00409   0.36819   0.71250   0.00000  Uiso   1.00
O11    O     0.71529   0.60482   0.33101   0.00000  Uiso   1.00
Li3    Li    0.75317   0.67316   0.22083   0.00000  Uiso   1.00
O12    O     0.70332   0.41195   0.64195   0.00000  Uiso   1.00
Li4    Li    0.73286   0.34633   0.74774   0.00000  Uiso   1.00
O13    O     0.33416   0.25639   0.51041   0.00000  Uiso   1.00
Li5    Li    0.22740   0.22178   0.51704   0.00000  Uiso   1.00
O14    O     0.32490   0.10071   0.51094   0.00000  Uiso   1.00
Li6    Li    0.29363   0.00289   0.51285   0.00000  Uiso   1.00
O15    O     0.66584   0.74360   0.48961   0.00000  Uiso   1.00
Li7    Li    0.77260   0.77821   0.48298   0.00000  Uiso   1.00
O16    O     0.36397   0.73163   0.50838   0.00000  Uiso   1.00
Li8    Li    0.26106   0.75791   0.51479   0.00000  Uiso   1.00
H11    H     0.66721   0.46833   0.77094   0.00000  Uiso   1.00
H12    H     0.71736   0.54637   0.88122   0.00000  Uiso   1.00
N7     N     0.66135   0.50617   0.85401   0.00000  Uiso   1.00
H13    H     0.32785   0.45539   0.22960   0.00000  Uiso   1.00
H14    H     0.28758   0.52990   0.11827   0.00000  Uiso   1.00
N8     N     0.33865   0.49382   0.14600   0.00000  Uiso   1.00
