data_DB1-Zn2O8N2-AZO_A-irmof20_A_No332_repeat
_audit_creation_date              2024-02-20
_audit_creation_method            'Materials Studio'
_symmetry_space_group_name_H-M    'P1'
_symmetry_Int_Tables_number       1
_symmetry_cell_setting            triclinic
loop_
_symmetry_equiv_pos_as_xyz
  x,y,z
_cell_length_a                    16.4924
_cell_length_b                    17.4766
_cell_length_c                    12.7017
_cell_angle_alpha                 89.8593
_cell_angle_beta                  92.2811
_cell_angle_gamma                 84.4493
loop_
_atom_site_label
_atom_site_type_symbol
_atom_site_fract_x
_atom_site_fract_y
_atom_site_fract_z
_atom_site_U_iso_or_equiv
_atom_site_adp_type
_atom_site_occupancy
O1     O     0.58923   0.38595   0.50564   0.00000  Uiso   1.00
O2     O     0.42376   0.39251   0.49607   0.00000  Uiso   1.00
C1     C     0.50882   0.35020   0.50085   0.00000  Uiso   1.00
Zn1    Zn    0.60091   0.49603   0.50551   0.00000  Uiso   1.00
O3     O     0.41710   0.50332   0.64727   0.00000  Uiso   1.00
O4     O     0.58257   0.49688   0.65638   0.00000  Uiso   1.00
C2     C     0.49986   0.50007   0.70535   0.00000  Uiso   1.00
O5     O     0.41077   0.61407   0.49456   0.00000  Uiso   1.00
O6     O     0.57624   0.60752   0.50374   0.00000  Uiso   1.00
C3     C     0.49118   0.64982   0.49907   0.00000  Uiso   1.00
Zn2    Zn    0.39909   0.50400   0.49450   0.00000  Uiso   1.00
O7     O     0.58290   0.49655   0.35273   0.00000  Uiso   1.00
O8     O     0.41742   0.50327   0.34363   0.00000  Uiso   1.00
C4     C     0.50015   0.49969   0.29466   0.00000  Uiso   1.00
N1     N     0.28037   0.50869   0.48802   0.00000  Uiso   1.00
C5     C     0.23923   0.46131   0.55349   0.00000  Uiso   1.00
C6     C     0.15389   0.46481   0.54865   0.00000  Uiso   1.00
C7     C     0.10795   0.51569   0.47834   0.00000  Uiso   1.00
C8     C     0.14849   0.56287   0.41315   0.00000  Uiso   1.00
C9     C     0.23378   0.55956   0.41773   0.00000  Uiso   1.00
N2     N     0.02046   0.52060   0.47156   0.00000  Uiso   1.00
N3     N     0.97953   0.47942   0.52846   0.00000  Uiso   1.00
C10    C     0.85151   0.43715   0.58687   0.00000  Uiso   1.00
C11    C     0.89204   0.48433   0.52168   0.00000  Uiso   1.00
C12    C     0.84611   0.53521   0.45138   0.00000  Uiso   1.00
C13    C     0.76077   0.53871   0.44653   0.00000  Uiso   1.00
N4     N     0.71963   0.49133   0.51200   0.00000  Uiso   1.00
C14    C     0.76622   0.44046   0.58229   0.00000  Uiso   1.00
H1     H     0.27349   0.42170   0.60822   0.00000  Uiso   1.00
H2     H     0.12343   0.42802   0.59948   0.00000  Uiso   1.00
H3     H     0.88636   0.39778   0.64127   0.00000  Uiso   1.00
H4     H     0.87657   0.57200   0.40054   0.00000  Uiso   1.00
C15    C     0.51393   0.26446   0.50104   0.00000  Uiso   1.00
C16    C     0.44265   0.22589   0.49704   0.00000  Uiso   1.00
C17    C     0.44764   0.14536   0.49722   0.00000  Uiso   1.00
C18    C     0.52389   0.10178   0.50140   0.00000  Uiso   1.00
C19    C     0.59487   0.13978   0.50538   0.00000  Uiso   1.00
C20    C     0.59017   0.22026   0.50521   0.00000  Uiso   1.00
N5     N     0.53098   0.01921   0.50170   0.00000  Uiso   1.00
N6     N     0.46902   0.98081   0.49822   0.00000  Uiso   1.00
C21    C     0.40513   0.86024   0.49453   0.00000  Uiso   1.00
C22    C     0.47611   0.89825   0.49852   0.00000  Uiso   1.00
C23    C     0.55236   0.85466   0.50270   0.00000  Uiso   1.00
C24    C     0.55735   0.77413   0.50288   0.00000  Uiso   1.00
C25    C     0.48607   0.73556   0.49888   0.00000  Uiso   1.00
C26    C     0.40983   0.77976   0.49470   0.00000  Uiso   1.00
H5     H     0.38328   0.25841   0.49378   0.00000  Uiso   1.00
H6     H     0.39230   0.11681   0.49412   0.00000  Uiso   1.00
H7     H     0.34612   0.89332   0.49130   0.00000  Uiso   1.00
H8     H     0.60770   0.88321   0.50580   0.00000  Uiso   1.00
C27    C     0.56452   0.49744   0.89439   0.00000  Uiso   1.00
S1     S     0.40677   0.50358   0.88146   0.00000  Uiso   1.00
C28    C     0.43549   0.50232   0.10562   0.00000  Uiso   1.00
H9     H     0.38149   0.50441   0.12492   0.00000  Uiso   1.00
S2     S     0.59325   0.49618   0.11854   0.00000  Uiso   1.00
C29    C     0.49992   0.49999   0.82283   0.00000  Uiso   1.00
C30    C     0.50009   0.49977   0.17718   0.00000  Uiso   1.00
C31    C     0.45840   0.50150   0.99788   0.00000  Uiso   1.00
C32    C     0.54161   0.49826   0.00213   0.00000  Uiso   1.00
O9     O     0.26974   0.60397   0.35636   0.00000  Uiso   1.00
Li1    Li    0.23418   0.67128   0.26336   0.00000  Uiso   1.00
O10    O     0.10668   0.61010   0.34789   0.00000  Uiso   1.00
Li2    Li    0.00439   0.62998   0.32042   0.00000  Uiso   1.00
O11    O     0.73026   0.39605   0.64366   0.00000  Uiso   1.00
Li3    Li    0.76582   0.32874   0.73666   0.00000  Uiso   1.00
O12    O     0.71970   0.58619   0.38093   0.00000  Uiso   1.00
Li4    Li    0.74791   0.65096   0.29143   0.00000  Uiso   1.00
O13    O     0.65698   0.25396   0.50896   0.00000  Uiso   1.00
Li5    Li    0.75793   0.22007   0.51452   0.00000  Uiso   1.00
O14    O     0.66566   0.10010   0.50926   0.00000  Uiso   1.00
Li6    Li    0.69518   0.00350   0.51079   0.00000  Uiso   1.00
O15    O     0.34302   0.74606   0.49096   0.00000  Uiso   1.00
Li7    Li    0.24207   0.77995   0.48540   0.00000  Uiso   1.00
O16    O     0.62852   0.73515   0.50678   0.00000  Uiso   1.00
Li8    Li    0.72587   0.76144   0.51221   0.00000  Uiso   1.00
Cl1    Cl    0.66667   0.49349   0.85788   0.00000  Uiso   1.00
