data_DB1-Cu2O8-irmof10_A-irmof7_A_No497_repeat
_audit_creation_date              2024-02-23
_audit_creation_method            'Materials Studio'
_symmetry_space_group_name_H-M    'P1'
_symmetry_Int_Tables_number       1
_symmetry_cell_setting            triclinic
loop_
_symmetry_equiv_pos_as_xyz
  x,y,z
_cell_length_a                    29.8915
_cell_length_b                    39.2384
_cell_length_c                    10.0000
_cell_angle_alpha                 90.0000
_cell_angle_beta                  90.0000
_cell_angle_gamma                 40.5107
loop_
_atom_site_label
_atom_site_type_symbol
_atom_site_fract_x
_atom_site_fract_y
_atom_site_fract_z
_atom_site_U_iso_or_equiv
_atom_site_adp_type
_atom_site_occupancy
Cu1    Cu    0.50000   0.50000   0.37274   0.00000  Uiso   1.00
Cu2    Cu    0.50000   0.50000   0.62726   0.00000  Uiso   1.00
O1     O     0.43179   0.56822   0.38132   0.00000  Uiso   1.00
O2     O     0.56822   0.43165   0.38132   0.00000  Uiso   1.00
O3     O     0.44185   0.49986   0.38132   0.00000  Uiso   1.00
O4     O     0.55815   0.50001   0.38132   0.00000  Uiso   1.00
O5     O     0.55817   0.50013   0.61868   0.00000  Uiso   1.00
O6     O     0.44183   0.50001   0.61868   0.00000  Uiso   1.00
O7     O     0.56820   0.43173   0.61868   0.00000  Uiso   1.00
O8     O     0.43180   0.56836   0.61868   0.00000  Uiso   1.00
C1     C     0.40169   0.59840   0.50000   0.00000  Uiso   1.00
C2     C     0.59830   0.40161   0.50000   0.00000  Uiso   1.00
C3     C     0.41616   0.49994   0.50000   0.00000  Uiso   1.00
C4     C     0.58383   0.50007   0.50000   0.00000  Uiso   1.00
Cu3    Cu    0.99986   0.50015   0.62730   0.00000  Uiso   1.00
Cu4    Cu    0.00011   0.49989   0.37278   0.00000  Uiso   1.00
O9     O     0.93191   0.56835   0.61826   0.00000  Uiso   1.00
O10    O     0.06809   0.43178   0.61917   0.00000  Uiso   1.00
O11    O     0.05830   0.49999   0.61872   0.00000  Uiso   1.00
O12    O     0.94170   0.50014   0.61872   0.00000  Uiso   1.00
O13    O     0.94169   0.50002   0.38136   0.00000  Uiso   1.00
O14    O     0.05826   0.49991   0.38135   0.00000  Uiso   1.00
O15    O     0.06818   0.43162   0.38181   0.00000  Uiso   1.00
O16    O     0.93186   0.56825   0.38091   0.00000  Uiso   1.00
C5     C     0.90189   0.59841   0.49938   0.00000  Uiso   1.00
C6     C     0.09809   0.40162   0.50068   0.00000  Uiso   1.00
C7     C     0.08395   0.49995   0.50003   0.00000  Uiso   1.00
C8     C     0.91602   0.50008   0.50003   0.00000  Uiso   1.00
Cu5    Cu    0.08665   0.91364   0.62730   0.00000  Uiso   1.00
Cu6    Cu    0.08633   0.91364   0.37279   0.00000  Uiso   1.00
O17    O     0.15482   0.84543   0.61873   0.00000  Uiso   1.00
O18    O     0.01818   0.98200   0.61872   0.00000  Uiso   1.00
O19    O     0.02846   0.91352   0.61937   0.00000  Uiso   1.00
O20    O     0.14454   0.91390   0.61808   0.00000  Uiso   1.00
O21    O     0.14450   0.91378   0.38072   0.00000  Uiso   1.00
O22    O     0.02846   0.91336   0.38201   0.00000  Uiso   1.00
O23    O     0.01804   0.98191   0.38137   0.00000  Uiso   1.00
O24    O     0.15481   0.84529   0.38137   0.00000  Uiso   1.00
C9     C     0.18491   0.81524   0.50004   0.00000  Uiso   1.00
C10    C     0.98806   0.01204   0.50004   0.00000  Uiso   1.00
C11    C     0.00290   0.91332   0.50098   0.00000  Uiso   1.00
C12    C     0.17007   0.91396   0.49911   0.00000  Uiso   1.00
Cu7    Cu    0.58781   0.91352   0.36998   0.00000  Uiso   1.00
Cu8    Cu    0.58787   0.91378   0.62450   0.00000  Uiso   1.00
O25    O     0.65580   0.84532   0.37901   0.00000  Uiso   1.00
O26    O     0.51983   0.98189   0.37811   0.00000  Uiso   1.00
O27    O     0.64623   0.91341   0.37792   0.00000  Uiso   1.00
O28    O     0.52940   0.91379   0.37921   0.00000  Uiso   1.00
O29    O     0.52944   0.91391   0.61657   0.00000  Uiso   1.00
O30    O     0.64631   0.91350   0.61528   0.00000  Uiso   1.00
O31    O     0.51989   0.98205   0.61546   0.00000  Uiso   1.00
O32    O     0.65584   0.84542   0.61637   0.00000  Uiso   1.00
C13    C     0.68582   0.81526   0.49790   0.00000  Uiso   1.00
C14    C     0.48987   0.01205   0.49659   0.00000  Uiso   1.00
C15    C     0.67206   0.91334   0.49631   0.00000  Uiso   1.00
C16    C     0.50363   0.91397   0.49817   0.00000  Uiso   1.00
C17    C     0.63206   0.50007   0.50001   0.00000  Uiso   1.00
C18    C     0.86780   0.50008   0.50003   0.00000  Uiso   1.00
C19    C     0.65571   0.50001   0.38007   0.00000  Uiso   1.00
C20    C     0.70263   0.50001   0.37896   0.00000  Uiso   1.00
C21    C     0.84414   0.50014   0.61997   0.00000  Uiso   1.00
C22    C     0.79723   0.50014   0.62108   0.00000  Uiso   1.00
C23    C     0.84427   0.50002   0.38009   0.00000  Uiso   1.00
C24    C     0.79735   0.50002   0.37897   0.00000  Uiso   1.00
C25    C     0.65559   0.50014   0.61995   0.00000  Uiso   1.00
C26    C     0.70250   0.50014   0.62107   0.00000  Uiso   1.00
C27    C     0.72629   0.50007   0.50002   0.00000  Uiso   1.00
C28    C     0.77356   0.50008   0.50002   0.00000  Uiso   1.00
H1     H     0.63970   0.49997   0.29692   0.00000  Uiso   1.00
H2     H     0.86015   0.50018   0.70311   0.00000  Uiso   1.00
H3     H     0.86037   0.49997   0.29694   0.00000  Uiso   1.00
H4     H     0.78154   0.49997   0.29548   0.00000  Uiso   1.00
H5     H     0.63949   0.50018   0.70309   0.00000  Uiso   1.00
H6     H     0.71832   0.50018   0.70455   0.00000  Uiso   1.00
C29    C     0.36794   0.49994   0.50001   0.00000  Uiso   1.00
C30    C     0.13218   0.49995   0.50003   0.00000  Uiso   1.00
C31    C     0.34442   0.49986   0.38007   0.00000  Uiso   1.00
C32    C     0.29750   0.49986   0.37896   0.00000  Uiso   1.00
C33    C     0.15569   0.50003   0.61997   0.00000  Uiso   1.00
C34    C     0.20261   0.50003   0.62108   0.00000  Uiso   1.00
C35    C     0.15585   0.49987   0.38009   0.00000  Uiso   1.00
C36    C     0.20277   0.49987   0.37897   0.00000  Uiso   1.00
C37    C     0.34427   0.50002   0.61995   0.00000  Uiso   1.00
C38    C     0.29735   0.50002   0.62107   0.00000  Uiso   1.00
C39    C     0.27370   0.49994   0.50002   0.00000  Uiso   1.00
C40    C     0.22642   0.49995   0.50002   0.00000  Uiso   1.00
H7     H     0.36053   0.49980   0.29692   0.00000  Uiso   1.00
H8     H     0.13958   0.50008   0.70311   0.00000  Uiso   1.00
H9     H     0.13985   0.49982   0.29694   0.00000  Uiso   1.00
H10    H     0.21869   0.49981   0.29548   0.00000  Uiso   1.00
H11    H     0.36027   0.50007   0.70309   0.00000  Uiso   1.00
H12    H     0.28143   0.50008   0.70455   0.00000  Uiso   1.00
C41    C     0.24215   0.75799   0.50003   0.00000  Uiso   1.00
C42    C     0.24004   0.73108   0.41362   0.00000  Uiso   1.00
C43    C     0.29794   0.73121   0.58643   0.00000  Uiso   1.00
C44    C     0.18340   0.75939   0.32923   0.00000  Uiso   1.00
C45    C     0.17934   0.73409   0.24181   0.00000  Uiso   1.00
H13    H     0.14775   0.79582   0.33151   0.00000  Uiso   1.00
C46    C     0.34446   0.65565   0.50001   0.00000  Uiso   1.00
C47    C     0.34657   0.68257   0.58642   0.00000  Uiso   1.00
C48    C     0.28867   0.68244   0.41361   0.00000  Uiso   1.00
C49    C     0.28875   0.65400   0.32921   0.00000  Uiso   1.00
C50    C     0.23424   0.67917   0.24180   0.00000  Uiso   1.00
H14    H     0.32593   0.61758   0.33148   0.00000  Uiso   1.00
C51    C     0.65488   0.34505   0.50001   0.00000  Uiso   1.00
C52    C     0.93148   0.06859   0.50004   0.00000  Uiso   1.00
C53    C     0.68253   0.31739   0.38007   0.00000  Uiso   1.00
C54    C     0.73758   0.26237   0.37896   0.00000  Uiso   1.00
C55    C     0.90383   0.09626   0.61997   0.00000  Uiso   1.00
C56    C     0.84879   0.15128   0.62108   0.00000  Uiso   1.00
C57    C     0.90377   0.09625   0.38009   0.00000  Uiso   1.00
C58    C     0.84872   0.15127   0.37897   0.00000  Uiso   1.00
C59    C     0.68260   0.31739   0.61995   0.00000  Uiso   1.00
C60    C     0.73764   0.26237   0.62107   0.00000  Uiso   1.00
C61    C     0.76545   0.23454   0.50002   0.00000  Uiso   1.00
C62    C     0.82092   0.17910   0.50003   0.00000  Uiso   1.00
H15    H     0.66367   0.33621   0.29693   0.00000  Uiso   1.00
H16    H     0.92270   0.07743   0.70312   0.00000  Uiso   1.00
H17    H     0.92259   0.07742   0.29695   0.00000  Uiso   1.00
H18    H     0.83009   0.16987   0.29549   0.00000  Uiso   1.00
H19    H     0.66378   0.33622   0.70309   0.00000  Uiso   1.00
H20    H     0.75628   0.24377   0.70456   0.00000  Uiso   1.00
C63    C     0.74287   0.75801   0.49829   0.00000  Uiso   1.00
C64    C     0.79861   0.73118   0.58488   0.00000  Uiso   1.00
C65    C     0.74063   0.73113   0.41207   0.00000  Uiso   1.00
C66    C     0.79866   0.75958   0.66909   0.00000  Uiso   1.00
C67    C     0.85312   0.73437   0.75667   0.00000  Uiso   1.00
H21    H     0.76160   0.79600   0.66656   0.00000  Uiso   1.00
C68    C     0.84484   0.65566   0.49899   0.00000  Uiso   1.00
C69    C     0.78910   0.68249   0.41240   0.00000  Uiso   1.00
C70    C     0.84707   0.68254   0.58521   0.00000  Uiso   1.00
C71    C     0.90366   0.65419   0.66981   0.00000  Uiso   1.00
C72    C     0.90784   0.67945   0.75704   0.00000  Uiso   1.00
H22    H     0.93919   0.61777   0.66778   0.00000  Uiso   1.00
C73    C     0.15439   0.34507   0.50106   0.00000  Uiso   1.00
C74    C     0.42964   0.06861   0.50287   0.00000  Uiso   1.00
C75    C     0.18185   0.31752   0.62118   0.00000  Uiso   1.00
C76    C     0.23663   0.26250   0.62265   0.00000  Uiso   1.00
C77    C     0.40218   0.09615   0.38275   0.00000  Uiso   1.00
C78    C     0.34740   0.15117   0.38127   0.00000  Uiso   1.00
C79    C     0.40201   0.09639   0.62262   0.00000  Uiso   1.00
C80    C     0.34723   0.15141   0.62338   0.00000  Uiso   1.00
C81    C     0.18202   0.31728   0.38130   0.00000  Uiso   1.00
C82    C     0.23680   0.26226   0.38054   0.00000  Uiso   1.00
C83    C     0.26442   0.23455   0.50178   0.00000  Uiso   1.00
C84    C     0.31961   0.17912   0.50214   0.00000  Uiso   1.00
H23    H     0.16304   0.33643   0.70420   0.00000  Uiso   1.00
H24    H     0.42099   0.07724   0.29973   0.00000  Uiso   1.00
H25    H     0.42070   0.07765   0.70589   0.00000  Uiso   1.00
H26    H     0.32865   0.17010   0.70674   0.00000  Uiso   1.00
H27    H     0.16333   0.33603   0.29803   0.00000  Uiso   1.00
H28    H     0.25538   0.24358   0.29718   0.00000  Uiso   1.00
C85    C     0.21808   0.91418   0.49857   0.00000  Uiso   1.00
C86    C     0.45274   0.91526   0.49593   0.00000  Uiso   1.00
C87    C     0.24165   0.91435   0.61825   0.00000  Uiso   1.00
C88    C     0.28835   0.91456   0.61884   0.00000  Uiso   1.00
C89    C     0.42917   0.91509   0.37626   0.00000  Uiso   1.00
C90    C     0.38247   0.91487   0.37567   0.00000  Uiso   1.00
C91    C     0.42935   0.91521   0.61613   0.00000  Uiso   1.00
C92    C     0.38265   0.91500   0.61777   0.00000  Uiso   1.00
C93    C     0.24147   0.91422   0.37837   0.00000  Uiso   1.00
C94    C     0.28817   0.91444   0.37673   0.00000  Uiso   1.00
C95    C     0.31188   0.91461   0.49752   0.00000  Uiso   1.00
C96    C     0.35894   0.91483   0.49699   0.00000  Uiso   1.00
H29    H     0.22573   0.91432   0.70157   0.00000  Uiso   1.00
H30    H     0.44509   0.91512   0.29293   0.00000  Uiso   1.00
H31    H     0.44539   0.91533   0.69910   0.00000  Uiso   1.00
H32    H     0.36692   0.91497   0.70143   0.00000  Uiso   1.00
H33    H     0.22543   0.91411   0.29541   0.00000  Uiso   1.00
H34    H     0.30390   0.91447   0.29307   0.00000  Uiso   1.00
C97    C     0.95490   0.91310   0.50151   0.00000  Uiso   1.00
C98    C     0.72026   0.91200   0.50410   0.00000  Uiso   1.00
C99    C     0.93149   0.91307   0.62171   0.00000  Uiso   1.00
C100   C     0.88479   0.91285   0.62334   0.00000  Uiso   1.00
C101   C     0.74367   0.91203   0.38390   0.00000  Uiso   1.00
C102   C     0.79037   0.91225   0.38227   0.00000  Uiso   1.00
C103   C     0.74381   0.91219   0.62378   0.00000  Uiso   1.00
C104   C     0.79051   0.91241   0.62438   0.00000  Uiso   1.00
C105   C     0.93135   0.91291   0.38183   0.00000  Uiso   1.00
C106   C     0.88466   0.91269   0.38123   0.00000  Uiso   1.00
C107   C     0.86111   0.91266   0.50254   0.00000  Uiso   1.00
C108   C     0.81406   0.91244   0.50307   0.00000  Uiso   1.00
H35    H     0.94752   0.91320   0.70467   0.00000  Uiso   1.00
H36    H     0.72764   0.91190   0.30094   0.00000  Uiso   1.00
H37    H     0.72787   0.91217   0.70710   0.00000  Uiso   1.00
H38    H     0.80634   0.91254   0.70769   0.00000  Uiso   1.00
H39    H     0.94729   0.91293   0.29851   0.00000  Uiso   1.00
H40    H     0.86882   0.91256   0.29792   0.00000  Uiso   1.00
O33    O     0.72413   0.49996   0.26609   0.00000  Uiso   1.00
Li1    Li    0.70709   0.49987   0.10283   0.00000  Uiso   1.00
O34    O     0.77572   0.50020   0.73394   0.00000  Uiso   1.00
Li2    Li    0.79276   0.50028   0.89721   0.00000  Uiso   1.00
O35    O     0.27613   0.49979   0.26609   0.00000  Uiso   1.00
Li3    Li    0.29336   0.49968   0.10283   0.00000  Uiso   1.00
O36    O     0.22398   0.50010   0.73394   0.00000  Uiso   1.00
Li4    Li    0.20675   0.50021   0.89721   0.00000  Uiso   1.00
O37    O     0.76271   0.23722   0.26610   0.00000  Uiso   1.00
Li5    Li    0.74257   0.25730   0.10283   0.00000  Uiso   1.00
O38    O     0.82366   0.17643   0.73395   0.00000  Uiso   1.00
Li6    Li    0.84380   0.15635   0.89722   0.00000  Uiso   1.00
O39    O     0.26158   0.23747   0.73568   0.00000  Uiso   1.00
Li7    Li    0.24147   0.25772   0.89882   0.00000  Uiso   1.00
O40    O     0.32245   0.17620   0.26824   0.00000  Uiso   1.00
Li8    Li    0.34256   0.15596   0.10510   0.00000  Uiso   1.00
O41    O     0.30978   0.91472   0.73146   0.00000  Uiso   1.00
Li9    Li    0.29286   0.91472   0.89492   0.00000  Uiso   1.00
O42    O     0.36104   0.91472   0.26304   0.00000  Uiso   1.00
Li10   Li    0.37796   0.91471   0.09958   0.00000  Uiso   1.00
O43    O     0.86351   0.91283   0.73644   0.00000  Uiso   1.00
Li11   Li    0.88065   0.91301   0.89951   0.00000  Uiso   1.00
O44    O     0.81165   0.91227   0.26917   0.00000  Uiso   1.00
Li12   Li    0.79451   0.91208   0.10610   0.00000  Uiso   1.00
C109   C     0.40789   0.65214   0.67847   0.00000  Uiso   1.00
O45    O     0.42670   0.67257   0.71283   0.00000  Uiso   1.00
O46    O     0.44093   0.60818   0.71798   0.00000  Uiso   1.00
H41    H     0.38893   0.71074   0.68413   0.00000  Uiso   1.00
C110   C     0.29830   0.76177   0.67849   0.00000  Uiso   1.00
O47    O     0.26666   0.80851   0.64098   0.00000  Uiso   1.00
O48    O     0.32936   0.74254   0.78575   0.00000  Uiso   1.00
H42    H     0.23778   0.81992   0.55908   0.00000  Uiso   1.00
C111   C     0.11772   0.76497   0.15026   0.00000  Uiso   1.00
O49    O     0.05620   0.81167   0.18854   0.00000  Uiso   1.00
O50    O     0.12469   0.74605   0.04268   0.00000  Uiso   1.00
H43    H     0.06259   0.82282   0.27063   0.00000  Uiso   1.00
C112   C     0.23451   0.64815   0.15024   0.00000  Uiso   1.00
O51    O     0.29394   0.60145   0.10573   0.00000  Uiso   1.00
O52    O     0.17967   0.66697   0.11494   0.00000  Uiso   1.00
H44    H     0.33251   0.59040   0.15785   0.00000  Uiso   1.00
C113   C     0.78860   0.65197   0.32056   0.00000  Uiso   1.00
O53    O     0.72905   0.67236   0.28605   0.00000  Uiso   1.00
O54    O     0.84335   0.60797   0.28133   0.00000  Uiso   1.00
H45    H     0.69061   0.71056   0.31451   0.00000  Uiso   1.00
C114   C     0.67937   0.76159   0.31981   0.00000  Uiso   1.00
O55    O     0.61766   0.80838   0.35701   0.00000  Uiso   1.00
O56    O     0.68680   0.74225   0.21267   0.00000  Uiso   1.00
H46    H     0.62369   0.81987   0.43883   0.00000  Uiso   1.00
C115   C     0.85300   0.76535   0.84801   0.00000  Uiso   1.00
O57    O     0.82135   0.81200   0.80942   0.00000  Uiso   1.00
O58    O     0.88369   0.74654   0.95571   0.00000  Uiso   1.00
H47    H     0.79279   0.82307   0.72726   0.00000  Uiso   1.00
C116   C     0.96940   0.64853   0.84881   0.00000  Uiso   1.00
O59    O     0.00313   0.60188   0.89363   0.00000  Uiso   1.00
O60    O     0.98665   0.66738   0.88399   0.00000  Uiso   1.00
H48    H     0.98668   0.59077   0.84158   0.00000  Uiso   1.00
