data_DB1-Cu2O8N2-ADC_A-DABCO_A_No19_repeat
_audit_creation_date              2024-02-20
_audit_creation_method            'Materials Studio'
_symmetry_space_group_name_H-M    'P1'
_symmetry_Int_Tables_number       1
_symmetry_cell_setting            triclinic
loop_
_symmetry_equiv_pos_as_xyz
  x,y,z
_cell_length_a                    17.5218
_cell_length_b                    15.8494
_cell_length_c                    10.8687
_cell_angle_alpha                 87.6953
_cell_angle_beta                  92.9385
_cell_angle_gamma                 95.2900
loop_
_atom_site_label
_atom_site_type_symbol
_atom_site_fract_x
_atom_site_fract_y
_atom_site_fract_z
_atom_site_U_iso_or_equiv
_atom_site_adp_type
_atom_site_occupancy
Cu1    Cu    0.49719   0.41942   0.50478   0.00000  Uiso   1.00
Cu2    Cu    0.50280   0.58058   0.49523   0.00000  Uiso   1.00
O1     O     0.50271   0.42542   0.66461   0.00000  Uiso   1.00
O2     O     0.49226   0.42430   0.34398   0.00000  Uiso   1.00
O3     O     0.59715   0.43058   0.50382   0.00000  Uiso   1.00
O4     O     0.39782   0.41914   0.50478   0.00000  Uiso   1.00
O5     O     0.40284   0.56942   0.49615   0.00000  Uiso   1.00
O6     O     0.60217   0.58086   0.49528   0.00000  Uiso   1.00
O7     O     0.49738   0.57458   0.33526   0.00000  Uiso   1.00
O8     O     0.50770   0.57570   0.65604   0.00000  Uiso   1.00
C1     C     0.50755   0.50082   0.73102   0.00000  Uiso   1.00
C2     C     0.49244   0.49919   0.26899   0.00000  Uiso   1.00
C3     C     0.64361   0.50824   0.49942   0.00000  Uiso   1.00
C4     C     0.35638   0.49176   0.50060   0.00000  Uiso   1.00
N1     N     0.49302   0.29966   0.51188   0.00000  Uiso   1.00
C5     C     0.53783   0.25653   0.43560   0.00000  Uiso   1.00
C6     C     0.53481   0.16784   0.44074   0.00000  Uiso   1.00
C7     C     0.48667   0.11965   0.52269   0.00000  Uiso   1.00
C8     C     0.44199   0.16292   0.59876   0.00000  Uiso   1.00
C9     C     0.44504   0.25153   0.59356   0.00000  Uiso   1.00
C10    C     0.48052   0.02507   0.53317   0.00000  Uiso   1.00
C11    C     0.51949   0.97493   0.46682   0.00000  Uiso   1.00
C12    C     0.55801   0.83707   0.40125   0.00000  Uiso   1.00
C13    C     0.51333   0.88035   0.47731   0.00000  Uiso   1.00
C14    C     0.46519   0.83217   0.55926   0.00000  Uiso   1.00
C15    C     0.46216   0.74348   0.56441   0.00000  Uiso   1.00
N2     N     0.50697   0.70034   0.48814   0.00000  Uiso   1.00
C16    C     0.55495   0.74846   0.40645   0.00000  Uiso   1.00
H1     H     0.57526   0.29196   0.37187   0.00000  Uiso   1.00
H2     H     0.57043   0.13842   0.38010   0.00000  Uiso   1.00
H3     H     0.40440   0.12799   0.66274   0.00000  Uiso   1.00
H4     H     0.59560   0.87200   0.33725   0.00000  Uiso   1.00
H5     H     0.42956   0.86158   0.61991   0.00000  Uiso   1.00
H6     H     0.42473   0.70805   0.62814   0.00000  Uiso   1.00
H7     H     0.44146   0.99658   0.59966   0.00000  Uiso   1.00
H8     H     0.55855   0.00342   0.40033   0.00000  Uiso   1.00
C17    C     0.27086   0.48686   0.50085   0.00000  Uiso   1.00
C18    C     0.23223   0.56105   0.49662   0.00000  Uiso   1.00
C19    C     0.15202   0.55655   0.49685   0.00000  Uiso   1.00
C20    C     0.10806   0.47736   0.50133   0.00000  Uiso   1.00
C21    C     0.14682   0.40337   0.50555   0.00000  Uiso   1.00
C22    C     0.22696   0.40792   0.50532   0.00000  Uiso   1.00
C23    C     0.02251   0.46771   0.50185   0.00000  Uiso   1.00
C24    C     0.97749   0.53232   0.49816   0.00000  Uiso   1.00
C25    C     0.85316   0.59665   0.49447   0.00000  Uiso   1.00
C26    C     0.89193   0.52266   0.49868   0.00000  Uiso   1.00
C27    C     0.84798   0.44347   0.50317   0.00000  Uiso   1.00
C28    C     0.76776   0.43897   0.50340   0.00000  Uiso   1.00
C29    C     0.72913   0.51315   0.49917   0.00000  Uiso   1.00
C30    C     0.77302   0.59209   0.49470   0.00000  Uiso   1.00
H9     H     0.26456   0.62264   0.49313   0.00000  Uiso   1.00
H10    H     0.12571   0.61551   0.49349   0.00000  Uiso   1.00
H11    H     0.11494   0.34152   0.50905   0.00000  Uiso   1.00
H12    H     0.88504   0.65850   0.49096   0.00000  Uiso   1.00
H13    H     0.87428   0.38451   0.50653   0.00000  Uiso   1.00
H14    H     0.73544   0.37737   0.50689   0.00000  Uiso   1.00
H15    H     0.99643   0.40341   0.50550   0.00000  Uiso   1.00
H16    H     0.00356   0.59663   0.49452   0.00000  Uiso   1.00
C31    C     0.42610   0.47349   0.91847   0.00000  Uiso   1.00
C32    C     0.42204   0.47350   0.05979   0.00000  Uiso   1.00
C33    C     0.49633   0.49961   0.13048   0.00000  Uiso   1.00
C34    C     0.55071   0.44192   0.08151   0.00000  Uiso   1.00
C35    C     0.55494   0.44264   0.94013   0.00000  Uiso   1.00
C36    C     0.50370   0.50040   0.86816   0.00000  Uiso   1.00
C37    C     0.52514   0.58448   0.92727   0.00000  Uiso   1.00
C38    C     0.52150   0.58398   0.06878   0.00000  Uiso   1.00
O9     O     0.40293   0.28917   0.66525   0.00000  Uiso   1.00
Li1    Li    0.33929   0.25252   0.77359   0.00000  Uiso   1.00
O10    O     0.59706   0.71082   0.33476   0.00000  Uiso   1.00
Li2    Li    0.66071   0.74747   0.22642   0.00000  Uiso   1.00
O11    O     0.26065   0.33821   0.50929   0.00000  Uiso   1.00
Li3    Li    0.22699   0.23337   0.51523   0.00000  Uiso   1.00
O12    O     0.73933   0.66180   0.49073   0.00000  Uiso   1.00
Li4    Li    0.77298   0.76664   0.48478   0.00000  Uiso   1.00
