data_DB1-Zn2O8N2-AZO_A-BDC_A_No430_repeat
_audit_creation_date              2024-02-20
_audit_creation_method            'Materials Studio'
_symmetry_space_group_name_H-M    'P1'
_symmetry_Int_Tables_number       1
_symmetry_cell_setting            triclinic
loop_
_symmetry_equiv_pos_as_xyz
  x,y,z
_cell_length_a                    16.4924
_cell_length_b                    17.4766
_cell_length_c                    10.9009
_cell_angle_alpha                 89.8516
_cell_angle_beta                  92.2863
_cell_angle_gamma                 84.4493
loop_
_atom_site_label
_atom_site_type_symbol
_atom_site_fract_x
_atom_site_fract_y
_atom_site_fract_z
_atom_site_U_iso_or_equiv
_atom_site_adp_type
_atom_site_occupancy
O1     O     0.58923   0.38595   0.50657   0.00000  Uiso   1.00
O2     O     0.42376   0.39251   0.49542   0.00000  Uiso   1.00
C1     C     0.50882   0.35020   0.50099   0.00000  Uiso   1.00
Zn1    Zn    0.60091   0.49602   0.50642   0.00000  Uiso   1.00
O3     O     0.41711   0.50330   0.67160   0.00000  Uiso   1.00
O4     O     0.58258   0.49687   0.68221   0.00000  Uiso   1.00
C2     C     0.49988   0.50005   0.73927   0.00000  Uiso   1.00
O5     O     0.41077   0.61407   0.49367   0.00000  Uiso   1.00
O6     O     0.57624   0.60751   0.50435   0.00000  Uiso   1.00
C3     C     0.49118   0.64982   0.49891   0.00000  Uiso   1.00
Zn2    Zn    0.39909   0.50400   0.49359   0.00000  Uiso   1.00
O7     O     0.58289   0.49656   0.32841   0.00000  Uiso   1.00
O8     O     0.41741   0.50329   0.31779   0.00000  Uiso   1.00
C4     C     0.50014   0.49971   0.26074   0.00000  Uiso   1.00
N1     N     0.28037   0.50869   0.48604   0.00000  Uiso   1.00
C5     C     0.23923   0.46130   0.56233   0.00000  Uiso   1.00
C6     C     0.15389   0.46481   0.55669   0.00000  Uiso   1.00
C7     C     0.10795   0.51569   0.47477   0.00000  Uiso   1.00
C8     C     0.14848   0.56288   0.39880   0.00000  Uiso   1.00
C9     C     0.23377   0.55957   0.40414   0.00000  Uiso   1.00
N2     N     0.02046   0.52060   0.46687   0.00000  Uiso   1.00
N3     N     0.97954   0.47942   0.53316   0.00000  Uiso   1.00
C10    C     0.85152   0.43714   0.60122   0.00000  Uiso   1.00
C11    C     0.89204   0.48432   0.52526   0.00000  Uiso   1.00
C12    C     0.84610   0.53521   0.44334   0.00000  Uiso   1.00
C13    C     0.76077   0.53872   0.43770   0.00000  Uiso   1.00
N4     N     0.71963   0.49133   0.51398   0.00000  Uiso   1.00
C14    C     0.76622   0.44045   0.59588   0.00000  Uiso   1.00
H1     H     0.27350   0.42169   0.62610   0.00000  Uiso   1.00
H2     H     0.12343   0.42801   0.61592   0.00000  Uiso   1.00
H3     H     0.88637   0.39776   0.66461   0.00000  Uiso   1.00
H4     H     0.87656   0.57201   0.38411   0.00000  Uiso   1.00
C15    C     0.51393   0.26446   0.50121   0.00000  Uiso   1.00
C16    C     0.44265   0.22589   0.49655   0.00000  Uiso   1.00
C17    C     0.44764   0.14536   0.49676   0.00000  Uiso   1.00
C18    C     0.52389   0.10178   0.50163   0.00000  Uiso   1.00
C19    C     0.59487   0.13978   0.50627   0.00000  Uiso   1.00
C20    C     0.59017   0.22026   0.50608   0.00000  Uiso   1.00
N5     N     0.53098   0.01921   0.50198   0.00000  Uiso   1.00
N6     N     0.46902   0.98081   0.49792   0.00000  Uiso   1.00
C21    C     0.40513   0.86025   0.49363   0.00000  Uiso   1.00
C22    C     0.47611   0.89825   0.49827   0.00000  Uiso   1.00
C23    C     0.55236   0.85466   0.50314   0.00000  Uiso   1.00
C24    C     0.55735   0.77413   0.50336   0.00000  Uiso   1.00
C25    C     0.48607   0.73556   0.49870   0.00000  Uiso   1.00
C26    C     0.40983   0.77976   0.49383   0.00000  Uiso   1.00
H5     H     0.38328   0.25841   0.49275   0.00000  Uiso   1.00
H6     H     0.39229   0.11681   0.49315   0.00000  Uiso   1.00
H7     H     0.34612   0.89332   0.48986   0.00000  Uiso   1.00
H8     H     0.60770   0.88321   0.50676   0.00000  Uiso   1.00
C27    C     0.49994   0.49996   0.87151   0.00000  Uiso   1.00
C28    C     0.50007   0.49980   0.12850   0.00000  Uiso   1.00
C29    C     0.42696   0.50276   0.93186   0.00000  Uiso   1.00
C30    C     0.57305   0.49700   0.06815   0.00000  Uiso   1.00
C31    C     0.42703   0.50268   0.05947   0.00000  Uiso   1.00
C32    C     0.57299   0.49708   0.94054   0.00000  Uiso   1.00
H9     H     0.62369   0.49500   0.11519   0.00000  Uiso   1.00
H10    H     0.37643   0.50462   0.10048   0.00000  Uiso   1.00
H11    H     0.62358   0.49514   0.89953   0.00000  Uiso   1.00
O9     O     0.26973   0.60399   0.33263   0.00000  Uiso   1.00
Li1    Li    0.23416   0.67130   0.22427   0.00000  Uiso   1.00
O10    O     0.10667   0.61012   0.32276   0.00000  Uiso   1.00
Li2    Li    0.00437   0.63000   0.29076   0.00000  Uiso   1.00
O11    O     0.73027   0.39603   0.66739   0.00000  Uiso   1.00
Li3    Li    0.76584   0.32872   0.77576   0.00000  Uiso   1.00
O12    O     0.71969   0.58620   0.36125   0.00000  Uiso   1.00
Li4    Li    0.74789   0.65098   0.25698   0.00000  Uiso   1.00
O13    O     0.65698   0.25396   0.51044   0.00000  Uiso   1.00
Li5    Li    0.75793   0.22007   0.51692   0.00000  Uiso   1.00
O14    O     0.66566   0.10010   0.51079   0.00000  Uiso   1.00
Li6    Li    0.69518   0.00350   0.51257   0.00000  Uiso   1.00
O15    O     0.34302   0.74606   0.48946   0.00000  Uiso   1.00
Li7    Li    0.24207   0.77995   0.48298   0.00000  Uiso   1.00
O16    O     0.62852   0.73515   0.50790   0.00000  Uiso   1.00
Li8    Li    0.72587   0.76144   0.51423   0.00000  Uiso   1.00
O17    O     0.33975   0.45615   0.74920   0.00000  Uiso   1.00
O18    O     0.27686   0.55872   0.89405   0.00000  Uiso   1.00
N7     N     0.34723   0.50590   0.85778   0.00000  Uiso   1.00
