data_DB1-Cu2O8N2-ADC_A-irmof7_A_No714_repeat
_audit_creation_date              2024-02-20
_audit_creation_method            'Materials Studio'
_symmetry_space_group_name_H-M    'P1'
_symmetry_Int_Tables_number       1
_symmetry_cell_setting            triclinic
loop_
_symmetry_equiv_pos_as_xyz
  x,y,z
_cell_length_a                    15.8494
_cell_length_b                    17.5218
_cell_length_c                    10.5432
_cell_angle_alpha                 89.9220
_cell_angle_beta                  87.6748
_cell_angle_gamma                 95.2900
loop_
_atom_site_label
_atom_site_type_symbol
_atom_site_fract_x
_atom_site_fract_y
_atom_site_fract_z
_atom_site_U_iso_or_equiv
_atom_site_adp_type
_atom_site_occupancy
Cu1    Cu    0.41940   0.49703   0.50492   0.00000  Uiso   1.00
Cu2    Cu    0.58059   0.50296   0.49509   0.00000  Uiso   1.00
O1     O     0.42483   0.49729   0.66951   0.00000  Uiso   1.00
O2     O     0.42485   0.49740   0.33934   0.00000  Uiso   1.00
O3     O     0.43056   0.59702   0.50393   0.00000  Uiso   1.00
O4     O     0.41912   0.39767   0.50492   0.00000  Uiso   1.00
O5     O     0.56943   0.40297   0.49604   0.00000  Uiso   1.00
O6     O     0.58087   0.60232   0.49514   0.00000  Uiso   1.00
O7     O     0.57517   0.50281   0.33037   0.00000  Uiso   1.00
O8     O     0.57514   0.50256   0.66068   0.00000  Uiso   1.00
C1     C     0.49999   0.49994   0.73789   0.00000  Uiso   1.00
C2     C     0.50001   0.50005   0.26213   0.00000  Uiso   1.00
C3     C     0.50824   0.64363   0.49940   0.00000  Uiso   1.00
C4     C     0.49176   0.35636   0.50062   0.00000  Uiso   1.00
N1     N     0.29962   0.49263   0.51223   0.00000  Uiso   1.00
C5     C     0.25676   0.53995   0.43369   0.00000  Uiso   1.00
C6     C     0.16805   0.53676   0.43898   0.00000  Uiso   1.00
C7     C     0.11957   0.48593   0.52336   0.00000  Uiso   1.00
C8     C     0.16257   0.43873   0.60169   0.00000  Uiso   1.00
C9     C     0.25120   0.44196   0.59634   0.00000  Uiso   1.00
C10    C     0.02495   0.47942   0.53416   0.00000  Uiso   1.00
C11    C     0.97504   0.52058   0.46584   0.00000  Uiso   1.00
C12    C     0.83742   0.56126   0.39831   0.00000  Uiso   1.00
C13    C     0.88043   0.51407   0.47664   0.00000  Uiso   1.00
C14    C     0.83195   0.46324   0.56102   0.00000  Uiso   1.00
C15    C     0.74324   0.46004   0.56632   0.00000  Uiso   1.00
N2     N     0.70038   0.50736   0.48778   0.00000  Uiso   1.00
C16    C     0.74879   0.55804   0.40367   0.00000  Uiso   1.00
H1     H     0.29241   0.57948   0.36807   0.00000  Uiso   1.00
H2     H     0.13885   0.57438   0.37653   0.00000  Uiso   1.00
H3     H     0.12741   0.39904   0.66758   0.00000  Uiso   1.00
H4     H     0.87258   0.60096   0.33242   0.00000  Uiso   1.00
H5     H     0.86115   0.42561   0.62347   0.00000  Uiso   1.00
H6     H     0.70760   0.42051   0.63194   0.00000  Uiso   1.00
H7     H     0.99622   0.43818   0.60262   0.00000  Uiso   1.00
H8     H     0.00377   0.56183   0.39737   0.00000  Uiso   1.00
C17    C     0.48685   0.27084   0.50087   0.00000  Uiso   1.00
C18    C     0.56106   0.23234   0.49652   0.00000  Uiso   1.00
C19    C     0.55655   0.15212   0.49675   0.00000  Uiso   1.00
C20    C     0.47736   0.10802   0.50137   0.00000  Uiso   1.00
C21    C     0.40335   0.14664   0.50571   0.00000  Uiso   1.00
C22    C     0.40790   0.22679   0.50548   0.00000  Uiso   1.00
C23    C     0.46771   0.02245   0.50191   0.00000  Uiso   1.00
C24    C     0.53232   0.97755   0.49811   0.00000  Uiso   1.00
C25    C     0.59667   0.85334   0.49430   0.00000  Uiso   1.00
C26    C     0.52267   0.89197   0.49865   0.00000  Uiso   1.00
C27    C     0.44346   0.84787   0.50326   0.00000  Uiso   1.00
C28    C     0.43895   0.76765   0.50350   0.00000  Uiso   1.00
C29    C     0.51316   0.72915   0.49914   0.00000  Uiso   1.00
C30    C     0.59211   0.77320   0.49454   0.00000  Uiso   1.00
H9     H     0.62266   0.26479   0.49293   0.00000  Uiso   1.00
H10    H     0.61553   0.12593   0.49329   0.00000  Uiso   1.00
H11    H     0.34149   0.11464   0.50932   0.00000  Uiso   1.00
H12    H     0.65853   0.88534   0.49069   0.00000  Uiso   1.00
H13    H     0.38449   0.87406   0.50672   0.00000  Uiso   1.00
H14    H     0.37735   0.73521   0.50709   0.00000  Uiso   1.00
H15    H     0.40339   0.99625   0.50566   0.00000  Uiso   1.00
H16    H     0.59665   0.00374   0.49436   0.00000  Uiso   1.00
C31    C     0.50000   0.50002   0.12372   0.00000  Uiso   1.00
C32    C     0.55188   0.45235   0.05577   0.00000  Uiso   1.00
C33    C     0.44813   0.54766   0.06183   0.00000  Uiso   1.00
C34    C     0.60255   0.40581   0.12140   0.00000  Uiso   1.00
C35    C     0.65502   0.35759   0.05734   0.00000  Uiso   1.00
H17    H     0.60118   0.40709   0.20955   0.00000  Uiso   1.00
C36    C     0.50000   0.49997   0.87629   0.00000  Uiso   1.00
C37    C     0.44813   0.54764   0.94424   0.00000  Uiso   1.00
C38    C     0.55187   0.45233   0.93818   0.00000  Uiso   1.00
C39    C     0.60254   0.40576   0.86663   0.00000  Uiso   1.00
C40    C     0.65502   0.35756   0.92456   0.00000  Uiso   1.00
H18    H     0.60117   0.40700   0.77864   0.00000  Uiso   1.00
O9     O     0.28858   0.39748   0.67016   0.00000  Uiso   1.00
Li1    Li    0.25154   0.33028   0.78172   0.00000  Uiso   1.00
O10    O     0.71141   0.60251   0.32985   0.00000  Uiso   1.00
Li2    Li    0.74844   0.66972   0.21829   0.00000  Uiso   1.00
O11    O     0.33817   0.26034   0.50957   0.00000  Uiso   1.00
Li3    Li    0.23331   0.22649   0.51569   0.00000  Uiso   1.00
O12    O     0.66184   0.73964   0.49045   0.00000  Uiso   1.00
Li4    Li    0.76670   0.77348   0.48433   0.00000  Uiso   1.00
O13    O     0.39316   0.59812   0.87414   0.00000  Uiso   1.00
H19    H     0.40239   0.58961   0.77037   0.00000  Uiso   1.00
O14    O     0.39317   0.59817   0.13836   0.00000  Uiso   1.00
H20    H     0.40241   0.58971   0.24104   0.00000  Uiso   1.00
O15    O     0.70969   0.30738   0.12856   0.00000  Uiso   1.00
H21    H     0.70004   0.31627   0.23216   0.00000  Uiso   1.00
O16    O     0.70968   0.30733   0.84695   0.00000  Uiso   1.00
H22    H     0.70003   0.31617   0.74448   0.00000  Uiso   1.00
