# Generated by REPEAT Assigner based on pymatgen
data_DB1-Cu2O8N2-AZO_A-DPAC_A_No369
_audit_creation_date              2022-05-24
_audit_creation_method            REPEAT_Assigner
_cell_length_a                    15.606300
_cell_length_b                    17.276500
_cell_length_c                    17.372200
_cell_angle_alpha                 89.920000
_cell_angle_beta                  87.457500
_cell_angle_gamma                 95.773200
_cell_volume                      4655.505610
_symmetry_space_group_name_H-M    P1
_symmetry_Int_Tables_number       1
loop_
    _symmetry_equiv_pos_site_id
    _symmetry_equiv_pos_as_xyz
    1  x,y,z
loop_
    _atom_site_type_symbol
    _atom_site_label
    _atom_site_fract_x
    _atom_site_fract_y
    _atom_site_fract_z
    _atom_type_partial_charge
    Cu  Cu1   0.418090  0.496710  0.503260  0.526960
    Cu  Cu2   0.581910  0.503280  0.496740  0.616317
    O   O1    0.423600  0.496980  0.603130  -0.331510
    O   O2    0.423640  0.497110  0.402750  -0.341389
    O   O3    0.429960  0.598210  0.502600  -0.326124
    O   O4    0.417280  0.395890  0.503280  -0.350762
    O   O5    0.570040  0.401780  0.497380  -0.317098
    O   O6    0.582720  0.604100  0.496750  -0.333647
    O   O7    0.576400  0.503120  0.396790  -0.430886
    O   O8    0.576360  0.502850  0.597260  -0.413846
    C   C1    0.499980  0.499930  0.644370  0.650770
    C   C2    0.500020  0.500060  0.355630  0.680274
    C   C3    0.509140  0.645760  0.499580  0.337987
    C   C4    0.490860  0.354230  0.500430  0.343918
    N   N1    0.296350  0.491830  0.508110  -0.346759
    C   C5    0.253060  0.539790  0.460490  0.392465
    C   C6    0.162830  0.536050  0.464210  -0.225317
    C   C7    0.114060  0.484340  0.515550  0.405060
    C   C8    0.156700  0.436570  0.562980  -0.381364
    C   C9    0.246880  0.440130  0.559450  0.526510
    N   N2    0.021540  0.479160  0.520690  -0.124634
    N   N3    0.978460  0.520830  0.479320  -0.141397
    C   C10   0.843300  0.563420  0.437030  -0.348270
    C   C11   0.885940  0.515660  0.484450  0.406648
    C   C12   0.837170  0.463950  0.535800  -0.200336
    C   C13   0.746940  0.460200  0.539520  0.392063
    N   N4    0.703650  0.508160  0.491900  -0.400738
    C   C14   0.753120  0.559860  0.440560  0.509105
    C   C15   0.485420  0.267480  0.500620  -0.131790
    C   C16   0.560760  0.228690  0.497730  0.183353
    C   C17   0.555440  0.147210  0.497910  -0.203381
    C   C18   0.474790  0.102870  0.500990  0.511725
    C   C19   0.399760  0.141080  0.503880  -0.386178
    C   C20   0.404780  0.222510  0.503700  0.315848
    N   N5    0.467250  0.019320  0.501260  -0.177167
    N   N6    0.532750  0.980670  0.498750  -0.176213
    C   C21   0.600240  0.858910  0.496130  -0.378313
    C   C22   0.525210  0.897120  0.499020  0.510647
    C   C23   0.444560  0.852780  0.502100  -0.208206
    C   C24   0.439240  0.771300  0.502280  0.195534
    C   C25   0.514590  0.732510  0.499390  -0.125940
    C   C26   0.595220  0.777480  0.496310  0.295942
    C   C27   0.500010  0.500050  0.274060  -0.703688
    C   C28   0.421920  0.497030  0.234790  0.670950
    C   C29   0.421680  0.497010  0.153740  -0.587334
    C   C30   0.500000  0.500030  0.109540  0.425683
    C   C31   0.578330  0.503070  0.147480  -0.650919
    C   C32   0.578100  0.503070  0.228550  0.880895
    C   C33   0.499990  0.500020  0.034420  -0.109479
    C   C34   0.499980  0.500010  0.965590  -0.113649
    C   C35   0.499980  0.499990  0.890470  0.425091
    C   C36   0.421660  0.496980  0.852520  -0.591916
    C   C37   0.421890  0.496970  0.771450  0.664237
    C   C38   0.499980  0.499960  0.725940  -0.672832
    C   C39   0.578070  0.502970  0.765220  0.838451
    C   C40   0.578300  0.502990  0.846270  -0.629254
    H   H1    0.363880  0.494770  0.127610  0.221274
    H   H2    0.636110  0.505300  0.116730  0.240636
    H   H3    0.363870  0.494770  0.883270  0.221687
    H   H4    0.636090  0.505220  0.872400  0.235475
    Cl  Cl1   0.298170  0.379160  0.619990  -0.002332
    Cl  Cl2   0.096500  0.371490  0.627600  -0.005078
    Cl  Cl3   0.312220  0.605220  0.395520  0.023109
    Cl  Cl4   0.110670  0.596670  0.404010  -0.073937
    Cl  Cl5   0.903500  0.628500  0.372410  -0.003826
    Cl  Cl6   0.701830  0.620830  0.380020  0.008576
    Cl  Cl7   0.889330  0.403320  0.596000  -0.075022
    Cl  Cl8   0.687780  0.394770  0.604480  0.030797
    Cl  Cl9   0.309020  0.268450  0.507380  -0.152372
    Cl  Cl10  0.298250  0.086340  0.507750  0.038744
    Cl  Cl11  0.662820  0.282480  0.493830  -0.115299
    Cl  Cl12  0.650670  0.100480  0.494250  -0.038961
    Cl  Cl13  0.701750  0.913650  0.492260  0.036117
    Cl  Cl14  0.690980  0.731540  0.492630  -0.132791
    Cl  Cl15  0.349330  0.899510  0.505760  -0.036705
    Cl  Cl16  0.337180  0.717510  0.506180  -0.131529
    H   H5    0.324270  0.455220  0.331030  0.254992
    H   H6    0.286010  0.529810  0.261380  0.286598
    N   N7    0.336530  0.493730  0.279700  -0.766949
    H   H7    0.675760  0.544900  0.316870  0.389081
    H   H8    0.714020  0.470290  0.244380  0.373854
    N   N8    0.663500  0.506380  0.266630  -1.111922
    H   H9    0.329170  0.531430  0.682810  0.233829
    H   H10   0.281060  0.453520  0.755930  0.274817
    N   N9    0.336500  0.493680  0.733360  -0.736629
    H   H11   0.670800  0.468470  0.669300  0.382946
    H   H12   0.718910  0.546410  0.738330  0.372052
    N   N10   0.663470  0.506240  0.720320  -1.087333
