data_DB1-Cu2O8-AZO_A-irmof7_A_No523_repeat
_audit_creation_date              2024-02-23
_audit_creation_method            'Materials Studio'
_symmetry_space_group_name_H-M    'P1'
_symmetry_Int_Tables_number       1
_symmetry_cell_setting            triclinic
loop_
_symmetry_equiv_pos_as_xyz
  x,y,z
_cell_length_a                    10.5432
_cell_length_b                    34.4976
_cell_length_c                    10.0000
_cell_angle_alpha                 90.0000
_cell_angle_beta                  90.0000
_cell_angle_gamma                 90.0934
loop_
_atom_site_label
_atom_site_type_symbol
_atom_site_fract_x
_atom_site_fract_y
_atom_site_fract_z
_atom_site_U_iso_or_equiv
_atom_site_adp_type
_atom_site_occupancy
Cu1    Cu    0.50000   0.50000   0.62726   0.00000  Uiso   1.00
Cu2    Cu    0.50001   0.50000   0.37274   0.00000  Uiso   1.00
O1     O     0.66492   0.49997   0.61869   0.00000  Uiso   1.00
O2     O     0.33475   0.49992   0.61867   0.00000  Uiso   1.00
O3     O     0.49964   0.44949   0.61868   0.00000  Uiso   1.00
O4     O     0.50002   0.55040   0.61868   0.00000  Uiso   1.00
O5     O     0.50033   0.55051   0.38132   0.00000  Uiso   1.00
O6     O     0.50003   0.44961   0.38132   0.00000  Uiso   1.00
O7     O     0.33496   0.49998   0.38131   0.00000  Uiso   1.00
O8     O     0.66527   0.50010   0.38133   0.00000  Uiso   1.00
C1     C     0.73789   0.50003   0.50001   0.00000  Uiso   1.00
C2     C     0.26213   0.49997   0.49999   0.00000  Uiso   1.00
C3     C     0.49984   0.42730   0.50000   0.00000  Uiso   1.00
C4     C     0.50018   0.57270   0.50000   0.00000  Uiso   1.00
Cu3    Cu    0.50051   0.00000   0.27502   0.00000  Uiso   1.00
Cu4    Cu    0.49987   0.00000   0.52953   0.00000  Uiso   1.00
O9     O     0.66540   0.00019   0.28405   0.00000  Uiso   1.00
O10    O     0.33523   0.99993   0.28314   0.00000  Uiso   1.00
O11    O     0.50014   0.05051   0.28359   0.00000  Uiso   1.00
O12    O     0.50050   0.94961   0.28359   0.00000  Uiso   1.00
O13    O     0.50019   0.94949   0.52095   0.00000  Uiso   1.00
O14    O     0.49993   0.05040   0.52096   0.00000  Uiso   1.00
O15    O     0.33484   0.99987   0.52049   0.00000  Uiso   1.00
O16    O     0.66514   0.00006   0.52141   0.00000  Uiso   1.00
C5     C     0.73807   0.00021   0.40294   0.00000  Uiso   1.00
C6     C     0.26231   0.99980   0.40162   0.00000  Uiso   1.00
C7     C     0.50004   0.07270   0.40228   0.00000  Uiso   1.00
C8     C     0.50034   0.92730   0.40228   0.00000  Uiso   1.00
C9     C     0.50034   0.88404   0.40227   0.00000  Uiso   1.00
C10    C     0.50018   0.86313   0.52342   0.00000  Uiso   1.00
C11    C     0.50018   0.82250   0.52310   0.00000  Uiso   1.00
C12    C     0.50033   0.80194   0.40182   0.00000  Uiso   1.00
C13    C     0.50048   0.82255   0.28122   0.00000  Uiso   1.00
C14    C     0.50049   0.86317   0.28108   0.00000  Uiso   1.00
N1     N     0.50033   0.76032   0.39824   0.00000  Uiso   1.00
N2     N     0.50019   0.73968   0.50403   0.00000  Uiso   1.00
C15    C     0.50004   0.67745   0.62106   0.00000  Uiso   1.00
C16    C     0.50019   0.69806   0.50046   0.00000  Uiso   1.00
C17    C     0.50034   0.67751   0.37917   0.00000  Uiso   1.00
C18    C     0.50034   0.63687   0.37885   0.00000  Uiso   1.00
C19    C     0.50018   0.61597   0.50000   0.00000  Uiso   1.00
C20    C     0.50003   0.63684   0.62120   0.00000  Uiso   1.00
H1     H     0.50006   0.87842   0.61799   0.00000  Uiso   1.00
H2     H     0.50006   0.80698   0.61703   0.00000  Uiso   1.00
H3     H     0.49992   0.69303   0.71497   0.00000  Uiso   1.00
H4     H     0.50046   0.69303   0.28525   0.00000  Uiso   1.00
C21    C     0.50004   0.11597   0.40227   0.00000  Uiso   1.00
C22    C     0.49983   0.13687   0.52342   0.00000  Uiso   1.00
C23    C     0.49983   0.17751   0.52310   0.00000  Uiso   1.00
C24    C     0.50003   0.19806   0.40182   0.00000  Uiso   1.00
C25    C     0.50023   0.17745   0.28122   0.00000  Uiso   1.00
C26    C     0.50023   0.13684   0.28108   0.00000  Uiso   1.00
N3     N     0.50003   0.23968   0.39824   0.00000  Uiso   1.00
N4     N     0.49985   0.26032   0.50403   0.00000  Uiso   1.00
C27    C     0.49965   0.32255   0.62105   0.00000  Uiso   1.00
C28    C     0.49986   0.30194   0.50046   0.00000  Uiso   1.00
C29    C     0.50005   0.32250   0.37917   0.00000  Uiso   1.00
C30    C     0.50005   0.36313   0.37885   0.00000  Uiso   1.00
C31    C     0.49985   0.38404   0.50000   0.00000  Uiso   1.00
C32    C     0.49965   0.36317   0.62120   0.00000  Uiso   1.00
H5     H     0.49968   0.12158   0.61799   0.00000  Uiso   1.00
H6     H     0.49968   0.19303   0.61703   0.00000  Uiso   1.00
H7     H     0.49950   0.30697   0.71497   0.00000  Uiso   1.00
H8     H     0.50021   0.30697   0.28525   0.00000  Uiso   1.00
C33    C     0.12372   0.49999   0.49999   0.00000  Uiso   1.00
C34    C     0.05896   0.52514   0.41359   0.00000  Uiso   1.00
C35    C     0.05864   0.47486   0.58640   0.00000  Uiso   1.00
C36    C     0.12771   0.54969   0.32919   0.00000  Uiso   1.00
C37    C     0.06687   0.57512   0.24178   0.00000  Uiso   1.00
H9     H     0.21577   0.54901   0.33146   0.00000  Uiso   1.00
C38    C     0.87629   0.50002   0.50000   0.00000  Uiso   1.00
C39    C     0.94105   0.47487   0.58641   0.00000  Uiso   1.00
C40    C     0.94137   0.52515   0.41359   0.00000  Uiso   1.00
C41    C     0.87294   0.54971   0.32919   0.00000  Uiso   1.00
C42    C     0.93410   0.57514   0.24178   0.00000  Uiso   1.00
H10    H     0.78486   0.54906   0.33148   0.00000  Uiso   1.00
C43    C     0.12390   0.00062   0.40405   0.00000  Uiso   1.00
C44    C     0.05892   0.97541   0.49027   0.00000  Uiso   1.00
C45    C     0.05905   0.02569   0.31745   0.00000  Uiso   1.00
C46    C     0.12744   0.95093   0.57486   0.00000  Uiso   1.00
C47    C     0.06638   0.92543   0.66210   0.00000  Uiso   1.00
H11    H     0.21551   0.95169   0.57284   0.00000  Uiso   1.00
C48    C     0.87648   0.00036   0.40334   0.00000  Uiso   1.00
C49    C     0.94146   0.02557   0.31712   0.00000  Uiso   1.00
C50    C     0.94133   0.97528   0.48993   0.00000  Uiso   1.00
C51    C     0.87267   0.95066   0.57413   0.00000  Uiso   1.00
C52    C     0.93360   0.92529   0.66172   0.00000  Uiso   1.00
H12    H     0.78461   0.95122   0.57160   0.00000  Uiso   1.00
O17    O     0.50064   0.88152   0.16777   0.00000  Uiso   1.00
Li1    Li    0.50084   0.86635   0.00486   0.00000  Uiso   1.00
O18    O     0.50063   0.80387   0.16856   0.00000  Uiso   1.00
Li2    Li    0.50067   0.75558   0.12942   0.00000  Uiso   1.00
O19    O     0.49988   0.61848   0.73451   0.00000  Uiso   1.00
Li3    Li    0.49968   0.63365   0.89741   0.00000  Uiso   1.00
O20    O     0.50048   0.61854   0.26550   0.00000  Uiso   1.00
Li4    Li    0.50069   0.63375   0.10263   0.00000  Uiso   1.00
O21    O     0.50042   0.11849   0.16777   0.00000  Uiso   1.00
Li5    Li    0.50069   0.13365   0.00486   0.00000  Uiso   1.00
O22    O     0.50041   0.19614   0.16856   0.00000  Uiso   1.00
Li6    Li    0.50047   0.24442   0.12942   0.00000  Uiso   1.00
O23    O     0.49946   0.38152   0.73451   0.00000  Uiso   1.00
Li7    Li    0.49920   0.36635   0.89741   0.00000  Uiso   1.00
O24    O     0.50023   0.38146   0.26549   0.00000  Uiso   1.00
Li8    Li    0.50050   0.36626   0.10263   0.00000  Uiso   1.00
H13    H     0.78327   0.43242   0.63975   0.00000  Uiso   1.00
H14    H     0.89784   0.44448   0.78347   0.00000  Uiso   1.00
N5     N     0.86757   0.44824   0.67796   0.00000  Uiso   1.00
H15    H     0.21606   0.45922   0.73269   0.00000  Uiso   1.00
H16    H     0.10130   0.41761   0.69051   0.00000  Uiso   1.00
N6     N     0.13179   0.44821   0.67795   0.00000  Uiso   1.00
H17    H     0.22567   0.59042   0.09653   0.00000  Uiso   1.00
H18    H     0.11207   0.63227   0.13796   0.00000  Uiso   1.00
N7     N     0.14146   0.60161   0.15072   0.00000  Uiso   1.00
H19    H     0.77566   0.61731   0.18951   0.00000  Uiso   1.00
H20    H     0.88945   0.60545   0.04501   0.00000  Uiso   1.00
N8     N     0.85985   0.60164   0.15073   0.00000  Uiso   1.00
H21    H     0.78382   0.06786   0.26333   0.00000  Uiso   1.00
H22    H     0.89876   0.05591   0.11993   0.00000  Uiso   1.00
N9     N     0.86821   0.05212   0.22535   0.00000  Uiso   1.00
H23    H     0.21684   0.04148   0.17161   0.00000  Uiso   1.00
H24    H     0.10198   0.08298   0.21347   0.00000  Uiso   1.00
N10    N     0.13243   0.05241   0.22611   0.00000  Uiso   1.00
H25    H     0.22480   0.91029   0.80779   0.00000  Uiso   1.00
H26    H     0.11130   0.86833   0.76604   0.00000  Uiso   1.00
N11    N     0.14072   0.89902   0.75337   0.00000  Uiso   1.00
H27    H     0.77503   0.88296   0.71355   0.00000  Uiso   1.00
H28    H     0.88845   0.89494   0.85836   0.00000  Uiso   1.00
N12    N     0.85912   0.89871   0.75256   0.00000  Uiso   1.00
