# Generated by REPEAT Assigner based on pymatgen
data_DB1-Cu2O8-AZO_A-DPAC_A_No1032
_audit_creation_date              2022-05-24
_audit_creation_method            REPEAT_Assigner
_cell_length_a                    17.372200
_cell_length_b                    34.497600
_cell_length_c                    10.000000
_cell_angle_alpha                 90.000000
_cell_angle_beta                  90.000000
_cell_angle_gamma                 90.096300
_cell_volume                      5992.983602
_symmetry_space_group_name_H-M    P1
_symmetry_Int_Tables_number       1
loop_
    _symmetry_equiv_pos_site_id
    _symmetry_equiv_pos_as_xyz
    1  x,y,z
loop_
    _atom_site_type_symbol
    _atom_site_label
    _atom_site_fract_x
    _atom_site_fract_y
    _atom_site_fract_z
    _atom_type_partial_charge
    Cu  Cu1  0.500000  0.500000  0.627260  1.052717
    Cu  Cu2  0.500010  0.500000  0.372740  1.089632
    O   O1   0.600080  0.499980  0.618700  -0.401275
    O   O2   0.399700  0.499910  0.618660  -0.607287
    O   O3   0.499780  0.449490  0.618680  -0.555238
    O   O4   0.500010  0.550400  0.618680  -0.506801
    O   O5   0.500200  0.550510  0.381320  -0.540855
    O   O6   0.500020  0.449610  0.381320  -0.603006
    O   O7   0.399840  0.499970  0.381300  -0.392930
    O   O8   0.600300  0.500100  0.381340  -0.596437
    C   C1   0.644370  0.500030  0.500020  0.429045
    C   C2   0.355630  0.499970  0.499970  0.443887
    C   C3   0.499900  0.427300  0.500000  0.646881
    C   C4   0.500110  0.572700  0.500000  0.739363
    Cu  Cu3  0.500320  0.000000  0.275020  1.057177
    Cu  Cu4  0.499920  0.000000  0.529530  1.098947
    O   O9   0.600390  0.000200  0.284060  -0.404444
    O   O10  0.400010  0.999920  0.283130  -0.613219
    O   O11  0.500090  0.050510  0.283590  -0.557426
    O   O12  0.500310  0.949610  0.283590  -0.507575
    O   O13  0.500120  0.949490  0.520950  -0.543188
    O   O14  0.499950  0.050400  0.520960  -0.606741
    O   O15  0.399760  0.999860  0.520480  -0.403753
    O   O16  0.600230  0.000070  0.521420  -0.599166
    C   C5   0.644490  0.000210  0.402960  0.439695
    C   C6   0.355750  0.999790  0.401600  0.475011
    C   C7   0.500030  0.072700  0.402280  0.644479
    C   C8   0.500210  0.927300  0.402280  0.730083
    C   C9   0.500210  0.884040  0.402270  -0.476340
    C   C10  0.500110  0.863130  0.523420  -0.003634
    C   C11  0.500100  0.822500  0.523100  -0.219086
    C   C12  0.500200  0.801940  0.401820  0.500709
    C   C13  0.500300  0.822550  0.281220  -0.580436
    C   C14  0.500300  0.863170  0.281080  0.786267
    N   N1   0.500200  0.760320  0.398240  -0.219422
    N   N2   0.500110  0.739680  0.504030  -0.217829
    C   C15  0.500020  0.677450  0.621060  -0.580766
    C   C16  0.500110  0.698060  0.500460  0.497141
    C   C17  0.500210  0.677510  0.379170  -0.217612
    C   C18  0.500210  0.636870  0.378850  0.001714
    C   C19  0.500110  0.615970  0.500000  -0.488395
    C   C20  0.500010  0.636840  0.621200  0.793102
    H   H1   0.500030  0.878420  0.617990  0.148580
    H   H2   0.500030  0.806970  0.617030  0.074147
    H   H3   0.500380  0.806970  0.187310  0.190091
    H   H4   0.499940  0.693030  0.714970  0.189953
    H   H5   0.500290  0.693030  0.285250  0.073828
    H   H6   0.500280  0.621580  0.284280  0.146745
    C   C21  0.500020  0.115970  0.402270  -0.357902
    C   C22  0.499900  0.136870  0.523420  -0.062728
    C   C23  0.499900  0.177510  0.523100  -0.196896
    C   C24  0.500020  0.198060  0.401820  0.492868
    C   C25  0.500150  0.177450  0.281220  -0.546954
    C   C26  0.500150  0.136840  0.281080  0.681631
    N   N3   0.500020  0.239680  0.398240  -0.236703
    N   N4   0.499910  0.260320  0.504030  -0.237419
    C   C27  0.499790  0.322550  0.621050  -0.546269
    C   C28  0.499910  0.301940  0.500460  0.490464
    C   C29  0.500030  0.322500  0.379170  -0.196394
    C   C30  0.500030  0.363130  0.378850  -0.057252
    C   C31  0.499910  0.384040  0.500000  -0.367334
    C   C32  0.499780  0.363170  0.621200  0.687188
    H   H7   0.499800  0.121580  0.617990  0.156250
    H   H8   0.499800  0.193030  0.617030  0.071105
    H   H9   0.500240  0.193030  0.187310  0.174593
    H   H10  0.499690  0.306980  0.714970  0.174313
    H   H11  0.500130  0.306980  0.285250  0.070448
    H   H12  0.500130  0.378420  0.284280  0.154371
    C   C33  0.274060  0.499970  0.499980  -0.112306
    C   C34  0.231680  0.499920  0.621330  -0.030319
    C   C35  0.150620  0.499930  0.621700  -0.275630
    C   C36  0.109540  0.499980  0.500010  0.307353
    C   C37  0.150610  0.500030  0.378300  -0.236424
    C   C38  0.231670  0.500030  0.378650  0.114940
    C   C39  0.034420  0.499990  0.500020  -0.136606
    C   C40  0.965590  0.500000  0.500030  -0.147411
    C   C41  0.890470  0.500000  0.500030  0.318706
    C   C42  0.849390  0.499940  0.621730  -0.234541
    C   C43  0.768330  0.499950  0.621370  0.075372
    C   C44  0.725940  0.500020  0.500030  -0.079697
    C   C45  0.768340  0.500080  0.378690  -0.039955
    C   C46  0.849390  0.500070  0.378330  -0.276977
    H   H13  0.259810  0.499880  0.711280  0.150306
    H   H14  0.122180  0.499890  0.711500  0.192316
    H   H15  0.122160  0.500080  0.288510  0.164453
    H   H16  0.877830  0.499890  0.711520  0.162317
    H   H17  0.740210  0.500130  0.288730  0.154738
    H   H18  0.877840  0.500120  0.288530  0.193435
    C   C47  0.274180  0.001310  0.406070  -0.155222
    C   C48  0.231990  0.001300  0.284520  -0.008114
    C   C49  0.150930  0.001160  0.283750  -0.289106
    C   C50  0.109650  0.001030  0.405240  0.319307
    C   C51  0.150520  0.001050  0.527150  -0.251575
    C   C52  0.231580  0.001190  0.527200  0.145796
    C   C53  0.034530  0.000900  0.404860  -0.139536
    C   C54  0.965700  0.000780  0.404510  -0.144299
    C   C55  0.890580  0.000650  0.404150  0.317229
    C   C56  0.849700  0.000640  0.282260  -0.235701
    C   C57  0.768640  0.000500  0.282220  0.080123
    C   C58  0.726060  0.000360  0.403350  -0.090087
    C   C59  0.768250  0.000370  0.524900  -0.033736
    C   C60  0.849310  0.000510  0.525650  -0.278458
    H   H19  0.260260  0.001390  0.194710  0.145755
    H   H20  0.122640  0.001150  0.193810  0.193788
    H   H21  0.121930  0.000960  0.616800  0.166613
    H   H22  0.878290  0.000750  0.192600  0.162101
    H   H23  0.739980  0.000270  0.614710  0.152661
    H   H24  0.877610  0.000510  0.615580  0.193668
    H   H25  0.538190  0.910170  0.135170  0.467238
    H   H26  0.462710  0.874550  0.066450  0.422680
    N   N5   0.500410  0.884520  0.149260  -1.070331
    H   H27  0.537660  0.589890  0.767290  0.466149
    H   H28  0.462070  0.625390  0.835640  0.422222
    N   N6   0.499900  0.615490  0.753020  -1.070946
    H   H29  0.462530  0.089830  0.134960  0.389049
    H   H30  0.538140  0.125450  0.066660  0.406171
    N   N7   0.500290  0.115490  0.149260  -0.967169
    H   H31  0.461860  0.410110  0.767080  0.388165
    H   H32  0.537330  0.374620  0.835850  0.406053
    N   N8   0.499650  0.384520  0.753020  -0.967660
    S   S1   0.279610  0.500100  0.225310  0.779912
    O   O17  0.314320  0.455780  0.187680  -0.503210
    O   O18  0.226200  0.513060  0.104050  -0.455954
    H   H33  0.364880  0.462050  0.150110  0.404383
    O   O19  0.352960  0.527760  0.227010  -0.459006
    S   S2   0.720380  0.499870  0.774700  0.863619
    O   O20  0.685340  0.455520  0.811790  -0.526204
    O   O21  0.773880  0.512710  0.896120  -0.466084
    H   H34  0.634830  0.461770  0.849430  0.415677
    O   O22  0.647230  0.527550  0.773310  -0.528897
    S   S3   0.279280  0.001200  0.680770  0.770226
    O   O23  0.313940  0.045580  0.718560  -0.502181
    O   O24  0.225670  0.988140  0.801770  -0.455233
    H   H35  0.364430  0.039380  0.756380  0.404769
    O   O25  0.352630  0.973660  0.679420  -0.459732
    S   S4   0.720940  0.000500  0.128650  0.862982
    O   O26  0.685960  0.044790  0.091390  -0.526782
    O   O27  0.774630  0.987750  0.007490  -0.465848
    H   H36  0.635510  0.038460  0.053500  0.415838
    O   O28  0.647790  0.972700  0.129680  -0.528884
