# Generated by REPEAT Assigner based on pymatgen
data_DB1-Zn2O8-AZO_A-fum_A_No166
_audit_creation_date              2022-05-24
_audit_creation_method            REPEAT_Assigner
_cell_length_a                    34.898700
_cell_length_b                    26.339600
_cell_length_c                    10.000000
_cell_angle_alpha                 90.000000
_cell_angle_beta                  90.000000
_cell_angle_gamma                 89.696500
_cell_volume                      9192.049024
_symmetry_space_group_name_H-M    P1
_symmetry_Int_Tables_number       1
loop_
    _symmetry_equiv_pos_site_id
    _symmetry_equiv_pos_as_xyz
    1  x,y,z
loop_
    _atom_site_type_symbol
    _atom_site_label
    _atom_site_fract_x
    _atom_site_fract_y
    _atom_site_fract_z
    _atom_type_partial_charge
    O   O1    0.500460  0.426530  0.365020  -0.559664
    O   O2    0.500080  0.427040  0.636830  -0.658719
    C   C1    0.500250  0.400990  0.501190  0.444917
    Zn  Zn1   0.500110  0.499700  0.334240  1.203713
    O   O3    0.555160  0.500180  0.636200  -0.689032
    O   O4    0.555370  0.499750  0.364380  -0.507736
    C   C2    0.574740  0.499910  0.500260  0.422253
    O   O5    0.499620  0.573490  0.634980  -0.479531
    O   O6    0.499850  0.572970  0.363180  -0.595016
    C   C3    0.499720  0.599030  0.498810  0.368628
    Zn  Zn2   0.499890  0.500310  0.665760  1.264016
    O   O7    0.444840  0.499730  0.363810  -0.511257
    O   O8    0.444640  0.500350  0.635620  -0.686621
    C   C4    0.425260  0.499930  0.499740  0.423230
    O   O9    0.999900  0.425660  0.734270  -0.560499
    O   O10   0.000280  0.425300  0.462470  -0.658465
    C   C5    0.000230  0.399680  0.598680  0.444339
    Zn  Zn3   0.999910  0.498930  0.763440  1.206231
    O   O11   0.944860  0.498760  0.461480  -0.694542
    O   O12   0.944650  0.499200  0.733300  -0.510802
    C   C6    0.925280  0.499040  0.597420  0.424752
    O   O13   0.000060  0.571750  0.461080  -0.474982
    O   O14   0.999830  0.572100  0.732890  -0.591696
    C   C7    0.999840  0.597720  0.596690  0.363729
    Zn  Zn4   0.000130  0.498480  0.431910  1.265818
    O   O15   0.055180  0.498540  0.733880  -0.513862
    O   O16   0.055380  0.498290  0.462060  -0.690947
    C   C8    0.074760  0.498190  0.597950  0.424591
    O   O17   0.499840  0.911170  0.739760  -0.559140
    O   O18   0.499930  0.910660  0.467960  -0.659892
    C   C9    0.499840  0.936710  0.603600  0.445474
    Zn  Zn5   0.499530  0.838000  0.770540  1.205700
    O   O19   0.555090  0.836860  0.469730  -0.693449
    O   O20   0.554840  0.837300  0.741540  -0.510222
    C   C10   0.574440  0.836910  0.606070  0.420887
    O   O21   0.499640  0.764220  0.469790  -0.478838
    O   O22   0.499410  0.764730  0.741600  -0.594176
    C   C11   0.499540  0.738680  0.605970  0.367537
    Zn  Zn6   0.499880  0.837390  0.439020  1.268192
    O   O23   0.444320  0.838630  0.739830  -0.514959
    O   O24   0.444570  0.838000  0.468020  -0.688943
    C   C12   0.424970  0.838660  0.603490  0.424311
    O   O25   0.998260  0.909090  0.348850  -0.558218
    O   O26   0.998170  0.909440  0.620660  -0.653188
    C   C13   0.998140  0.935070  0.484450  0.452846
    Zn  Zn7   0.998910  0.835820  0.319690  1.211969
    O   O27   0.943350  0.835970  0.620510  -0.688400
    O   O28   0.943610  0.835540  0.348700  -0.514709
    C   C14   0.924000  0.835690  0.484180  0.432792
    O   O29   0.999150  0.763000  0.622050  -0.470081
    O   O30   0.999380  0.762650  0.350250  -0.597645
    C   C15   0.999370  0.737030  0.486450  0.353351
    Zn  Zn8   0.998570  0.836270  0.651220  1.237512
    O   O31   0.054130  0.836230  0.350390  -0.512970
    O   O32   0.053870  0.836470  0.622210  -0.673351
    C   C16   0.073480  0.836580  0.486720  0.443580
    C   C17   0.882510  0.499160  0.597490  0.017164
    C   C18   0.861830  0.499030  0.476370  -0.245566
    C   C19   0.821660  0.499150  0.476760  -0.260179
    C   C20   0.801360  0.499400  0.598080  0.527026
    C   C21   0.821750  0.499530  0.718640  -0.625022
    C   C22   0.861900  0.499420  0.718720  0.626912
    N   N1    0.760220  0.499530  0.601720  -0.233090
    N   N2    0.739800  0.499420  0.495960  -0.234288
    C   C23   0.678270  0.499410  0.379040  -0.627814
    C   C24   0.698660  0.499550  0.499600  0.528510
    C   C25   0.678350  0.499800  0.620920  -0.261783
    C   C26   0.638190  0.499920  0.621300  -0.241181
    C   C27   0.617510  0.499780  0.500190  0.012589
    C   C28   0.638120  0.499530  0.378960  0.631044
    H   H1    0.876930  0.498840  0.381780  0.176673
    H   H2    0.806310  0.499050  0.382860  0.062892
    H   H3    0.806360  0.499730  0.812580  0.115706
    H   H4    0.693660  0.499220  0.285100  0.116760
    H   H5    0.693710  0.499900  0.714820  0.063356
    H   H6    0.623090  0.500110  0.715890  0.174527
    C   C29   0.117530  0.498430  0.597890  0.017340
    C   C30   0.138180  0.498270  0.476710  -0.244231
    C   C31   0.178340  0.498500  0.476980  -0.262164
    C   C32   0.198670  0.498890  0.598240  0.531374
    C   C33   0.178310  0.499050  0.718860  -0.629439
    C   C34   0.138170  0.498830  0.719050  0.627821
    N   N3    0.239820  0.499130  0.601750  -0.234856
    N   N4    0.260200  0.499000  0.495940  -0.234353
    C   C35   0.321710  0.499070  0.378830  -0.630430
    C   C36   0.301350  0.499240  0.499450  0.531331
    C   C37   0.321680  0.499630  0.620710  -0.263149
    C   C38   0.361840  0.499860  0.620970  -0.241091
    C   C39   0.382500  0.499690  0.499800  0.012388
    C   C40   0.361850  0.499300  0.378630  0.631808
    H   H7    0.123050  0.497970  0.382170  0.176343
    H   H8    0.193680  0.498370  0.383030  0.063076
    H   H9    0.193720  0.499350  0.812750  0.117079
    H   H10   0.306300  0.498770  0.284940  0.117276
    H   H11   0.306340  0.499760  0.714650  0.063826
    H   H12   0.376970  0.500160  0.715520  0.174764
    C   C41   0.499570  0.682780  0.608390  0.069476
    C   C42   0.499680  0.654930  0.496390  0.066941
    C   C43   0.499870  0.993380  0.603030  0.012242
    C   C44   0.500060  0.020580  0.481600  -0.267760
    C   C45   0.500090  0.073790  0.481390  -0.244029
    C   C46   0.499940  0.100900  0.602400  0.547151
    C   C47   0.499750  0.074080  0.723260  -0.622354
    C   C48   0.499720  0.020890  0.723940  0.601078
    N   N5    0.499970  0.155410  0.605420  -0.252584
    N   N6    0.500130  0.182290  0.499360  -0.255273
    C   C49   0.500340  0.263620  0.381520  -0.621244
    C   C50   0.500160  0.236800  0.502380  0.547646
    C   C51   0.500000  0.263900  0.623400  -0.244290
    C   C52   0.500040  0.317120  0.623180  -0.265828
    C   C53   0.500220  0.344320  0.501760  0.009477
    C   C54   0.500370  0.316810  0.380840  0.601598
    H   H13   0.500180  0.000410  0.387240  0.171947
    H   H14   0.500230  0.093990  0.387260  0.061788
    H   H15   0.499640  0.094620  0.816970  0.115480
    H   H16   0.500460  0.243080  0.287810  0.115416
    H   H17   0.499860  0.243710  0.717520  0.061598
    H   H18   0.499920  0.337290  0.717540  0.171677
    C   C55   0.999600  0.681120  0.485260  0.083557
    C   C56   0.999610  0.653630  0.597880  0.062599
    C   C57   0.002520  0.991750  0.505840  0.012484
    C   C58   0.002200  0.019340  0.626660  -0.268824
    C   C59   0.001920  0.072560  0.625700  -0.236392
    C   C60   0.001950  0.099270  0.504090  0.546202
    C   C61   0.002260  0.072070  0.383820  -0.611707
    C   C62   0.002540  0.018880  0.384320  0.579586
    N   N7    0.001670  0.153780  0.499870  -0.255254
    N   N8    0.001380  0.180990  0.605330  -0.255968
    C   C63   0.000780  0.262700  0.721380  -0.620961
    C   C64   0.001090  0.235500  0.601100  0.547029
    C   C65   0.001120  0.262210  0.479500  -0.240865
    C   C66   0.000840  0.315430  0.478540  -0.270449
    C   C67   0.000530  0.343020  0.599360  0.014563
    C   C68   0.000500  0.315890  0.720880  0.596738
    H   H19   0.002180  0.999480  0.721460  0.170595
    H   H20   0.001690  0.093050  0.719380  0.062548
    H   H21   0.002280  0.092310  0.289670  0.110907
    H   H22   0.000760  0.242460  0.815530  0.116748
    H   H23   0.001360  0.241720  0.385820  0.062440
    H   H24   0.000860  0.335290  0.383740  0.172551
    C   C69   0.882380  0.833990  0.515220  0.041326
    C   C70   0.861490  0.834370  0.635900  -0.258153
    C   C71   0.821320  0.834730  0.634680  -0.244852
    C   C72   0.801230  0.834720  0.512950  0.520671
    C   C73   0.821820  0.834340  0.392810  -0.611046
    C   C74   0.861970  0.833980  0.393560  0.589938
    N   N9    0.760090  0.835080  0.508450  -0.231345
    N   N10   0.739500  0.835430  0.613790  -0.236920
    C   C75   0.677770  0.836170  0.729430  -0.623372
    C   C76   0.698360  0.835800  0.609290  0.527149
    C   C77   0.678260  0.835780  0.487560  -0.258340
    C   C78   0.638100  0.836140  0.486340  -0.248103
    C   C79   0.617210  0.836520  0.607020  0.023329
    C   C80   0.637620  0.836530  0.728680  0.621378
    H   H25   0.876430  0.834390  0.730800  0.174790
    H   H26   0.805810  0.835020  0.728260  0.064314
    H   H27   0.806590  0.834330  0.298550  0.108285
    H   H28   0.692990  0.836180  0.823690  0.116137
    H   H29   0.693780  0.835500  0.393980  0.063068
    H   H30   0.623160  0.836130  0.391440  0.176809
    C   C81   0.117400  0.843810  0.498970  -0.018694
    C   C82   0.137840  0.843730  0.620570  -0.237101
    C   C83   0.178010  0.843030  0.621140  -0.255793
    C   C84   0.198550  0.842390  0.500300  0.527066
    C   C85   0.178390  0.842470  0.379260  -0.633094
    C   C86   0.138250  0.843170  0.378230  0.644035
    N   N11   0.239690  0.841660  0.497640  -0.231588
    N   N12   0.259900  0.841550  0.603880  -0.236004
    C   C87   0.321210  0.840750  0.722250  -0.631656
    C   C88   0.301050  0.840820  0.601210  0.529939
    C   C89   0.321590  0.840190  0.480380  -0.262738
    C   C90   0.361750  0.839490  0.480950  -0.240312
    C   C91   0.382200  0.839400  0.602550  0.013477
    C   C92   0.361350  0.840040  0.723280  0.632345
    H   H31   0.122560  0.844210  0.714800  0.171326
    H   H32   0.193180  0.842980  0.715390  0.062376
    H   H33   0.193960  0.841980  0.285690  0.116536
    H   H34   0.305640  0.841230  0.815820  0.117118
    H   H35   0.306410  0.840240  0.386120  0.062332
    H   H36   0.377040  0.839000  0.386720  0.174881
    O   O33   0.880050  0.499540  0.832000  -0.865881
    Li  Li1   0.865080  0.499850  0.994930  0.888451
    O   O34   0.619970  0.499400  0.265680  -0.866984
    Li  Li2   0.634940  0.499100  0.102750  0.888374
    O   O35   0.120040  0.498980  0.832390  -0.865913
    Li  Li3   0.135040  0.499440  0.995270  0.888892
    O   O36   0.379980  0.499140  0.265300  -0.866737
    Li  Li4   0.364980  0.498680  0.102420  0.888436
    O   O37   0.499550  0.997020  0.837500  -0.850044
    Li  Li5   0.499340  0.017120  0.000200  0.884521
    O   O38   0.500540  0.340680  0.267280  -0.849949
    Li  Li6   0.500760  0.320580  0.104590  0.884342
    O   O39   0.002820  0.994640  0.271300  -0.841363
    Li  Li7   0.002940  0.014230  0.108160  0.882509
    O   O40   0.000220  0.340120  0.833900  -0.846798
    Li  Li8   0.000100  0.320540  0.997040  0.883280
    O   O41   0.880320  0.833640  0.280660  -0.845974
    Li  Li9   0.865620  0.833510  0.117430  0.885184
    O   O42   0.619270  0.836880  0.841580  -0.864204
    Li  Li10  0.633960  0.837000  0.004820  0.888371
    O   O43   0.120310  0.843230  0.264520  -0.875335
    Li  Li11  0.135590  0.842590  0.101960  0.888727
    O   O44   0.379290  0.839990  0.836990  -0.866872
    Li  Li12  0.364000  0.840630  0.999560  0.888923
    Br  Br1   0.499440  0.647200  0.793770  -0.030531
    Br  Br2   0.499820  0.690500  0.311000  -0.029972
    Br  Br3   0.999900  0.644960  0.300670  -0.037436
    Br  Br4   0.999310  0.689790  0.782470  -0.031577
