# Generated by REPEAT Assigner based on pymatgen
data_DB1-Zn2O8N2-BDC_A-DPAC_A_No256
_audit_creation_date              2022-05-24
_audit_creation_method            REPEAT_Assigner
_cell_length_a                    28.473500
_cell_length_b                    10.900600
_cell_length_c                    10.017000
_cell_angle_alpha                 90.035800
_cell_angle_beta                  89.870200
_cell_angle_gamma                 89.866600
_cell_volume                      3109.041749
_symmetry_space_group_name_H-M    P1
_symmetry_Int_Tables_number       1
loop_
    _symmetry_equiv_pos_site_id
    _symmetry_equiv_pos_as_xyz
    1  x,y,z
loop_
    _atom_site_type_symbol
    _atom_site_label
    _atom_site_fract_x
    _atom_site_fract_y
    _atom_site_fract_z
    _atom_type_partial_charge
    O   O1   0.500310  0.323080  0.635570  -0.535070
    O   O2   0.500070  0.323100  0.364220  -0.556003
    C   C1   0.500120  0.260750  0.499920  0.483717
    Zn  Zn1  0.500000  0.500020  0.665480  0.956501
    O   O3   0.567720  0.499970  0.364040  -0.598679
    O   O4   0.567750  0.500140  0.635400  -0.601839
    C   C2   0.591610  0.499970  0.499750  0.486790
    O   O5   0.499790  0.676960  0.364430  -0.531614
    O   O6   0.499850  0.676940  0.635780  -0.552937
    C   C3   0.499850  0.739280  0.500080  0.475530
    Zn  Zn2  0.500000  0.500010  0.334510  0.967693
    O   O7   0.432290  0.499810  0.635960  -0.582209
    O   O8   0.432260  0.500100  0.364600  -0.590099
    C   C4   0.408400  0.499640  0.500250  0.500004
    O   O9   0.117010  0.320930  0.364580  -0.538481
    O   O10  0.117240  0.321180  0.635920  -0.561866
    C   C5   0.117240  0.258720  0.500200  0.488943
    Zn  Zn3  0.117170  0.497850  0.334730  0.956656
    O   O11  0.049440  0.498500  0.636150  -0.602127
    O   O12  0.049420  0.498440  0.364790  -0.601519
    C   C6   0.025560  0.498540  0.500430  0.485346
    O   O13  0.117230  0.675040  0.635850  -0.531486
    O   O14  0.117180  0.674790  0.364500  -0.553632
    C   C7   0.117120  0.737250  0.500220  0.472534
    Zn  Zn4  0.117160  0.498120  0.665700  0.979453
    O   O15  0.184880  0.497220  0.364270  -0.585177
    O   O16  0.184900  0.497730  0.635630  -0.593506
    C   C8   0.208770  0.497010  0.499990  0.501858
    N   N1   0.500000  0.500020  0.860170  -0.040646
    N   N2   0.500010  0.500010  0.139830  -0.063919
    C   C9   0.470110  0.577730  0.930820  0.101071
    C   C10  0.529900  0.422300  0.069180  0.144711
    C   C11  0.470120  0.577720  0.069680  -0.062164
    C   C12  0.529900  0.422310  0.930310  -0.091993
    H   H1   0.449400  0.631590  0.117770  0.165062
    H   H2   0.550610  0.368440  0.882230  0.173158
    C   C13  0.499920  0.871520  0.500040  -0.067051
    C   C14  0.500050  0.128510  0.499960  -0.078666
    C   C15  0.499920  0.936110  0.380280  0.168349
    C   C16  0.500040  0.063920  0.619720  0.180281
    C   C17  0.499990  0.063720  0.380250  -0.211143
    C   C18  0.499980  0.936310  0.619760  -0.220630
    H   H3   0.499990  0.107680  0.297230  0.159350
    H   H4   0.499970  0.892360  0.702770  0.158358
    C   C19  0.975790  0.498700  0.500350  0.081870
    C   C20  0.950050  0.498730  0.379170  -0.181369
    C   C21  0.900600  0.498890  0.378730  -0.161175
    C   C22  0.875410  0.499010  0.500180  -0.008525
    C   C23  0.900350  0.498970  0.621710  0.522783
    C   C24  0.949810  0.498820  0.621440  -0.364632
    C   C25  0.829580  0.499160  0.500100  -0.059870
    C   C26  0.787590  0.499300  0.500030  -0.060921
    C   C27  0.741750  0.499450  0.499970  -0.006596
    C   C28  0.716810  0.499450  0.378440  0.522273
    C   C29  0.667360  0.499620  0.378720  -0.363797
    C   C30  0.641370  0.499790  0.499820  0.077378
    C   C31  0.667120  0.499780  0.620990  -0.178779
    C   C32  0.716580  0.499610  0.621420  -0.162527
    H   H5   0.967300  0.498650  0.289400  0.139941
    H   H6   0.883330  0.498910  0.289060  0.141461
    H   H7   0.966880  0.498790  0.711270  0.206590
    H   H8   0.650280  0.499620  0.288900  0.206371
    H   H9   0.649870  0.499900  0.710770  0.139257
    H   H10  0.733840  0.499610  0.711090  0.141845
    C   C33  0.357770  0.498970  0.500180  -0.052323
    C   C34  0.259390  0.497670  0.500060  -0.055138
    C   C35  0.332890  0.498520  0.619890  0.139899
    C   C36  0.284270  0.498130  0.380350  0.143003
    C   C37  0.284040  0.497870  0.619820  -0.202201
    C   C38  0.333120  0.498780  0.380410  -0.206350
    H   H11  0.267110  0.497560  0.702800  0.148235
    H   H12  0.350060  0.499090  0.297430  0.149043
    N   N3   0.117170  0.497690  0.140040  -0.038668
    N   N4   0.117180  0.497450  0.860380  -0.071823
    C   C39  0.147000  0.575140  0.069430  0.103792
    C   C40  0.087350  0.419990  0.930990  0.153125
    C   C41  0.147010  0.575020  0.930570  -0.058539
    C   C42  0.087350  0.420110  0.069860  -0.096741
    H   H13  0.167680  0.628720  0.882510  0.164857
    H   H14  0.066670  0.366420  0.117920  0.174029
    C   C43  0.116950  0.869490  0.500310  -0.059243
    C   C44  0.116600  0.126480  0.500490  -0.081241
    C   C45  0.116880  0.934180  0.620090  0.166012
    C   C46  0.116670  0.061790  0.380710  0.183777
    C   C47  0.116710  0.061790  0.620180  -0.210819
    C   C48  0.116840  0.934180  0.380620  -0.227759
    H   H15  0.116670  0.105820  0.703220  0.161095
    H   H16  0.116880  0.890150  0.297590  0.160009
    C   C49  0.436610  0.664840  0.853620  -0.216496
    H   H17  0.443510  0.748370  0.876640  0.087184
    H   H18  0.440920  0.653350  0.759360  0.128417
    H   H19  0.404670  0.646670  0.877130  0.089718
    C   C50  0.563410  0.335190  0.146380  -0.245513
    H   H20  0.595350  0.353600  0.123170  0.082261
    H   H21  0.558990  0.346410  0.240640  0.143497
    H   H22  0.556600  0.251670  0.123050  0.090935
    C   C51  0.499860  0.864800  0.246080  -0.228946
    H   H23  0.527420  0.885640  0.195680  0.036743
    H   H24  0.499740  0.778230  0.263620  0.139118
    H   H25  0.472360  0.886450  0.195960  0.036108
    C   C52  0.500110  0.135230  0.753920  -0.238250
    H   H26  0.527670  0.113870  0.803860  0.033819
    H   H27  0.500080  0.221800  0.736390  0.137262
    H   H28  0.472620  0.114120  0.804490  0.045956
    C   C53  0.360020  0.498730  0.754150  -0.188846
    H   H29  0.352090  0.426570  0.804160  0.034716
    H   H30  0.393190  0.499380  0.736690  0.153363
    H   H31  0.351570  0.570380  0.804620  0.023020
    C   C54  0.257140  0.497910  0.246090  -0.190892
    H   H32  0.265490  0.426080  0.195790  0.034996
    H   H33  0.223980  0.497640  0.263550  0.154846
    H   H34  0.265190  0.569890  0.195900  0.023632
    C   C55  0.180440  0.662100  0.146670  -0.232979
    H   H35  0.173470  0.745660  0.123680  0.091123
    H   H36  0.176130  0.650720  0.240930  0.134833
    H   H37  0.212390  0.643700  0.123170  0.093811
    C   C56  0.053920  0.333040  0.853750  -0.255848
    H   H38  0.021960  0.351680  0.876950  0.084586
    H   H39  0.058330  0.344160  0.759500  0.147370
    H   H40  0.060790  0.249500  0.877050  0.093040
    C   C57  0.117000  0.862980  0.754270  -0.233070
    H   H41  0.089420  0.884040  0.804670  0.037837
    H   H42  0.117190  0.776390  0.736700  0.139323
    H   H43  0.144480  0.884480  0.804400  0.037005
    C   C58  0.116550  0.132990  0.246540  -0.238689
    H   H44  0.089000  0.111770  0.196580  0.033464
    H   H45  0.116510  0.219580  0.264100  0.138337
    H   H46  0.144060  0.111650  0.195960  0.045929
    H   H47  0.843600  0.559390  0.768440  0.397057
    H   H48  0.886820  0.438900  0.836100  0.398766
    N   N5   0.874650  0.499100  0.753740  -1.022533
    H   H49  0.773510  0.559350  0.231710  0.396910
    H   H50  0.730390  0.439070  0.164040  0.398717
    N   N6   0.742510  0.499270  0.246400  -1.022155
