# Generated by REPEAT Assigner based on pymatgen
data_DB1-Cu2O8N2-ADC_A-irmof6_A_No139
_audit_creation_date              2022-05-24
_audit_creation_method            REPEAT_Assigner
_cell_length_a                    15.849400
_cell_length_b                    17.521800
_cell_length_c                    10.804600
_cell_angle_alpha                 89.921600
_cell_angle_beta                  87.674800
_cell_angle_gamma                 95.290000
_cell_volume                      2985.266397
_symmetry_space_group_name_H-M    P1
_symmetry_Int_Tables_number       1
loop_
    _symmetry_equiv_pos_site_id
    _symmetry_equiv_pos_as_xyz
    1  x,y,z
loop_
    _atom_site_type_symbol
    _atom_site_label
    _atom_site_fract_x
    _atom_site_fract_y
    _atom_site_fract_z
    _atom_type_partial_charge
    Cu  Cu1  0.419400  0.497030  0.504810  0.870771
    Cu  Cu2  0.580600  0.502960  0.495210  0.924616
    O   O1   0.424830  0.497290  0.665410  -0.498425
    O   O2   0.424850  0.497400  0.343230  -0.568932
    O   O3   0.430560  0.597020  0.503840  -0.510848
    O   O4   0.419120  0.397670  0.504800  -0.437682
    O   O5   0.569430  0.402970  0.496140  -0.535245
    O   O6   0.580870  0.602320  0.495260  -0.475923
    O   O7   0.575170  0.502810  0.334470  -0.529559
    O   O8   0.575140  0.502560  0.656790  -0.539930
    C   C1   0.499990  0.499940  0.732130  0.582441
    C   C2   0.500010  0.500050  0.267880  0.587906
    C   C3   0.508240  0.643630  0.499420  0.542045
    C   C4   0.491760  0.356360  0.500600  0.495596
    N   N1   0.299620  0.492630  0.511940  -0.129696
    C   C5   0.256760  0.539950  0.435290  -0.045193
    C   C6   0.168050  0.536760  0.440460  -0.242193
    C   C7   0.119570  0.485930  0.522800  0.135257
    C   C8   0.162570  0.438730  0.599230  -0.076621
    C   C9   0.251200  0.441960  0.594010  0.234115
    C   C10  0.024950  0.479420  0.533330  -0.181156
    C   C11  0.975050  0.520580  0.466660  -0.219886
    C   C12  0.837420  0.561260  0.400770  -0.432254
    C   C13  0.880430  0.514070  0.477210  0.319854
    C   C14  0.831950  0.463240  0.559550  -0.440280
    C   C15  0.743240  0.460040  0.564720  0.351264
    N   N2   0.700380  0.507360  0.488080  -0.331321
    C   C16  0.748790  0.558040  0.406000  0.380033
    H   H1   0.292410  0.579480  0.371260  0.153578
    H   H2   0.138850  0.574380  0.379520  0.136628
    H   H3   0.872580  0.600960  0.336470  0.149946
    H   H4   0.861150  0.425610  0.620490  0.161200
    H   H5   0.996220  0.438180  0.600140  0.177239
    H   H6   0.003780  0.561830  0.399850  0.150799
    C   C17  0.486850  0.270840  0.500850  -0.117870
    C   C18  0.561060  0.232340  0.496600  -0.133899
    C   C19  0.556560  0.152120  0.496830  -0.200023
    C   C20  0.477360  0.108020  0.501340  0.107963
    C   C21  0.403350  0.146640  0.505580  0.020293
    C   C22  0.407900  0.226790  0.505340  0.042483
    C   C23  0.467710  0.022450  0.501860  -0.183180
    C   C24  0.532320  0.977550  0.498160  -0.223817
    C   C25  0.596670  0.853340  0.494440  -0.400777
    C   C26  0.522670  0.891970  0.498680  0.295197
    C   C27  0.443460  0.847870  0.503190  -0.408802
    C   C28  0.438950  0.767650  0.503420  0.307964
    C   C29  0.513160  0.729150  0.499170  -0.369926
    C   C30  0.592110  0.773200  0.494670  0.286932
    H   H7   0.622660  0.264790  0.493100  0.143032
    H   H8   0.615530  0.125930  0.493460  0.130224
    H   H9   0.658540  0.885340  0.490920  0.149003
    H   H10  0.384490  0.874060  0.506560  0.159712
    H   H11  0.403390  0.996250  0.505520  0.169207
    H   H12  0.596650  0.003740  0.494490  0.148761
    C   C31  0.500010  0.500020  0.135140  -0.089662
    C   C32  0.500000  0.499970  0.864870  -0.250501
    C   C33  0.566890  0.502360  0.063460  0.043575
    C   C34  0.433120  0.497640  0.936550  0.127950
    C   C35  0.566880  0.502330  0.928570  0.134697
    C   C36  0.433120  0.497660  0.071440  -0.195778
    C   C37  0.662000  0.505690  0.054920  -0.073756
    C   C38  0.662000  0.505670  0.925770  -0.104793
    H   H13  0.370670  0.495510  0.117450  0.102249
    H   H14  0.692970  0.556930  0.098560  0.057420
    H   H15  0.686480  0.456450  0.099850  0.033845
    H   H16  0.686990  0.456390  0.878790  0.066380
    H   H17  0.692440  0.556840  0.877570  0.042612
    C   C39  0.295900  0.388760  0.680170  -0.532980
    H   H18  0.277850  0.336230  0.662590  0.154125
    H   H19  0.356220  0.397580  0.666160  0.173595
    H   H20  0.281290  0.399600  0.765020  0.168902
    C   C40  0.112170  0.381830  0.691400  -0.100694
    H   H21  0.128130  0.394000  0.774350  0.052115
    H   H22  0.052510  0.385790  0.684720  0.023831
    H   H23  0.124690  0.330500  0.672140  0.050249
    C   C41  0.692140  0.403360  0.656520  -0.226895
    H   H24  0.707830  0.415450  0.739610  0.050953
    H   H25  0.632580  0.407650  0.649320  0.121013
    H   H26  0.704390  0.351940  0.637410  0.060187
    C   C42  0.704080  0.611230  0.319850  -0.318227
    H   H27  0.718490  0.600240  0.234990  0.074450
    H   H28  0.643780  0.602580  0.334130  0.131199
    H   H29  0.722330  0.663760  0.337170  0.105830
    C   C43  0.324510  0.266920  0.510120  -0.103534
    H   H30  0.292030  0.252050  0.584610  0.054404
    H   H31  0.337820  0.321490  0.509190  0.050970
    H   H32  0.292090  0.252030  0.439510  0.038286
    C   C44  0.314670  0.100770  0.510620  -0.231278
    H   H33  0.284060  0.113530  0.439730  0.088046
    H   H34  0.321310  0.046860  0.510410  0.059740
    H   H35  0.283790  0.113540  0.584840  0.075227
    C   C45  0.350630  0.721140  0.508440  -0.227167
    H   H36  0.319890  0.733660  0.437560  0.045273
    H   H37  0.357780  0.667330  0.508200  0.119376
    H   H38  0.319610  0.733670  0.582670  0.051340
    C   C46  0.675500  0.733060  0.489900  -0.156713
    H   H39  0.707800  0.747770  0.560700  0.039711
    H   H40  0.662180  0.678490  0.490450  0.074479
    H   H41  0.708090  0.748110  0.415590  0.035887
    C   C47  0.343910  0.494480  0.881480  -0.044089
    H   H42  0.316190  0.538370  0.908410  0.008463
    H   H43  0.349600  0.494530  0.792680  0.049262
    H   H44  0.310770  0.448580  0.909300  0.009805
