# Generated by REPEAT Assigner based on pymatgen
data_DB1-Zn2O8-irmof14_A-irmof8_A_No24
_audit_creation_date              2022-05-24
_audit_creation_method            REPEAT_Assigner
_cell_length_a                    30.195200
_cell_length_b                    28.287900
_cell_length_c                    10.000000
_cell_angle_alpha                 90.000000
_cell_angle_beta                  90.000000
_cell_angle_gamma                 89.715900
_cell_volume                      8541.482977
_symmetry_space_group_name_H-M    P1
_symmetry_Int_Tables_number       1
loop_
    _symmetry_equiv_pos_site_id
    _symmetry_equiv_pos_as_xyz
    1  x,y,z
loop_
    _atom_site_type_symbol
    _atom_site_label
    _atom_site_fract_x
    _atom_site_fract_y
    _atom_site_fract_z
    _atom_type_partial_charge
    O   O1    0.500510  0.431790  0.364220  -0.620398
    O   O2    0.500080  0.431870  0.636030  -0.608500
    C   C1    0.500270  0.407810  0.500110  0.384653
    Zn  Zn1   0.500120  0.499970  0.334230  1.283287
    O   O3    0.563750  0.499980  0.636180  -0.625542
    O   O4    0.563990  0.499970  0.364370  -0.613910
    C   C2    0.586380  0.499920  0.500240  0.373812
    O   O5    0.499580  0.568230  0.635780  -0.554624
    O   O6    0.499840  0.568150  0.363970  -0.596226
    C   C3    0.499690  0.592210  0.499890  0.362714
    Zn  Zn2   0.499880  0.500050  0.665770  1.266248
    O   O7    0.436250  0.499940  0.363820  -0.616701
    O   O8    0.436020  0.500120  0.635630  -0.623521
    C   C4    0.413620  0.499930  0.499760  0.373821
    O   O9    0.999860  0.430670  0.635780  -0.621405
    O   O10   0.000290  0.430740  0.363980  -0.609136
    C   C5    0.000230  0.406680  0.499900  0.386014
    Zn  Zn3   0.999890  0.498850  0.665750  1.285000
    O   O11   0.936260  0.499130  0.363800  -0.626393
    O   O12   0.936020  0.499140  0.635620  -0.614832
    C   C6    0.913630  0.499190  0.499740  0.371349
    O   O13   0.000070  0.567090  0.364190  -0.553031
    O   O14   0.999810  0.567030  0.635990  -0.595963
    C   C7    0.999830  0.591080  0.500070  0.360872
    Zn  Zn4   0.000130  0.498920  0.334220  1.267058
    O   O15   0.063760  0.498540  0.636170  -0.617574
    O   O16   0.063990  0.498710  0.364350  -0.624109
    C   C8    0.086390  0.498420  0.500230  0.369892
    O   O17   0.499930  0.034520  0.635720  -0.620721
    O   O18   0.500030  0.034440  0.363910  -0.609049
    C   C9    0.499930  0.058500  0.499830  0.389833
    Zn  Zn5   0.499560  0.966340  0.665700  1.283995
    O   O19   0.563770  0.965730  0.364860  -0.625105
    O   O20   0.563480  0.965740  0.636680  -0.613930
    C   C10   0.586140  0.965580  0.501200  0.367433
    O   O21   0.499660  0.898090  0.364150  -0.554068
    O   O22   0.499400  0.898160  0.635960  -0.597153
    C   C11   0.499540  0.874100  0.500040  0.365481
    Zn  Zn6   0.499950  0.966260  0.334170  1.265950
    O   O23   0.435750  0.966970  0.635000  -0.616852
    O   O24   0.436030  0.966790  0.363190  -0.622594
    C   C12   0.413380  0.967190  0.498670  0.367541
    O   O25   0.997220  0.033400  0.364130  -0.621796
    O   O26   0.997130  0.033330  0.635940  -0.610011
    C   C13   0.997090  0.057390  0.500010  0.407346
    Zn  Zn7   0.997960  0.965220  0.334170  1.283516
    O   O27   0.933750  0.964910  0.635000  -0.637786
    O   O28   0.934040  0.964900  0.363190  -0.619498
    C   C14   0.911380  0.964840  0.498670  0.366402
    O   O29   0.998220  0.896970  0.635730  -0.553158
    O   O30   0.998480  0.897040  0.363930  -0.597025
    C   C15   0.998470  0.872980  0.499850  0.353472
    Zn  Zn8   0.997570  0.965150  0.665700  1.265761
    O   O31   0.061770  0.965560  0.364860  -0.612914
    O   O32   0.061480  0.965380  0.636670  -0.614860
    C   C16   0.084140  0.965680  0.501190  0.403863
    C   C17   0.654950  0.499770  0.619260  -0.364396
    C   C18   0.701290  0.499670  0.613360  0.167203
    C   C19   0.726930  0.499610  0.729520  -0.218993
    H   H1    0.640500  0.499800  0.701460  0.209289
    H   H2    0.712370  0.499640  0.811720  0.148670
    C   C20   0.654910  0.499770  0.381010  -0.368372
    C   C21   0.701250  0.499660  0.386780  0.172018
    C   C22   0.726850  0.499600  0.270530  -0.221617
    H   H3    0.640440  0.499800  0.298860  0.207475
    H   H4    0.712260  0.499630  0.188380  0.150494
    C   C23   0.845060  0.499340  0.380720  -0.366458
    C   C24   0.798720  0.499440  0.386630  0.165677
    C   C25   0.773080  0.499500  0.270460  -0.217446
    H   H5    0.859510  0.499310  0.298530  0.210253
    H   H6    0.787640  0.499460  0.188270  0.148213
    C   C26   0.845100  0.499340  0.618970  -0.371555
    C   C27   0.798760  0.499450  0.613210  0.171737
    C   C28   0.773160  0.499510  0.729450  -0.220926
    H   H7    0.859570  0.499310  0.701120  0.208812
    H   H8    0.787750  0.499470  0.811600  0.150533
    C   C29   0.630680  0.499820  0.500170  0.324085
    C   C30   0.728140  0.499600  0.500030  0.017969
    C   C31   0.869330  0.499290  0.499810  0.329483
    C   C32   0.771870  0.499510  0.499960  0.019541
    C   C33   0.345100  0.499690  0.618980  -0.361925
    C   C34   0.298760  0.499470  0.613210  0.161115
    C   C35   0.273150  0.499430  0.729450  -0.215338
    H   H9    0.359570  0.499810  0.701130  0.209040
    H   H10   0.287740  0.499560  0.811600  0.148036
    C   C36   0.345060  0.499530  0.380730  -0.368757
    C   C37   0.298720  0.499320  0.386630  0.169343
    C   C38   0.273080  0.499130  0.270460  -0.220354
    H   H11   0.359510  0.499540  0.298540  0.207850
    H   H12   0.287650  0.499140  0.188270  0.150376
    C   C39   0.154920  0.498650  0.381010  -0.372456
    C   C40   0.201260  0.498870  0.386770  0.170048
    C   C41   0.226860  0.498910  0.270530  -0.219042
    H   H13   0.140440  0.498530  0.298860  0.211922
    H   H14   0.212270  0.498790  0.188380  0.148591
    C   C42   0.154950  0.498810  0.619250  -0.377822
    C   C43   0.201290  0.499020  0.613350  0.177537
    C   C44   0.226930  0.499220  0.729520  -0.223658
    H   H15   0.140500  0.498800  0.701450  0.210384
    H   H16   0.212370  0.499210  0.811710  0.150682
    C   C45   0.369330  0.499720  0.499820  0.324453
    C   C46   0.271870  0.499270  0.499960  0.024639
    C   C47   0.130680  0.498620  0.500160  0.335869
    C   C48   0.228150  0.499070  0.500020  0.013537
    C   C49   0.499500  0.789850  0.597870  -0.134086
    C   C50   0.499710  0.807520  0.363830  -0.265234
    C   C51   0.499770  0.759550  0.327630  0.003651
    C   C52   0.499690  0.725710  0.432300  0.124202
    C   C53   0.499740  0.676460  0.402060  -0.133284
    C   C54   0.499530  0.658790  0.636100  -0.263305
    C   C55   0.499470  0.706760  0.672300  -0.000966
    C   C56   0.499550  0.740600  0.567630  0.128218
    C   C57   0.499570  0.821770  0.500010  0.264574
    C   C58   0.499670  0.644540  0.499920  0.265562
    H   H17   0.499770  0.834290  0.286690  0.171676
    H   H18   0.499470  0.632010  0.713220  0.172232
    C   C59   0.500020  0.334630  0.619170  -0.349342
    C   C60   0.499980  0.285160  0.613300  0.157803
    C   C61   0.499770  0.257810  0.729480  -0.217033
    H   H19   0.499900  0.350060  0.701350  0.200899
    H   H20   0.499650  0.273360  0.811660  0.148797
    C   C62   0.500390  0.334650  0.380930  -0.343999
    C   C63   0.500330  0.285180  0.386720  0.151204
    C   C64   0.500490  0.257850  0.270490  -0.215184
    H   H21   0.500530  0.350090  0.298770  0.203345
    H   H22   0.500630  0.273410  0.188340  0.147367
    C   C65   0.500190  0.131680  0.380770  -0.347406
    C   C66   0.500230  0.181150  0.386640  0.157045
    C   C67   0.500440  0.208500  0.270460  -0.217969
    H   H23   0.500300  0.116250  0.298580  0.200687
    H   H24   0.500550  0.192950  0.188270  0.149154
    C   C68   0.499820  0.131660  0.619010  -0.338960
    C   C69   0.499870  0.181120  0.613220  0.146861
    C   C70   0.499720  0.208460  0.729440  -0.214432
    H   H25   0.499670  0.116220  0.701170  0.202079
    H   H26   0.499580  0.192900  0.811600  0.147265
    C   C71   0.500230  0.360530  0.500070  0.300999
    C   C72   0.500130  0.256490  0.499990  0.026339
    C   C73   0.499980  0.105780  0.499870  0.294050
    C   C74   0.500080  0.209820  0.499950  0.031597
    C   C75   0.998970  0.788720  0.402040  -0.145652
    C   C76   0.998660  0.806400  0.636080  -0.274592
    C   C77   0.998850  0.758430  0.672290  0.004791
    C   C78   0.999120  0.724590  0.567630  0.126307
    C   C79   0.999330  0.675340  0.597880  -0.136210
    C   C80   0.999630  0.657660  0.363840  -0.272457
    C   C81   0.999440  0.705630  0.327630  0.009055
    C   C82   0.999180  0.739470  0.432290  0.125168
    C   C83   0.998720  0.820650  0.499890  0.286518
    C   C84   0.999570  0.643420  0.500030  0.271093
    H   H27   0.998450  0.833180  0.713210  0.174277
    H   H28   0.999840  0.630880  0.286730  0.173207
    C   C85   0.000880  0.333500  0.380860  -0.355789
    C   C86   0.001180  0.284030  0.386740  0.162391
    C   C87   0.001540  0.256670  0.270570  -0.215110
    H   H29   0.000910  0.348920  0.298670  0.202528
    H   H30   0.001570  0.272220  0.188380  0.148332
    C   C88   0.000510  0.333530  0.619100  -0.348822
    C   C89   0.000830  0.284060  0.613320  0.153296
    C   C90   0.000820  0.256730  0.729550  -0.212562
    H   H31   0.000280  0.348980  0.701260  0.204544
    H   H32   0.000590  0.272300  0.811710  0.146920
    C   C91   0.001790  0.130560  0.619320  -0.308299
    C   C92   0.001490  0.180020  0.613430  0.135364
    C   C93   0.001130  0.207380  0.729610  -0.219216
    H   H33   0.001760  0.115130  0.701500  0.192870
    H   H34   0.001100  0.191840  0.811790  0.149893
    C   C94   0.002160  0.130520  0.381070  -0.300730
    C   C95   0.001840  0.179990  0.386850  0.125443
    C   C96   0.001850  0.207330  0.270620  -0.216079
    H   H35   0.002390  0.115080  0.298920  0.194639
    H   H36   0.002080  0.191760  0.188460  0.148058
    C   C97   0.000530  0.359400  0.499950  0.306482
    C   C98   0.001190  0.255360  0.500060  0.016451
    C   C99   0.002140  0.104650  0.500220  0.238535
    C   C100  0.001480  0.208690  0.500110  0.056337
    C   C101  0.654930  0.965080  0.383370  -0.372453
    C   C102  0.701260  0.964750  0.390080  0.173357
    C   C103  0.727120  0.964570  0.274360  -0.225681
    H   H37   0.640640  0.965180  0.300930  0.212102
    H   H38   0.712720  0.964670  0.191920  0.150349
    C   C104  0.654440  0.965090  0.621610  -0.376531
    C   C105  0.700790  0.964760  0.616660  0.172424
    C   C106  0.726170  0.964580  0.733350  -0.217893
    H   H39   0.639800  0.965200  0.703510  0.210856
    H   H40   0.711420  0.964690  0.815240  0.149038
    C   C107  0.844580  0.963730  0.625220  -0.377823
    C   C108  0.798250  0.964060  0.618500  0.166625
    C   C109  0.772390  0.964250  0.734220  -0.220045
    H   H41   0.858870  0.963630  0.707660  0.215512
    H   H42   0.786800  0.964150  0.816670  0.149391
    C   C110  0.845080  0.963720  0.386970  -0.368350
    C   C111  0.798730  0.964060  0.391930  0.156085
    C   C112  0.773350  0.964240  0.275240  -0.208430
    H   H43   0.859710  0.963620  0.305080  0.210612
    H   H44   0.788090  0.964130  0.193350  0.147328
    C   C113  0.630430  0.965260  0.502030  0.336262
    C   C114  0.727900  0.964560  0.503880  0.015186
    C   C115  0.869080  0.963560  0.506550  0.356438
    C   C116  0.771620  0.964250  0.504710  0.027078
    C   C117  0.345080  0.968070  0.378260  -0.371525
    C   C118  0.298730  0.968720  0.383220  0.170087
    C   C119  0.273350  0.969000  0.266530  -0.213677
    H   H45   0.359710  0.967810  0.296360  0.210584
    H   H46   0.288090  0.968740  0.184640  0.146990
    C   C120  0.344590  0.968230  0.616500  -0.377618
    C   C121  0.298260  0.968880  0.609790  0.178958
    C   C122  0.272400  0.969320  0.725510  -0.220384
    H   H47   0.358880  0.968090  0.698940  0.209521
    H   H48   0.286810  0.969170  0.807960  0.150472
    C   C123  0.154450  0.970900  0.612920  -0.313522
    C   C124  0.200800  0.970240  0.607950  0.140603
    C   C125  0.226180  0.969960  0.724640  -0.221609
    H   H49   0.139820  0.971160  0.694810  0.196714
    H   H50   0.211430  0.970230  0.806540  0.150133
    C   C126  0.154940  0.970730  0.374670  -0.321523
    C   C127  0.201270  0.970090  0.381380  0.147342
    C   C128  0.227120  0.969650  0.265660  -0.225632
    H   H51   0.140650  0.970880  0.292230  0.196514
    H   H52   0.212720  0.969800  0.183220  0.152150
    C   C129  0.369090  0.967810  0.497840  0.336454
    C   C130  0.271620  0.969180  0.496000  0.000034
    C   C131  0.130440  0.971160  0.493340  0.235354
    C   C132  0.227900  0.969790  0.495170  0.054750
    Cl  Cl1   0.499300  0.725060  0.840520  -0.033769
    Cl  Cl2   0.499340  0.807660  0.766510  0.020217
    Cl  Cl3   0.499950  0.741250  0.159410  -0.034847
    Cl  Cl4   0.499900  0.658650  0.233420  0.019786
    Cl  Cl5   0.999510  0.723930  0.159410  -0.035440
    Cl  Cl6   0.999030  0.806520  0.233400  0.022161
    Cl  Cl7   0.998780  0.740140  0.840510  -0.034637
    Cl  Cl8   0.999270  0.657540  0.766520  0.019845
