data_DB1-Zn2O8N2-ADC_A-irmof10_A_No497_repeat
_audit_creation_date              2024-02-20
_audit_creation_method            'Materials Studio'
_symmetry_space_group_name_H-M    'P1'
_symmetry_Int_Tables_number       1
_symmetry_cell_setting            triclinic
loop_
_symmetry_equiv_pos_as_xyz
  x,y,z
_cell_length_a                    33.4715
_cell_length_b                    22.1601
_cell_length_c                    22.1481
_cell_angle_alpha                 122.1110
_cell_angle_beta                  43.1121
_cell_angle_gamma                 136.9180
loop_
_atom_site_label
_atom_site_type_symbol
_atom_site_fract_x
_atom_site_fract_y
_atom_site_fract_z
_atom_site_U_iso_or_equiv
_atom_site_adp_type
_atom_site_occupancy
O1     O     0.47321   0.49596   0.63077   0.00000  Uiso   1.00
O2     O     0.39904   0.50333   0.62385   0.00000  Uiso   1.00
C1     C     0.41376   0.49977   0.67217   0.00000  Uiso   1.00
Zn1    Zn    0.54539   0.49578   0.50419   0.00000  Uiso   1.00
O3     O     0.39909   0.37617   0.49653   0.00000  Uiso   1.00
O4     O     0.47352   0.36919   0.50331   0.00000  Uiso   1.00
C2     C     0.41385   0.32779   0.49997   0.00000  Uiso   1.00
O5     O     0.52672   0.50387   0.36921   0.00000  Uiso   1.00
O6     O     0.60106   0.49683   0.37613   0.00000  Uiso   1.00
C3     C     0.58629   0.50029   0.32781   0.00000  Uiso   1.00
Zn2    Zn    0.45463   0.50421   0.49578   0.00000  Uiso   1.00
O7     O     0.60083   0.62383   0.50363   0.00000  Uiso   1.00
O8     O     0.52656   0.63081   0.49652   0.00000  Uiso   1.00
C4     C     0.58601   0.67220   0.50031   0.00000  Uiso   1.00
O9     O     0.02651   0.63079   0.49669   0.00000  Uiso   1.00
O10    O     0.10069   0.62386   0.50403   0.00000  Uiso   1.00
C5     C     0.08587   0.67219   0.50072   0.00000  Uiso   1.00
Zn3    Zn    0.95459   0.50422   0.49586   0.00000  Uiso   1.00
O11    O     0.10115   0.49719   0.37622   0.00000  Uiso   1.00
O12    O     0.02670   0.50398   0.36927   0.00000  Uiso   1.00
C6     C     0.08646   0.50086   0.32787   0.00000  Uiso   1.00
O13    O     0.97352   0.36922   0.50327   0.00000  Uiso   1.00
O14    O     0.89917   0.37615   0.49627   0.00000  Uiso   1.00
C7     C     0.91403   0.32782   0.49948   0.00000  Uiso   1.00
Zn4    Zn    0.04536   0.49579   0.50426   0.00000  Uiso   1.00
O15    O     0.89889   0.50300   0.62391   0.00000  Uiso   1.00
O16    O     0.97317   0.49588   0.63085   0.00000  Uiso   1.00
C8     C     0.91364   0.49945   0.67226   0.00000  Uiso   1.00
N1     N     0.90120   0.50918   0.49092   0.00000  Uiso   1.00
C9     C     0.82488   0.45437   0.54544   0.00000  Uiso   1.00
C10    C     0.78645   0.45786   0.54196   0.00000  Uiso   1.00
C11    C     0.82349   0.51653   0.48359   0.00000  Uiso   1.00
C12    C     0.89972   0.57119   0.42921   0.00000  Uiso   1.00
C13    C     0.93807   0.56766   0.43273   0.00000  Uiso   1.00
C14    C     0.78617   0.52384   0.47631   0.00000  Uiso   1.00
C15    C     0.71378   0.47613   0.52377   0.00000  Uiso   1.00
C16    C     0.60023   0.42879   0.57086   0.00000  Uiso   1.00
C17    C     0.67647   0.48345   0.51649   0.00000  Uiso   1.00
C18    C     0.71350   0.54212   0.45811   0.00000  Uiso   1.00
C19    C     0.67509   0.54561   0.45463   0.00000  Uiso   1.00
N2     N     0.59876   0.49081   0.50915   0.00000  Uiso   1.00
C20    C     0.56189   0.43232   0.56734   0.00000  Uiso   1.00
H1     H     0.79510   0.40874   0.59084   0.00000  Uiso   1.00
H2     H     0.72809   0.41430   0.58531   0.00000  Uiso   1.00
H3     H     0.92992   0.61701   0.38362   0.00000  Uiso   1.00
H4     H     0.99675   0.61063   0.38998   0.00000  Uiso   1.00
H5     H     0.57002   0.38297   0.61646   0.00000  Uiso   1.00
H6     H     0.77187   0.58569   0.41476   0.00000  Uiso   1.00
H7     H     0.70486   0.59124   0.40922   0.00000  Uiso   1.00
H8     H     0.50320   0.38936   0.61009   0.00000  Uiso   1.00
N3     N     0.09876   0.49083   0.50920   0.00000  Uiso   1.00
C21    C     0.17508   0.54550   0.45452   0.00000  Uiso   1.00
C22    C     0.21351   0.54202   0.45800   0.00000  Uiso   1.00
C23    C     0.17648   0.48350   0.51651   0.00000  Uiso   1.00
C24    C     0.10025   0.42898   0.57104   0.00000  Uiso   1.00
C25    C     0.06189   0.43250   0.56753   0.00000  Uiso   1.00
C26    C     0.21381   0.47622   0.52380   0.00000  Uiso   1.00
C27    C     0.28620   0.52380   0.47621   0.00000  Uiso   1.00
C28    C     0.39976   0.57103   0.42898   0.00000  Uiso   1.00
C29    C     0.32352   0.51651   0.48350   0.00000  Uiso   1.00
C30    C     0.28649   0.45799   0.54202   0.00000  Uiso   1.00
C31    C     0.32491   0.45450   0.54550   0.00000  Uiso   1.00
N4     N     0.40124   0.50917   0.49083   0.00000  Uiso   1.00
C32    C     0.43810   0.56751   0.43249   0.00000  Uiso   1.00
H9     H     0.20485   0.59102   0.40901   0.00000  Uiso   1.00
H10    H     0.27187   0.58548   0.41454   0.00000  Uiso   1.00
H11    H     0.07005   0.38328   0.61674   0.00000  Uiso   1.00
H12    H     0.00321   0.38964   0.61039   0.00000  Uiso   1.00
H13    H     0.42996   0.61673   0.38327   0.00000  Uiso   1.00
H14    H     0.22813   0.41453   0.58548   0.00000  Uiso   1.00
H15    H     0.29514   0.40899   0.59101   0.00000  Uiso   1.00
H16    H     0.49679   0.61036   0.38964   0.00000  Uiso   1.00
C33    C     0.63381   0.50017   0.23264   0.00000  Uiso   1.00
C34    C     0.86611   0.49957   0.76743   0.00000  Uiso   1.00
C35    C     0.68990   0.49701   0.18906   0.00000  Uiso   1.00
C36    C     0.73644   0.49686   0.09650   0.00000  Uiso   1.00
C37    C     0.81002   0.50274   0.81101   0.00000  Uiso   1.00
C38    C     0.76349   0.50288   0.90356   0.00000  Uiso   1.00
C39    C     0.87571   0.49653   0.81696   0.00000  Uiso   1.00
C40    C     0.82978   0.49662   0.90957   0.00000  Uiso   1.00
C41    C     0.62421   0.50322   0.18311   0.00000  Uiso   1.00
C42    C     0.67014   0.50313   0.09050   0.00000  Uiso   1.00
C43    C     0.72667   0.49993   0.04668   0.00000  Uiso   1.00
C44    C     0.77325   0.49981   0.95339   0.00000  Uiso   1.00
H17    H     0.69685   0.49490   0.22281   0.00000  Uiso   1.00
H18    H     0.80308   0.50485   0.77726   0.00000  Uiso   1.00
H19    H     0.91430   0.49434   0.78733   0.00000  Uiso   1.00
H20    H     0.83701   0.49450   0.94294   0.00000  Uiso   1.00
H21    H     0.58563   0.50541   0.21273   0.00000  Uiso   1.00
H22    H     0.66291   0.50525   0.05713   0.00000  Uiso   1.00
C45    C     0.36632   0.50005   0.76734   0.00000  Uiso   1.00
C46    C     0.13441   0.50139   0.23255   0.00000  Uiso   1.00
C47    C     0.37588   0.49693   0.81686   0.00000  Uiso   1.00
C48    C     0.33003   0.49717   0.90947   0.00000  Uiso   1.00
C49    C     0.12484   0.50451   0.18303   0.00000  Uiso   1.00
C50    C     0.17069   0.50427   0.09041   0.00000  Uiso   1.00
C51    C     0.19039   0.49801   0.18896   0.00000  Uiso   1.00
C52    C     0.23685   0.49771   0.09640   0.00000  Uiso   1.00
C53    C     0.31034   0.50343   0.81092   0.00000  Uiso   1.00
C54    C     0.26388   0.50373   0.90348   0.00000  Uiso   1.00
C55    C     0.27361   0.50058   0.95330   0.00000  Uiso   1.00
C56    C     0.22711   0.50086   0.04658   0.00000  Uiso   1.00
H23    H     0.41440   0.49459   0.78723   0.00000  Uiso   1.00
H24    H     0.08633   0.50685   0.21265   0.00000  Uiso   1.00
H25    H     0.19731   0.49584   0.22270   0.00000  Uiso   1.00
H26    H     0.27526   0.49536   0.06717   0.00000  Uiso   1.00
H27    H     0.30342   0.50560   0.77718   0.00000  Uiso   1.00
H28    H     0.22547   0.50608   0.93271   0.00000  Uiso   1.00
C57    C     0.36624   0.23262   0.50008   0.00000  Uiso   1.00
C58    C     0.13349   0.76736   0.50061   0.00000  Uiso   1.00
C59    C     0.37592   0.18323   0.50312   0.00000  Uiso   1.00
C60    C     0.32990   0.09060   0.50326   0.00000  Uiso   1.00
C61    C     0.12381   0.81676   0.49756   0.00000  Uiso   1.00
C62    C     0.16982   0.90938   0.49743   0.00000  Uiso   1.00
C63    C     0.18975   0.81108   0.50355   0.00000  Uiso   1.00
C64    C     0.23637   0.90365   0.50347   0.00000  Uiso   1.00
C65    C     0.30998   0.18890   0.49714   0.00000  Uiso   1.00
C66    C     0.26335   0.09633   0.49722   0.00000  Uiso   1.00
C67    C     0.27320   0.04664   0.50029   0.00000  Uiso   1.00
C68    C     0.22653   0.95334   0.50040   0.00000  Uiso   1.00
H29    H     0.41462   0.21295   0.50516   0.00000  Uiso   1.00
H30    H     0.08510   0.78703   0.49552   0.00000  Uiso   1.00
H31    H     0.19675   0.77743   0.50566   0.00000  Uiso   1.00
H32    H     0.27498   0.93298   0.50552   0.00000  Uiso   1.00
H33    H     0.30298   0.22255   0.49503   0.00000  Uiso   1.00
H34    H     0.22474   0.06700   0.49517   0.00000  Uiso   1.00
C69    C     0.63331   0.76737   0.50081   0.00000  Uiso   1.00
C70    C     0.86457   0.23261   0.50328   0.00000  Uiso   1.00
C71    C     0.68935   0.81109   0.50420   0.00000  Uiso   1.00
C72    C     0.73568   0.90365   0.50472   0.00000  Uiso   1.00
C73    C     0.80853   0.18890   0.49989   0.00000  Uiso   1.00
C74    C     0.76220   0.09633   0.49937   0.00000  Uiso   1.00
C75    C     0.87432   0.18322   0.50617   0.00000  Uiso   1.00
C76    C     0.82860   0.09060   0.50571   0.00000  Uiso   1.00
C77    C     0.62356   0.81676   0.49792   0.00000  Uiso   1.00
C78    C     0.66928   0.90938   0.49838   0.00000  Uiso   1.00
C79    C     0.72575   0.95334   0.50180   0.00000  Uiso   1.00
C80    C     0.77213   0.04664   0.50229   0.00000  Uiso   1.00
H35    H     0.69640   0.77743   0.50621   0.00000  Uiso   1.00
H36    H     0.80148   0.22255   0.49788   0.00000  Uiso   1.00
H37    H     0.91287   0.21294   0.50852   0.00000  Uiso   1.00
H38    H     0.83594   0.05732   0.50773   0.00000  Uiso   1.00
H39    H     0.58501   0.78705   0.49558   0.00000  Uiso   1.00
H40    H     0.66194   0.94266   0.49636   0.00000  Uiso   1.00
O17    O     0.89993   0.67869   0.40359   0.00000  Uiso   1.00
O18    O     0.81888   0.56778   0.35124   0.00000  Uiso   1.00
N5     N     0.83538   0.59063   0.40985   0.00000  Uiso   1.00
O19    O     0.59985   0.40263   0.67825   0.00000  Uiso   1.00
O20    O     0.68122   0.35084   0.56709   0.00000  Uiso   1.00
N6     N     0.66456   0.40934   0.59023   0.00000  Uiso   1.00
O21    O     0.09999   0.40310   0.67846   0.00000  Uiso   1.00
O22    O     0.18117   0.35104   0.56742   0.00000  Uiso   1.00
N7     N     0.16460   0.40959   0.59042   0.00000  Uiso   1.00
O23    O     0.40006   0.67847   0.40309   0.00000  Uiso   1.00
O24    O     0.31880   0.56743   0.35104   0.00000  Uiso   1.00
N8     N     0.33541   0.59043   0.40959   0.00000  Uiso   1.00
O25    O     0.78848   0.49388   0.05698   0.00000  Uiso   1.00
Li1    Li    0.81631   0.48970   0.09483   0.00000  Uiso   1.00
O26    O     0.71145   0.50586   0.94308   0.00000  Uiso   1.00
Li2    Li    0.68362   0.51004   0.90524   0.00000  Uiso   1.00
O27    O     0.33978   0.49423   0.95458   0.00000  Uiso   1.00
Li3    Li    0.40124   0.48971   0.92483   0.00000  Uiso   1.00
O28    O     0.16095   0.50721   0.04530   0.00000  Uiso   1.00
Li4    Li    0.09949   0.51173   0.07505   0.00000  Uiso   1.00
O29    O     0.33975   0.04562   0.50612   0.00000  Uiso   1.00
Li5    Li    0.40154   0.07555   0.51015   0.00000  Uiso   1.00
O30    O     0.15997   0.95437   0.49456   0.00000  Uiso   1.00
Li6    Li    0.09819   0.92443   0.49053   0.00000  Uiso   1.00
O31    O     0.78767   0.94330   0.50790   0.00000  Uiso   1.00
Li7    Li    0.81564   0.90564   0.51199   0.00000  Uiso   1.00
O32    O     0.71021   0.05668   0.49619   0.00000  Uiso   1.00
Li8    Li    0.68224   0.09434   0.49210   0.00000  Uiso   1.00
