# Generated by REPEAT Assigner based on pymatgen
data_DB1-Cu2O8-AZO_A-BDC_A_No793
_audit_creation_date              2022-05-24
_audit_creation_method            REPEAT_Assigner
_cell_length_a                    10.700300
_cell_length_b                    34.497600
_cell_length_c                    10.000000
_cell_angle_alpha                 90.000000
_cell_angle_beta                  90.000000
_cell_angle_gamma                 90.093700
_cell_volume                      3691.341757
_symmetry_space_group_name_H-M    P1
_symmetry_Int_Tables_number       1
loop_
    _symmetry_equiv_pos_site_id
    _symmetry_equiv_pos_as_xyz
    1  x,y,z
loop_
    _atom_site_type_symbol
    _atom_site_label
    _atom_site_fract_x
    _atom_site_fract_y
    _atom_site_fract_z
    _atom_type_partial_charge
    Cu  Cu1  0.500000  0.500000  0.627260  1.126480
    Cu  Cu2  0.500010  0.500000  0.372740  1.103688
    O   O1   0.662500  0.499970  0.618690  -0.594689
    O   O2   0.337180  0.499920  0.618670  -0.392225
    O   O3   0.499650  0.449490  0.618680  -0.547988
    O   O4   0.500020  0.550400  0.618680  -0.484727
    O   O5   0.500320  0.550510  0.381320  -0.462561
    O   O6   0.500040  0.449610  0.381320  -0.528806
    O   O7   0.337380  0.499980  0.381310  -0.594793
    O   O8   0.662840  0.500100  0.381330  -0.394889
    C   C1   0.734390  0.500030  0.500010  0.482554
    C   C2   0.265620  0.499970  0.499990  0.480536
    C   C3   0.499850  0.427300  0.500000  0.606860
    C   C4   0.500180  0.572700  0.500000  0.523187
    Cu  Cu3  0.500500  0.000000  0.275020  1.119793
    Cu  Cu4  0.499870  0.000000  0.529530  1.099773
    O   O9   0.662970  0.000190  0.284050  -0.587987
    O   O10  0.337660  0.999930  0.283140  -0.376011
    O   O11  0.500140  0.050510  0.283590  -0.583473
    O   O12  0.500490  0.949610  0.283590  -0.518564
    O   O13  0.500190  0.949490  0.520950  -0.485638
    O   O14  0.499930  0.050400  0.520960  -0.567425
    O   O15  0.337270  0.999870  0.520490  -0.555543
    O   O16  0.662720  0.000060  0.521410  -0.352197
    C   C5   0.734570  0.000210  0.402940  0.432159
    C   C6   0.265800  0.999800  0.401620  0.431155
    C   C7   0.500040  0.072700  0.402280  0.633580
    C   C8   0.500340  0.927300  0.402280  0.539778
    C   C9   0.500330  0.884040  0.402270  -0.237951
    C   C10  0.500180  0.863130  0.523420  -0.114325
    C   C11  0.500180  0.822500  0.523100  -0.121114
    C   C12  0.500330  0.801940  0.401820  0.260255
    C   C13  0.500480  0.822550  0.281220  -0.025479
    C   C14  0.500480  0.863170  0.281080  0.358869
    N   N1   0.500320  0.760320  0.398240  -0.087171
    N   N2   0.500190  0.739680  0.504030  -0.266716
    C   C15  0.500040  0.677450  0.621060  -0.444669
    C   C16  0.500190  0.698060  0.500460  0.484946
    C   C17  0.500340  0.677510  0.379170  -0.406756
    C   C18  0.500330  0.636870  0.378850  0.418285
    C   C19  0.500180  0.615970  0.500000  -0.414353
    C   C20  0.500030  0.636840  0.621200  0.469171
    H   H1   0.500060  0.878420  0.617990  0.172569
    H   H2   0.500060  0.806980  0.617030  0.090374
    H   H3   0.499920  0.693030  0.714970  0.207860
    H   H4   0.500460  0.693030  0.285250  0.197322
    C   C21  0.500040  0.115970  0.402270  -0.268271
    C   C22  0.499840  0.136870  0.523420  -0.106514
    C   C23  0.499840  0.177510  0.523100  -0.125053
    C   C24  0.500030  0.198060  0.401820  0.270963
    C   C25  0.500230  0.177450  0.281220  -0.034827
    C   C26  0.500230  0.136840  0.281080  0.375331
    N   N3   0.500030  0.239680  0.398240  -0.088613
    N   N4   0.499860  0.260320  0.504030  -0.269326
    C   C27  0.499660  0.322550  0.621050  -0.452957
    C   C28  0.499860  0.301940  0.500460  0.497239
    C   C29  0.500050  0.322500  0.379170  -0.415477
    C   C30  0.500050  0.363130  0.378850  0.429742
    C   C31  0.499850  0.384040  0.500000  -0.440739
    C   C32  0.499660  0.363170  0.621200  0.481599
    H   H5   0.499690  0.121580  0.617990  0.172898
    H   H6   0.499680  0.193030  0.617030  0.092655
    H   H7   0.499510  0.306980  0.714970  0.210699
    H   H8   0.500210  0.306980  0.285250  0.201118
    C   C33  0.869110  0.500020  0.500000  -0.006618
    C   C34  0.130910  0.499990  0.499990  -0.004861
    C   C35  0.935010  0.500070  0.380060  0.066876
    C   C36  0.065010  0.499930  0.619930  0.064164
    C   C37  0.065000  0.500060  0.380050  -0.086609
    C   C38  0.935020  0.499940  0.619940  -0.086905
    H   H9   0.109850  0.500100  0.296910  0.174590
    H   H10  0.890170  0.499900  0.703080  0.174600
    C   C39  0.869290  0.000360  0.403330  0.004062
    C   C40  0.131080  0.000640  0.404090  0.011012
    C   C41  0.934880  0.000360  0.523460  0.060156
    C   C42  0.065490  0.000640  0.283960  0.046563
    C   C43  0.064880  0.000500  0.523840  -0.094107
    C   C44  0.935490  0.000490  0.283580  -0.091772
    H   H11  0.109520  0.000510  0.607110  0.175816
    H   H12  0.890850  0.000490  0.200310  0.177321
    O   O17  0.500650  0.884520  0.149260  -0.469579
    H   H13  0.500630  0.916230  0.168020  0.358764
    O   O18  0.500640  0.800810  0.150160  -0.343493
    H   H14  0.500610  0.769160  0.170020  0.256203
    O   O19  0.499860  0.615490  0.753010  -0.508866
    H   H15  0.499880  0.583780  0.734260  0.380105
    O   O20  0.500500  0.615550  0.246980  -0.511980
    H   H16  0.500470  0.583840  0.265660  0.381890
    O   O21  0.500450  0.115490  0.149260  -0.465505
    H   H17  0.500420  0.083780  0.168020  0.344035
    O   O22  0.500440  0.199190  0.150160  -0.338519
    H   H18  0.500400  0.230850  0.170020  0.255029
    O   O23  0.499440  0.384520  0.753010  -0.501399
    H   H19  0.499470  0.416230  0.734260  0.363408
    O   O24  0.500260  0.384450  0.246980  -0.504130
    H   H20  0.500230  0.416170  0.265660  0.364968
    O   O25  0.754230  0.525520  0.232220  -0.282740
    O   O26  0.905550  0.474860  0.138230  -0.281023
    N   N5   0.864370  0.500150  0.249130  0.258725
    O   O27  0.246110  0.525180  0.768100  -0.284311
    O   O28  0.094140  0.474450  0.861440  -0.282446
    N   N6   0.135640  0.499850  0.750860  0.260810
    O   O29  0.753740  0.974740  0.670780  -0.284019
    O   O30  0.904830  0.025540  0.765210  -0.290155
    N   N7   0.863920  0.000210  0.654190  0.245207
    O   O31  0.246950  0.975570  0.136320  -0.285812
    O   O32  0.095230  0.026140  0.042540  -0.294907
    N   N8   0.136450  0.000780  0.153240  0.251841
