data_DB1-Cu2O8N2-irmof14_A-irmof6_A_No247_repeat
_audit_creation_date              2024-02-23
_audit_creation_method            'Materials Studio'
_symmetry_space_group_name_H-M    'P1'
_symmetry_Int_Tables_number       1
_symmetry_cell_setting            triclinic
loop_
_symmetry_equiv_pos_as_xyz
  x,y,z
_cell_length_a                    10.8046
_cell_length_b                    25.7017
_cell_length_c                    13.5342
_cell_angle_alpha                 90.0005
_cell_angle_beta                  89.9974
_cell_angle_gamma                 89.9057
loop_
_atom_site_label
_atom_site_type_symbol
_atom_site_fract_x
_atom_site_fract_y
_atom_site_fract_z
_atom_site_U_iso_or_equiv
_atom_site_adp_type
_atom_site_occupancy
Cu1    Cu    0.50001   0.50000   0.40597   0.00000  Uiso   1.00
Cu2    Cu    0.50001   0.50000   0.59403   0.00000  Uiso   1.00
O1     O     0.66093   0.50004   0.41230   0.00000  Uiso   1.00
O2     O     0.33875   0.50011   0.41232   0.00000  Uiso   1.00
O3     O     0.49966   0.56779   0.41231   0.00000  Uiso   1.00
O4     O     0.50003   0.43235   0.41231   0.00000  Uiso   1.00
O5     O     0.50031   0.43220   0.58769   0.00000  Uiso   1.00
O6     O     0.50003   0.56764   0.58769   0.00000  Uiso   1.00
O7     O     0.33895   0.50003   0.58769   0.00000  Uiso   1.00
O8     O     0.66126   0.49986   0.58768   0.00000  Uiso   1.00
C1     C     0.73213   0.49996   0.49999   0.00000  Uiso   1.00
C2     C     0.26788   0.50004   0.50001   0.00000  Uiso   1.00
C3     C     0.49984   0.59758   0.50000   0.00000  Uiso   1.00
C4     C     0.50018   0.40242   0.50000   0.00000  Uiso   1.00
Cu3    Cu    0.50043   0.92038   0.59405   0.00000  Uiso   1.00
Cu4    Cu    0.49964   0.92038   0.40599   0.00000  Uiso   1.00
O9     O     0.66133   0.92012   0.58727   0.00000  Uiso   1.00
O10    O     0.33915   0.92049   0.58815   0.00000  Uiso   1.00
O11    O     0.50004   0.85259   0.58771   0.00000  Uiso   1.00
O12    O     0.50043   0.98803   0.58771   0.00000  Uiso   1.00
O13    O     0.49998   0.98818   0.41233   0.00000  Uiso   1.00
O14    O     0.49967   0.85274   0.41233   0.00000  Uiso   1.00
O15    O     0.33860   0.92057   0.41277   0.00000  Uiso   1.00
O16    O     0.66092   0.92029   0.41190   0.00000  Uiso   1.00
C5     C     0.73216   0.92010   0.49938   0.00000  Uiso   1.00
C6     C     0.26791   0.92067   0.50065   0.00000  Uiso   1.00
C7     C     0.49986   0.82280   0.50002   0.00000  Uiso   1.00
C8     C     0.50021   0.01796   0.50002   0.00000  Uiso   1.00
C9     C     0.42197   0.53279   0.78789   0.00000  Uiso   1.00
C10    C     0.42579   0.53119   0.89128   0.00000  Uiso   1.00
C11    C     0.34966   0.56318   0.94844   0.00000  Uiso   1.00
H1     H     0.36814   0.55541   0.75563   0.00000  Uiso   1.00
H2     H     0.29583   0.58580   0.91592   0.00000  Uiso   1.00
C12    C     0.57805   0.46720   0.78788   0.00000  Uiso   1.00
C13    C     0.57422   0.46881   0.89127   0.00000  Uiso   1.00
C14    C     0.65035   0.43682   0.94843   0.00000  Uiso   1.00
H3     H     0.63188   0.44458   0.75562   0.00000  Uiso   1.00
C15    C     0.57805   0.46720   0.21211   0.00000  Uiso   1.00
C16    C     0.57422   0.46881   0.10872   0.00000  Uiso   1.00
C17    C     0.65035   0.43682   0.05156   0.00000  Uiso   1.00
H4     H     0.63188   0.44458   0.24437   0.00000  Uiso   1.00
H5     H     0.70418   0.41420   0.08408   0.00000  Uiso   1.00
C18    C     0.42197   0.53279   0.21212   0.00000  Uiso   1.00
C19    C     0.42579   0.53119   0.10873   0.00000  Uiso   1.00
C20    C     0.34966   0.56318   0.05157   0.00000  Uiso   1.00
H6     H     0.36814   0.55541   0.24438   0.00000  Uiso   1.00
N1     N     0.50001   0.50000   0.73378   0.00000  Uiso   1.00
C21    C     0.50001   0.50000   0.95123   0.00000  Uiso   1.00
N2     N     0.50001   0.50000   0.26622   0.00000  Uiso   1.00
C22    C     0.50001   0.50000   0.04877   0.00000  Uiso   1.00
C23    C     0.49985   0.76700   0.50001   0.00000  Uiso   1.00
C24    C     0.49985   0.65338   0.50001   0.00000  Uiso   1.00
C25    C     0.49969   0.73855   0.42197   0.00000  Uiso   1.00
C26    C     0.50001   0.68183   0.57805   0.00000  Uiso   1.00
C27    C     0.49968   0.68184   0.42197   0.00000  Uiso   1.00
C28    C     0.50002   0.73854   0.57805   0.00000  Uiso   1.00
C29    C     0.49945   0.73734   0.31099   0.00000  Uiso   1.00
C30    C     0.49945   0.68305   0.31099   0.00000  Uiso   1.00
H7     H     0.50023   0.75631   0.65092   0.00000  Uiso   1.00
H8     H     0.58059   0.75646   0.27824   0.00000  Uiso   1.00
H9     H     0.41824   0.75684   0.27906   0.00000  Uiso   1.00
H10    H     0.41818   0.66392   0.27846   0.00000  Uiso   1.00
H11    H     0.58053   0.66355   0.27884   0.00000  Uiso   1.00
C31    C     0.50033   0.32189   0.58802   0.00000  Uiso   1.00
C32    C     0.50032   0.26744   0.58371   0.00000  Uiso   1.00
C33    C     0.50047   0.23735   0.66958   0.00000  Uiso   1.00
H12    H     0.50042   0.33888   0.64873   0.00000  Uiso   1.00
H13    H     0.50056   0.25447   0.73029   0.00000  Uiso   1.00
C34    C     0.50004   0.32189   0.41199   0.00000  Uiso   1.00
C35    C     0.50005   0.26744   0.41630   0.00000  Uiso   1.00
C36    C     0.49992   0.23734   0.33044   0.00000  Uiso   1.00
H14    H     0.49994   0.33887   0.35127   0.00000  Uiso   1.00
C37    C     0.50006   0.09849   0.41200   0.00000  Uiso   1.00
C38    C     0.50006   0.15293   0.41631   0.00000  Uiso   1.00
C39    C     0.49992   0.18303   0.33044   0.00000  Uiso   1.00
H15    H     0.49997   0.08150   0.35129   0.00000  Uiso   1.00
H16    H     0.49982   0.16591   0.26973   0.00000  Uiso   1.00
C40    C     0.50035   0.09849   0.58803   0.00000  Uiso   1.00
C41    C     0.50034   0.15294   0.58372   0.00000  Uiso   1.00
C42    C     0.50047   0.18304   0.66958   0.00000  Uiso   1.00
H17    H     0.50045   0.08151   0.64875   0.00000  Uiso   1.00
C43    C     0.50018   0.35038   0.50000   0.00000  Uiso   1.00
C44    C     0.50019   0.23587   0.50001   0.00000  Uiso   1.00
C45    C     0.50021   0.07000   0.50002   0.00000  Uiso   1.00
C46    C     0.50020   0.18451   0.50001   0.00000  Uiso   1.00
C47    C     0.13514   0.50002   0.50001   0.00000  Uiso   1.00
C48    C     0.86487   0.49998   0.50000   0.00000  Uiso   1.00
C49    C     0.06745   0.49993   0.57804   0.00000  Uiso   1.00
C50    C     0.93257   0.50007   0.42196   0.00000  Uiso   1.00
C51    C     0.93255   0.49991   0.57804   0.00000  Uiso   1.00
C52    C     0.06746   0.50008   0.42197   0.00000  Uiso   1.00
C53    C     0.06457   0.49982   0.68902   0.00000  Uiso   1.00
C54    C     0.93541   0.49980   0.68902   0.00000  Uiso   1.00
H18    H     0.10975   0.50018   0.34909   0.00000  Uiso   1.00
H19    H     0.11002   0.53393   0.72179   0.00000  Uiso   1.00
H20    H     0.11097   0.46569   0.72095   0.00000  Uiso   1.00
H21    H     0.88994   0.46563   0.72154   0.00000  Uiso   1.00
H22    H     0.88901   0.53388   0.72118   0.00000  Uiso   1.00
C55    C     0.42078   0.88770   0.21235   0.00000  Uiso   1.00
C56    C     0.42416   0.88930   0.10895   0.00000  Uiso   1.00
C57    C     0.34779   0.85742   0.05200   0.00000  Uiso   1.00
H23    H     0.36708   0.86515   0.24476   0.00000  Uiso   1.00
H24    H     0.29409   0.83487   0.08466   0.00000  Uiso   1.00
C58    C     0.57686   0.95307   0.21193   0.00000  Uiso   1.00
C59    C     0.57260   0.95147   0.10855   0.00000  Uiso   1.00
C60    C     0.64849   0.98335   0.05118   0.00000  Uiso   1.00
H25    H     0.63083   0.97562   0.24404   0.00000  Uiso   1.00
C61    C     0.57507   0.95307   0.78770   0.00000  Uiso   1.00
C62    C     0.57169   0.95147   0.89110   0.00000  Uiso   1.00
C63    C     0.64806   0.98335   0.94805   0.00000  Uiso   1.00
H26    H     0.62877   0.97562   0.75529   0.00000  Uiso   1.00
H27    H     0.70176   0.00590   0.91538   0.00000  Uiso   1.00
C64    C     0.41899   0.88770   0.78812   0.00000  Uiso   1.00
C65    C     0.42324   0.88930   0.89150   0.00000  Uiso   1.00
C66    C     0.34735   0.85742   0.94887   0.00000  Uiso   1.00
H28    H     0.36501   0.86516   0.75601   0.00000  Uiso   1.00
N3     N     0.49905   0.92038   0.26625   0.00000  Uiso   1.00
C67    C     0.49813   0.92039   0.04880   0.00000  Uiso   1.00
N4     N     0.49680   0.92039   0.73380   0.00000  Uiso   1.00
C68    C     0.49772   0.92038   0.95125   0.00000  Uiso   1.00
C69    C     0.13516   0.91947   0.49826   0.00000  Uiso   1.00
C70    C     0.86490   0.91989   0.49902   0.00000  Uiso   1.00
C71    C     0.06714   0.91965   0.42041   0.00000  Uiso   1.00
C72    C     0.93292   0.91971   0.57686   0.00000  Uiso   1.00
C73    C     0.93225   0.91986   0.42079   0.00000  Uiso   1.00
C74    C     0.06781   0.91950   0.57649   0.00000  Uiso   1.00
C75    C     0.06379   0.91977   0.30944   0.00000  Uiso   1.00
C76    C     0.93464   0.91997   0.30980   0.00000  Uiso   1.00
H29    H     0.11040   0.91934   0.64924   0.00000  Uiso   1.00
H30    H     0.10910   0.88559   0.27655   0.00000  Uiso   1.00
H31    H     0.11006   0.95384   0.27739   0.00000  Uiso   1.00
H32    H     0.88903   0.95420   0.27740   0.00000  Uiso   1.00
H33    H     0.88809   0.88595   0.27777   0.00000  Uiso   1.00
O17    O     0.27470   0.59468   0.09685   0.00000  Uiso   1.00
Li1    Li    0.16861   0.63926   0.05606   0.00000  Uiso   1.00
O18    O     0.72531   0.40532   0.90314   0.00000  Uiso   1.00
Li2    Li    0.83140   0.36074   0.94394   0.00000  Uiso   1.00
O19    O     0.50061   0.15920   0.75412   0.00000  Uiso   1.00
Li3    Li    0.50080   0.18068   0.87378   0.00000  Uiso   1.00
O20    O     0.49978   0.26118   0.24590   0.00000  Uiso   1.00
Li4    Li    0.49958   0.23970   0.12624   0.00000  Uiso   1.00
O21    O     0.27220   0.82602   0.90379   0.00000  Uiso   1.00
Li5    Li    0.16627   0.78159   0.94488   0.00000  Uiso   1.00
O22    O     0.72365   0.01475   0.09626   0.00000  Uiso   1.00
Li6    Li    0.82957   0.05918   0.05517   0.00000  Uiso   1.00
O23    O     0.50020   0.65714   0.67928   0.00000  Uiso   1.00
H34    H     0.50017   0.61415   0.67158   0.00000  Uiso   1.00
O24    O     0.87384   0.50015   0.32073   0.00000  Uiso   1.00
H35    H     0.77156   0.50012   0.32842   0.00000  Uiso   1.00
O25    O     0.87462   0.91971   0.67826   0.00000  Uiso   1.00
H36    H     0.77231   0.91988   0.67084   0.00000  Uiso   1.00
