data_DB1-Zn2O8-BTC_A-irmof10_A_No9_repeat
_audit_creation_date              2024-02-20
_audit_creation_method            'Materials Studio'
_symmetry_space_group_name_H-M    'P1'
_symmetry_Int_Tables_number       1
_symmetry_cell_setting            triclinic
loop_
_symmetry_equiv_pos_as_xyz
  x,y,z
_cell_length_a                    19.1861
_cell_length_b                    19.1861
_cell_length_c                    30.2920
_cell_angle_alpha                 89.7914
_cell_angle_beta                  89.7600
_cell_angle_gamma                 60.0002
loop_
_atom_site_label
_atom_site_type_symbol
_atom_site_fract_x
_atom_site_fract_y
_atom_site_fract_z
_atom_site_U_iso_or_equiv
_atom_site_adp_type
_atom_site_occupancy
O1     O     0.42969   0.57122   0.43633   0.00000  Uiso   1.00
O2     O     0.57098   0.42918   0.43635   0.00000  Uiso   1.00
C1     C     0.50030   0.50019   0.41391   0.00000  Uiso   1.00
Zn1    Zn    0.41370   0.58650   0.50000   0.00000  Uiso   1.00
O3     O     0.62890   0.48697   0.49998   0.00000  Uiso   1.00
O4     O     0.48742   0.62884   0.50002   0.00000  Uiso   1.00
C2     C     0.57859   0.57839   0.49996   0.00000  Uiso   1.00
O5     O     0.57039   0.42885   0.56369   0.00000  Uiso   1.00
O6     O     0.42894   0.57074   0.56366   0.00000  Uiso   1.00
C3     C     0.49966   0.49978   0.58611   0.00000  Uiso   1.00
Zn2    Zn    0.58630   0.41350   0.50002   0.00000  Uiso   1.00
O7     O     0.37110   0.51303   0.49995   0.00000  Uiso   1.00
O8     O     0.51258   0.37116   0.50007   0.00000  Uiso   1.00
C4     C     0.42141   0.42162   0.49990   0.00000  Uiso   1.00
O9     O     0.57123   0.99959   0.43584   0.00000  Uiso   1.00
O10    O     0.42919   0.00033   0.43606   0.00000  Uiso   1.00
C5     C     0.50020   0.00017   0.41352   0.00000  Uiso   1.00
Zn3    Zn    0.58650   0.99980   0.49949   0.00000  Uiso   1.00
O11    O     0.48697   0.88414   0.49983   0.00000  Uiso   1.00
O12    O     0.62884   0.88375   0.49967   0.00000  Uiso   1.00
C6     C     0.57838   0.84303   0.49976   0.00000  Uiso   1.00
O13    O     0.42884   0.00028   0.56340   0.00000  Uiso   1.00
O14    O     0.57073   0.99984   0.56318   0.00000  Uiso   1.00
C7     C     0.49976   0.99991   0.58572   0.00000  Uiso   1.00
Zn4    Zn    0.41350   0.00021   0.49975   0.00000  Uiso   1.00
O15    O     0.51303   0.11588   0.49932   0.00000  Uiso   1.00
O16    O     0.37116   0.11627   0.49964   0.00000  Uiso   1.00
C8     C     0.42161   0.15698   0.49933   0.00000  Uiso   1.00
O17    O     0.99959   0.42968   0.43582   0.00000  Uiso   1.00
O18    O     0.00034   0.57098   0.43577   0.00000  Uiso   1.00
C9     C     0.00018   0.50030   0.41336   0.00000  Uiso   1.00
Zn5    Zn    0.99980   0.41371   0.49949   0.00000  Uiso   1.00
O19    O     0.88413   0.62891   0.49959   0.00000  Uiso   1.00
O20    O     0.88374   0.48743   0.49970   0.00000  Uiso   1.00
C10    C     0.84302   0.57860   0.49967   0.00000  Uiso   1.00
O21    O     0.00026   0.57041   0.56311   0.00000  Uiso   1.00
O22    O     0.99982   0.42896   0.56315   0.00000  Uiso   1.00
C11    C     0.99989   0.49969   0.58556   0.00000  Uiso   1.00
Zn6    Zn    0.00021   0.58631   0.49943   0.00000  Uiso   1.00
O23    O     0.11587   0.37111   0.49924   0.00000  Uiso   1.00
O24    O     0.11627   0.51259   0.49930   0.00000  Uiso   1.00
C12    C     0.15698   0.42142   0.49910   0.00000  Uiso   1.00
O25    O     0.57068   0.42919   0.06369   0.00000  Uiso   1.00
O26    O     0.42908   0.57093   0.06366   0.00000  Uiso   1.00
C13    C     0.49984   0.50000   0.08611   0.00000  Uiso   1.00
Zn7    Zn    0.58597   0.41322   0.00002   0.00000  Uiso   1.00
O27    O     0.48747   0.62836   0.99953   0.00000  Uiso   1.00
O28    O     0.62890   0.48644   0.99948   0.00000  Uiso   1.00
C14    C     0.57886   0.57764   0.99936   0.00000  Uiso   1.00
O29    O     0.42887   0.57046   0.93633   0.00000  Uiso   1.00
O30    O     0.57032   0.42857   0.93635   0.00000  Uiso   1.00
C15    C     0.49960   0.49953   0.91391   0.00000  Uiso   1.00
Zn8    Zn    0.41350   0.58635   0.00000   0.00000  Uiso   1.00
O31    O     0.51200   0.37121   0.00058   0.00000  Uiso   1.00
O32    O     0.37057   0.51313   0.00046   0.00000  Uiso   1.00
C16    C     0.42061   0.42193   0.00080   0.00000  Uiso   1.00
O33    O     0.42908   0.99585   0.06340   0.00000  Uiso   1.00
O34    O     0.57082   0.99571   0.06318   0.00000  Uiso   1.00
C17    C     0.49989   0.99570   0.08572   0.00000  Uiso   1.00
Zn9    Zn    0.41312   0.99701   0.99975   0.00000  Uiso   1.00
O35    O     0.62827   0.88037   0.99918   0.00000  Uiso   1.00
O36    O     0.48635   0.88086   0.99933   0.00000  Uiso   1.00
C18    C     0.57755   0.83970   0.99916   0.00000  Uiso   1.00
O37    O     0.57038   0.99735   0.93584   0.00000  Uiso   1.00
O38    O     0.42849   0.99780   0.93607   0.00000  Uiso   1.00
C19    C     0.49945   0.99772   0.91352   0.00000  Uiso   1.00
Zn10   Zn    0.58626   0.99634   0.99949   0.00000  Uiso   1.00
O39    O     0.37112   0.11298   0.00016   0.00000  Uiso   1.00
O40    O     0.51304   0.11249   0.99984   0.00000  Uiso   1.00
C20    C     0.42184   0.15365   0.00023   0.00000  Uiso   1.00
O41    O     0.99575   0.57078   0.06311   0.00000  Uiso   1.00
O42    O     0.99561   0.42919   0.06316   0.00000  Uiso   1.00
C21    C     0.99559   0.49996   0.08557   0.00000  Uiso   1.00
Zn11   Zn    0.99692   0.58606   0.99943   0.00000  Uiso   1.00
O43    O     0.88027   0.48757   0.99921   0.00000  Uiso   1.00
O44    O     0.88077   0.62900   0.99910   0.00000  Uiso   1.00
C22    C     0.83961   0.57895   0.99908   0.00000  Uiso   1.00
O45    O     0.99727   0.42895   0.93582   0.00000  Uiso   1.00
O46    O     0.99772   0.57040   0.93578   0.00000  Uiso   1.00
C23    C     0.99765   0.49968   0.91337   0.00000  Uiso   1.00
Zn12   Zn    0.99625   0.41360   0.99950   0.00000  Uiso   1.00
O47    O     0.11289   0.51210   0.99981   0.00000  Uiso   1.00
O48    O     0.11240   0.37067   0.99976   0.00000  Uiso   1.00
C24    C     0.15356   0.42071   0.00000   0.00000  Uiso   1.00
C25    C     0.62376   0.75239   0.49978   0.00000  Uiso   1.00
C26    C     0.58236   0.70877   0.49986   0.00000  Uiso   1.00
C27    C     0.62386   0.62376   0.49988   0.00000  Uiso   1.00
C28    C     0.70887   0.58237   0.49982   0.00000  Uiso   1.00
C29    C     0.75238   0.62387   0.49974   0.00000  Uiso   1.00
C30    C     0.70877   0.70887   0.49972   0.00000  Uiso   1.00
H1     H     0.51721   0.74131   0.49990   0.00000  Uiso   1.00
H2     H     0.74131   0.74149   0.49966   0.00000  Uiso   1.00
H3     H     0.74149   0.51721   0.49983   0.00000  Uiso   1.00
C31    C     0.24762   0.37615   0.49927   0.00000  Uiso   1.00
C32    C     0.29114   0.41764   0.49950   0.00000  Uiso   1.00
C33    C     0.37614   0.37625   0.49966   0.00000  Uiso   1.00
C34    C     0.41763   0.29124   0.49961   0.00000  Uiso   1.00
C35    C     0.37624   0.24763   0.49939   0.00000  Uiso   1.00
C36    C     0.29123   0.29114   0.49922   0.00000  Uiso   1.00
H4     H     0.25852   0.48280   0.49954   0.00000  Uiso   1.00
H5     H     0.25869   0.25853   0.49905   0.00000  Uiso   1.00
H6     H     0.48279   0.25869   0.49973   0.00000  Uiso   1.00
C37    C     0.49965   0.49975   0.63370   0.00000  Uiso   1.00
C38    C     0.49961   0.49957   0.86632   0.00000  Uiso   1.00
C39    C     0.43723   0.56234   0.65700   0.00000  Uiso   1.00
C40    C     0.43664   0.56289   0.70330   0.00000  Uiso   1.00
C41    C     0.56203   0.43698   0.84302   0.00000  Uiso   1.00
C42    C     0.56262   0.43643   0.79672   0.00000  Uiso   1.00
C43    C     0.43719   0.56220   0.84307   0.00000  Uiso   1.00
C44    C     0.43662   0.56282   0.79678   0.00000  Uiso   1.00
C45    C     0.56206   0.43712   0.65694   0.00000  Uiso   1.00
C46    C     0.56264   0.43650   0.70324   0.00000  Uiso   1.00
C47    C     0.49963   0.49968   0.72669   0.00000  Uiso   1.00
C48    C     0.49962   0.49964   0.77333   0.00000  Uiso   1.00
H7     H     0.39397   0.60575   0.64118   0.00000  Uiso   1.00
H8     H     0.60529   0.39356   0.85884   0.00000  Uiso   1.00
H9     H     0.39392   0.60559   0.85893   0.00000  Uiso   1.00
H10    H     0.39318   0.60641   0.78114   0.00000  Uiso   1.00
H11    H     0.60534   0.39373   0.64108   0.00000  Uiso   1.00
H12    H     0.60608   0.39291   0.71887   0.00000  Uiso   1.00
C49    C     0.50024   0.50016   0.36632   0.00000  Uiso   1.00
C50    C     0.49991   0.50003   0.13369   0.00000  Uiso   1.00
C51    C     0.43785   0.56283   0.34307   0.00000  Uiso   1.00
C52    C     0.43721   0.56338   0.29678   0.00000  Uiso   1.00
C53    C     0.56229   0.43737   0.15694   0.00000  Uiso   1.00
C54    C     0.56293   0.43681   0.20324   0.00000  Uiso   1.00
C55    C     0.43759   0.56272   0.15700   0.00000  Uiso   1.00
C56    C     0.43708   0.56333   0.20330   0.00000  Uiso   1.00
C57    C     0.56255   0.43747   0.34301   0.00000  Uiso   1.00
C58    C     0.56307   0.43686   0.29671   0.00000  Uiso   1.00
C59    C     0.50011   0.50011   0.27333   0.00000  Uiso   1.00
C60    C     0.50004   0.50008   0.22668   0.00000  Uiso   1.00
H13    H     0.39465   0.60628   0.35894   0.00000  Uiso   1.00
H14    H     0.60549   0.39391   0.14108   0.00000  Uiso   1.00
H15    H     0.39435   0.60616   0.14118   0.00000  Uiso   1.00
H16    H     0.39370   0.60697   0.21897   0.00000  Uiso   1.00
H17    H     0.60579   0.39403   0.35883   0.00000  Uiso   1.00
H18    H     0.60644   0.39323   0.28104   0.00000  Uiso   1.00
C61    C     0.49972   0.99959   0.63331   0.00000  Uiso   1.00
C62    C     0.49950   0.99804   0.86593   0.00000  Uiso   1.00
C63    C     0.56231   0.99924   0.65652   0.00000  Uiso   1.00
C64    C     0.56285   0.99893   0.70282   0.00000  Uiso   1.00
C65    C     0.43691   0.99839   0.84271   0.00000  Uiso   1.00
C66    C     0.43637   0.99870   0.79642   0.00000  Uiso   1.00
C67    C     0.56213   0.99800   0.84260   0.00000  Uiso   1.00
C68    C     0.56276   0.99831   0.79630   0.00000  Uiso   1.00
C69    C     0.43708   0.99963   0.65664   0.00000  Uiso   1.00
C70    C     0.43646   0.99932   0.70294   0.00000  Uiso   1.00
C71    C     0.49963   0.99897   0.72630   0.00000  Uiso   1.00
C72    C     0.49959   0.99866   0.77294   0.00000  Uiso   1.00
H19    H     0.60573   0.99921   0.64064   0.00000  Uiso   1.00
H20    H     0.39349   0.99842   0.85860   0.00000  Uiso   1.00
H21    H     0.60552   0.99776   0.85840   0.00000  Uiso   1.00
H22    H     0.60635   0.99828   0.78061   0.00000  Uiso   1.00
H23    H     0.39370   0.99987   0.64084   0.00000  Uiso   1.00
H24    H     0.39286   0.99936   0.71863   0.00000  Uiso   1.00
C73    C     0.50018   0.00063   0.36593   0.00000  Uiso   1.00
C74    C     0.50010   0.00286   0.13330   0.00000  Uiso   1.00
C75    C     0.56285   0.00052   0.34260   0.00000  Uiso   1.00
C76    C     0.56342   0.00097   0.29630   0.00000  Uiso   1.00
C77    C     0.43743   0.00297   0.15664   0.00000  Uiso   1.00
C78    C     0.43686   0.00252   0.20293   0.00000  Uiso   1.00
C79    C     0.56278   0.00231   0.15652   0.00000  Uiso   1.00
C80    C     0.56338   0.00186   0.20282   0.00000  Uiso   1.00
C81    C     0.43750   0.00118   0.34271   0.00000  Uiso   1.00
C82    C     0.43690   0.00163   0.29641   0.00000  Uiso   1.00
C83    C     0.50015   0.00152   0.27294   0.00000  Uiso   1.00
C84    C     0.50013   0.00197   0.22629   0.00000  Uiso   1.00
H25    H     0.60631   0.00015   0.35840   0.00000  Uiso   1.00
H26    H     0.39397   0.00334   0.14083   0.00000  Uiso   1.00
H27    H     0.60622   0.00223   0.14064   0.00000  Uiso   1.00
H28    H     0.60701   0.00148   0.21843   0.00000  Uiso   1.00
H29    H     0.39405   0.00126   0.35859   0.00000  Uiso   1.00
H30    H     0.39326   0.00201   0.28080   0.00000  Uiso   1.00
C85    C     0.99956   0.49969   0.63315   0.00000  Uiso   1.00
C86    C     0.99797   0.49968   0.86578   0.00000  Uiso   1.00
C87    C     0.99921   0.43727   0.65649   0.00000  Uiso   1.00
C88    C     0.99889   0.43669   0.70278   0.00000  Uiso   1.00
C89    C     0.99833   0.56210   0.84244   0.00000  Uiso   1.00
C90    C     0.99865   0.56268   0.79615   0.00000  Uiso   1.00
C91    C     0.99794   0.43726   0.84256   0.00000  Uiso   1.00
C92    C     0.99825   0.43669   0.79626   0.00000  Uiso   1.00
C93    C     0.99960   0.56210   0.65637   0.00000  Uiso   1.00
C94    C     0.99928   0.56268   0.70267   0.00000  Uiso   1.00
C95    C     0.99893   0.49968   0.72614   0.00000  Uiso   1.00
C96    C     0.99861   0.49968   0.77279   0.00000  Uiso   1.00
H31    H     0.99918   0.39400   0.64068   0.00000  Uiso   1.00
H32    H     0.99835   0.60536   0.85825   0.00000  Uiso   1.00
H33    H     0.99769   0.39400   0.85844   0.00000  Uiso   1.00
H34    H     0.99822   0.39324   0.78065   0.00000  Uiso   1.00
H35    H     0.99984   0.60537   0.64049   0.00000  Uiso   1.00
H36    H     0.99931   0.60612   0.71828   0.00000  Uiso   1.00
C97    C     0.00065   0.50022   0.36577   0.00000  Uiso   1.00
C98    C     0.00292   0.49985   0.13314   0.00000  Uiso   1.00
C99    C     0.00055   0.43784   0.34256   0.00000  Uiso   1.00
C100   C     0.00100   0.43718   0.29626   0.00000  Uiso   1.00
C101   C     0.00302   0.56224   0.15636   0.00000  Uiso   1.00
C102   C     0.00257   0.56289   0.20266   0.00000  Uiso   1.00
C103   C     0.00236   0.43754   0.15649   0.00000  Uiso   1.00
C104   C     0.00191   0.43703   0.20278   0.00000  Uiso   1.00
C105   C     0.00121   0.56253   0.34243   0.00000  Uiso   1.00
C106   C     0.00166   0.56304   0.29614   0.00000  Uiso   1.00
C107   C     0.00156   0.50007   0.27278   0.00000  Uiso   1.00
C108   C     0.00201   0.50000   0.22613   0.00000  Uiso   1.00
H37    H     0.00016   0.39464   0.35844   0.00000  Uiso   1.00
H38    H     0.00340   0.60544   0.14048   0.00000  Uiso   1.00
H39    H     0.00229   0.39430   0.14068   0.00000  Uiso   1.00
H40    H     0.00153   0.39366   0.21848   0.00000  Uiso   1.00
H41    H     0.00128   0.60578   0.35824   0.00000  Uiso   1.00
H42    H     0.00204   0.60641   0.28044   0.00000  Uiso   1.00
C109   C     0.75368   0.62158   0.99859   0.00000  Uiso   1.00
C110   C     0.70967   0.58059   0.99888   0.00000  Uiso   1.00
C111   C     0.62466   0.62249   0.99905   0.00000  Uiso   1.00
C112   C     0.58367   0.70748   0.99892   0.00000  Uiso   1.00
C113   C     0.62556   0.75060   0.99863   0.00000  Uiso   1.00
C114   C     0.71056   0.70660   0.99846   0.00000  Uiso   1.00
H43    H     0.74191   0.51543   0.99898   0.00000  Uiso   1.00
H44    H     0.74348   0.73883   0.99824   0.00000  Uiso   1.00
H45    H     0.51851   0.74041   0.99905   0.00000  Uiso   1.00
C115   C     0.37392   0.24897   0.00239   0.00000  Uiso   1.00
C116   C     0.41581   0.29209   0.00180   0.00000  Uiso   1.00
C117   C     0.37482   0.37709   0.00144   0.00000  Uiso   1.00
C118   C     0.28981   0.41898   0.00168   0.00000  Uiso   1.00
C119   C     0.24580   0.37799   0.00228   0.00000  Uiso   1.00
C120   C     0.28892   0.29298   0.00262   0.00000  Uiso   1.00
H46    H     0.48097   0.25917   0.00161   0.00000  Uiso   1.00
H47    H     0.25600   0.26074   0.00308   0.00000  Uiso   1.00
H48    H     0.25757   0.48414   0.00141   0.00000  Uiso   1.00
O49    O     0.37790   0.62179   0.72448   0.00000  Uiso   1.00
Li1    Li    0.29294   0.70703   0.70763   0.00000  Uiso   1.00
O50    O     0.62136   0.37753   0.77553   0.00000  Uiso   1.00
Li2    Li    0.70632   0.29229   0.79239   0.00000  Uiso   1.00
O51    O     0.37851   0.62235   0.27564   0.00000  Uiso   1.00
Li3    Li    0.29366   0.70768   0.29258   0.00000  Uiso   1.00
O52    O     0.62164   0.37784   0.22437   0.00000  Uiso   1.00
Li4    Li    0.70648   0.29251   0.20743   0.00000  Uiso   1.00
O53    O     0.62175   0.99861   0.72393   0.00000  Uiso   1.00
Li5    Li    0.70699   0.99845   0.70695   0.00000  Uiso   1.00
O54    O     0.37747   0.99903   0.77531   0.00000  Uiso   1.00
Li6    Li    0.29223   0.99918   0.79229   0.00000  Uiso   1.00
O55    O     0.62239   0.00086   0.27509   0.00000  Uiso   1.00
Li7    Li    0.70772   0.00025   0.29191   0.00000  Uiso   1.00
O56    O     0.37789   0.00263   0.22415   0.00000  Uiso   1.00
Li8    Li    0.29256   0.00324   0.20733   0.00000  Uiso   1.00
O57    O     0.99856   0.37795   0.72400   0.00000  Uiso   1.00
Li9    Li    0.99841   0.29299   0.70718   0.00000  Uiso   1.00
O58    O     0.99897   0.62142   0.77493   0.00000  Uiso   1.00
Li10   Li    0.99912   0.70638   0.79175   0.00000  Uiso   1.00
O59    O     0.00089   0.37848   0.27516   0.00000  Uiso   1.00
Li11   Li    0.00028   0.29363   0.29214   0.00000  Uiso   1.00
O60    O     0.00268   0.62160   0.22376   0.00000  Uiso   1.00
Li12   Li    0.00329   0.70644   0.20678   0.00000  Uiso   1.00
