data_DB1-Zn2O8N2-AZO_A-fum_A_No158_repeat
_audit_creation_date              2024-02-20
_audit_creation_method            'Materials Studio'
_symmetry_space_group_name_H-M    'P1'
_symmetry_Int_Tables_number       1
_symmetry_cell_setting            triclinic
loop_
_symmetry_equiv_pos_as_xyz
  x,y,z
_cell_length_a                    16.4924
_cell_length_b                    17.4766
_cell_length_c                    8.9557
_cell_angle_alpha                 89.4524
_cell_angle_beta                  85.3349
_cell_angle_gamma                 84.4493
loop_
_atom_site_label
_atom_site_type_symbol
_atom_site_fract_x
_atom_site_fract_y
_atom_site_fract_z
_atom_site_U_iso_or_equiv
_atom_site_adp_type
_atom_site_occupancy
O1     O     0.58870   0.38597   0.50802   0.00000  Uiso   1.00
O2     O     0.42413   0.39249   0.49442   0.00000  Uiso   1.00
C1     C     0.50874   0.35020   0.50121   0.00000  Uiso   1.00
Zn1    Zn    0.60039   0.49604   0.50784   0.00000  Uiso   1.00
O3     O     0.40329   0.50382   0.70940   0.00000  Uiso   1.00
O4     O     0.56790   0.49741   0.72235   0.00000  Uiso   1.00
C2     C     0.48060   0.50076   0.79197   0.00000  Uiso   1.00
O5     O     0.41128   0.61405   0.49227   0.00000  Uiso   1.00
O6     O     0.57589   0.60753   0.50531   0.00000  Uiso   1.00
C3     C     0.49127   0.64982   0.49867   0.00000  Uiso   1.00
Zn2    Zn    0.39960   0.50398   0.49218   0.00000  Uiso   1.00
O7     O     0.59672   0.49605   0.29061   0.00000  Uiso   1.00
O8     O     0.43209   0.50274   0.27767   0.00000  Uiso   1.00
C4     C     0.51941   0.49900   0.20805   0.00000  Uiso   1.00
N1     N     0.28149   0.50865   0.48297   0.00000  Uiso   1.00
C5     C     0.23421   0.46149   0.57606   0.00000  Uiso   1.00
C6     C     0.14932   0.46498   0.56917   0.00000  Uiso   1.00
C7     C     0.10999   0.51562   0.46921   0.00000  Uiso   1.00
C8     C     0.15663   0.56258   0.37652   0.00000  Uiso   1.00
C9     C     0.24150   0.55928   0.38303   0.00000  Uiso   1.00
N2     N     0.02313   0.52050   0.45957   0.00000  Uiso   1.00
N3     N     0.97686   0.47952   0.54047   0.00000  Uiso   1.00
C10    C     0.84336   0.43744   0.62352   0.00000  Uiso   1.00
C11    C     0.89001   0.48440   0.53083   0.00000  Uiso   1.00
C12    C     0.85067   0.53504   0.43087   0.00000  Uiso   1.00
C13    C     0.76579   0.53853   0.42398   0.00000  Uiso   1.00
N4     N     0.71850   0.49137   0.51707   0.00000  Uiso   1.00
C14    C     0.75850   0.44074   0.61701   0.00000  Uiso   1.00
H1     H     0.26334   0.42206   0.65388   0.00000  Uiso   1.00
H2     H     0.11410   0.42836   0.64145   0.00000  Uiso   1.00
H3     H     0.87311   0.39826   0.70087   0.00000  Uiso   1.00
H4     H     0.88590   0.57166   0.35859   0.00000  Uiso   1.00
C15    C     0.51383   0.26447   0.50148   0.00000  Uiso   1.00
C16    C     0.44293   0.22588   0.49579   0.00000  Uiso   1.00
C17    C     0.44790   0.14536   0.49605   0.00000  Uiso   1.00
C18    C     0.52376   0.10178   0.50200   0.00000  Uiso   1.00
C19    C     0.59437   0.13980   0.50766   0.00000  Uiso   1.00
C20    C     0.58968   0.22028   0.50742   0.00000  Uiso   1.00
N5     N     0.53082   0.01922   0.50242   0.00000  Uiso   1.00
N6     N     0.46919   0.98080   0.49747   0.00000  Uiso   1.00
C21    C     0.40564   0.86023   0.49223   0.00000  Uiso   1.00
C22    C     0.47625   0.89824   0.49789   0.00000  Uiso   1.00
C23    C     0.55211   0.85467   0.50384   0.00000  Uiso   1.00
C24    C     0.55708   0.77414   0.50410   0.00000  Uiso   1.00
C25    C     0.48618   0.73555   0.49841   0.00000  Uiso   1.00
C26    C     0.41033   0.77975   0.49247   0.00000  Uiso   1.00
H5     H     0.38386   0.25839   0.49116   0.00000  Uiso   1.00
H6     H     0.39285   0.11679   0.49164   0.00000  Uiso   1.00
H7     H     0.34694   0.89329   0.48763   0.00000  Uiso   1.00
H8     H     0.60716   0.88323   0.50825   0.00000  Uiso   1.00
C27    C     0.53134   0.49864   0.04329   0.00000  Uiso   1.00
C28    C     0.46867   0.50112   0.95673   0.00000  Uiso   1.00
O9     O     0.28321   0.60349   0.29577   0.00000  Uiso   1.00
Li1    Li    0.25637   0.67048   0.16354   0.00000  Uiso   1.00
O10    O     0.12095   0.60959   0.28373   0.00000  Uiso   1.00
Li2    Li    0.02123   0.62937   0.24467   0.00000  Uiso   1.00
O11    O     0.71678   0.39653   0.70427   0.00000  Uiso   1.00
Li3    Li    0.74362   0.32954   0.83650   0.00000  Uiso   1.00
O12    O     0.73086   0.58579   0.33070   0.00000  Uiso   1.00
Li4    Li    0.76747   0.65025   0.20345   0.00000  Uiso   1.00
O13    O     0.65614   0.25399   0.51274   0.00000  Uiso   1.00
Li5    Li    0.75657   0.22012   0.52065   0.00000  Uiso   1.00
O14    O     0.66479   0.10013   0.51318   0.00000  Uiso   1.00
Li6    Li    0.69417   0.00354   0.51535   0.00000  Uiso   1.00
O15    O     0.34387   0.74603   0.48715   0.00000  Uiso   1.00
Li7    Li    0.24344   0.77990   0.47924   0.00000  Uiso   1.00
O16    O     0.62788   0.73517   0.50965   0.00000  Uiso   1.00
Li8    Li    0.72472   0.76148   0.51737   0.00000  Uiso   1.00
O17    O     0.63763   0.54474   0.84200   0.00000  Uiso   1.00
O18    O     0.68287   0.44265   0.03332   0.00000  Uiso   1.00
N7     N     0.61797   0.49531   0.97231   0.00000  Uiso   1.00
O19    O     0.35648   0.55547   0.15726   0.00000  Uiso   1.00
O20    O     0.32304   0.45667   0.96745   0.00000  Uiso   1.00
N8     N     0.38205   0.50445   0.02770   0.00000  Uiso   1.00
