data_DB1-Zn2O8N2-irmof10_A-irmof7_A_No25_repeat
_audit_creation_date              2024-02-23
_audit_creation_method            'Materials Studio'
_symmetry_space_group_name_H-M    'P1'
_symmetry_Int_Tables_number       1
_symmetry_cell_setting            triclinic
loop_
_symmetry_equiv_pos_as_xyz
  x,y,z
_cell_length_a                    10.7438
_cell_length_b                    25.8895
_cell_length_c                    14.2624
_cell_angle_alpha                 90.0407
_cell_angle_beta                  89.8817
_cell_angle_gamma                 89.7758
loop_
_atom_site_label
_atom_site_type_symbol
_atom_site_fract_x
_atom_site_fract_y
_atom_site_fract_z
_atom_site_U_iso_or_equiv
_atom_site_adp_type
_atom_site_occupancy
O1     O     0.50116   0.42551   0.59520   0.00000  Uiso   1.00
O2     O     0.50053   0.42552   0.40463   0.00000  Uiso   1.00
C1     C     0.50078   0.39926   0.49993   0.00000  Uiso   1.00
Zn1    Zn    0.50000   0.50001   0.61623   0.00000  Uiso   1.00
O3     O     0.67946   0.50002   0.40454   0.00000  Uiso   1.00
O4     O     0.67954   0.50009   0.59512   0.00000  Uiso   1.00
C2     C     0.74278   0.50002   0.49987   0.00000  Uiso   1.00
O5     O     0.49908   0.57451   0.40480   0.00000  Uiso   1.00
O6     O     0.49924   0.57450   0.59537   0.00000  Uiso   1.00
C3     C     0.49912   0.60075   0.50007   0.00000  Uiso   1.00
Zn2    Zn    0.50001   0.50000   0.38377   0.00000  Uiso   1.00
O7     O     0.32054   0.49989   0.59546   0.00000  Uiso   1.00
O8     O     0.32046   0.50001   0.40488   0.00000  Uiso   1.00
C4     C     0.25723   0.49981   0.50014   0.00000  Uiso   1.00
O9     O     0.50016   0.98948   0.40486   0.00000  Uiso   1.00
O10    O     0.49985   0.98947   0.59544   0.00000  Uiso   1.00
C5     C     0.49987   0.01572   0.50013   0.00000  Uiso   1.00
Zn3    Zn    0.49919   0.91498   0.38384   0.00000  Uiso   1.00
O11    O     0.67901   0.91448   0.59480   0.00000  Uiso   1.00
O12    O     0.67877   0.91441   0.40422   0.00000  Uiso   1.00
C6     C     0.74216   0.91430   0.49922   0.00000  Uiso   1.00
O13    O     0.49884   0.84048   0.59527   0.00000  Uiso   1.00
O14    O     0.49868   0.84049   0.40470   0.00000  Uiso   1.00
C7     C     0.49880   0.81424   0.49999   0.00000  Uiso   1.00
Zn4    Zn    0.49959   0.91498   0.61629   0.00000  Uiso   1.00
O15    O     0.31977   0.91559   0.40533   0.00000  Uiso   1.00
O16    O     0.32000   0.91546   0.59592   0.00000  Uiso   1.00
C8     C     0.25662   0.91584   0.50091   0.00000  Uiso   1.00
N1     N     0.50000   0.50001   0.75296   0.00000  Uiso   1.00
N2     N     0.50002   0.50000   0.24704   0.00000  Uiso   1.00
C9     C     0.42063   0.53271   0.80257   0.00000  Uiso   1.00
C10    C     0.41990   0.53302   0.90090   0.00000  Uiso   1.00
C11    C     0.57939   0.46730   0.19743   0.00000  Uiso   1.00
C12    C     0.58013   0.46699   0.09910   0.00000  Uiso   1.00
C13    C     0.42065   0.53271   0.19777   0.00000  Uiso   1.00
C14    C     0.41991   0.53302   0.09944   0.00000  Uiso   1.00
C15    C     0.57938   0.46730   0.80223   0.00000  Uiso   1.00
C16    C     0.58012   0.46699   0.90056   0.00000  Uiso   1.00
C17    C     0.50001   0.50001   0.95046   0.00000  Uiso   1.00
C18    C     0.50002   0.50001   0.04954   0.00000  Uiso   1.00
H1     H     0.36561   0.55539   0.76904   0.00000  Uiso   1.00
H2     H     0.36466   0.55578   0.93426   0.00000  Uiso   1.00
H3     H     0.63441   0.44462   0.23096   0.00000  Uiso   1.00
H4     H     0.63537   0.44423   0.06574   0.00000  Uiso   1.00
H5     H     0.36563   0.55538   0.23153   0.00000  Uiso   1.00
H6     H     0.36466   0.55578   0.06631   0.00000  Uiso   1.00
H7     H     0.63440   0.44463   0.76847   0.00000  Uiso   1.00
H8     H     0.63537   0.44423   0.93369   0.00000  Uiso   1.00
C19    C     0.49889   0.75787   0.50002   0.00000  Uiso   1.00
C20    C     0.41840   0.73158   0.56088   0.00000  Uiso   1.00
C21    C     0.57945   0.73130   0.43917   0.00000  Uiso   1.00
C22    C     0.33970   0.75965   0.62032   0.00000  Uiso   1.00
C23    C     0.25828   0.73495   0.68190   0.00000  Uiso   1.00
H9     H     0.34177   0.79551   0.61870   0.00000  Uiso   1.00
C24    C     0.49904   0.65711   0.50005   0.00000  Uiso   1.00
C25    C     0.57952   0.68341   0.43918   0.00000  Uiso   1.00
C26    C     0.41847   0.68369   0.56090   0.00000  Uiso   1.00
C27    C     0.33986   0.65590   0.62036   0.00000  Uiso   1.00
C28    C     0.25836   0.68088   0.68192   0.00000  Uiso   1.00
H10    H     0.34203   0.62003   0.61877   0.00000  Uiso   1.00
H11    H     0.63207   0.66494   0.39950   0.00000  Uiso   1.00
H12    H     0.63194   0.74958   0.39946   0.00000  Uiso   1.00
C29    C     0.50065   0.34359   0.49996   0.00000  Uiso   1.00
C30    C     0.50000   0.07140   0.50011   0.00000  Uiso   1.00
C31    C     0.50086   0.31639   0.58407   0.00000  Uiso   1.00
C32    C     0.50073   0.26223   0.58488   0.00000  Uiso   1.00
C33    C     0.49979   0.09859   0.41600   0.00000  Uiso   1.00
C34    C     0.49991   0.15276   0.41518   0.00000  Uiso   1.00
C35    C     0.50034   0.09868   0.58419   0.00000  Uiso   1.00
C36    C     0.50047   0.15285   0.58494   0.00000  Uiso   1.00
C37    C     0.50031   0.31630   0.41588   0.00000  Uiso   1.00
C38    C     0.50018   0.26213   0.41513   0.00000  Uiso   1.00
C39    C     0.50039   0.23478   0.50002   0.00000  Uiso   1.00
C40    C     0.50026   0.18020   0.50005   0.00000  Uiso   1.00
H13    H     0.50110   0.33496   0.64235   0.00000  Uiso   1.00
H14    H     0.50088   0.24394   0.64342   0.00000  Uiso   1.00
H15    H     0.49955   0.08002   0.35771   0.00000  Uiso   1.00
H16    H     0.49977   0.17104   0.35664   0.00000  Uiso   1.00
H17    H     0.50049   0.08018   0.64249   0.00000  Uiso   1.00
H18    H     0.50071   0.17120   0.64346   0.00000  Uiso   1.00
H19    H     0.50016   0.33481   0.35757   0.00000  Uiso   1.00
H20    H     0.49994   0.24379   0.35660   0.00000  Uiso   1.00
C41    C     0.12141   0.49987   0.50007   0.00000  Uiso   1.00
C42    C     0.05816   0.46643   0.43933   0.00000  Uiso   1.00
C43    C     0.05724   0.53335   0.56073   0.00000  Uiso   1.00
C44    C     0.12592   0.43372   0.38008   0.00000  Uiso   1.00
C45    C     0.06652   0.39990   0.31864   0.00000  Uiso   1.00
H21    H     0.21233   0.43457   0.38172   0.00000  Uiso   1.00
C46    C     0.87860   0.49997   0.49994   0.00000  Uiso   1.00
C47    C     0.94185   0.53340   0.56067   0.00000  Uiso   1.00
C48    C     0.94276   0.46648   0.43927   0.00000  Uiso   1.00
C49    C     0.87590   0.43382   0.37995   0.00000  Uiso   1.00
C50    C     0.93622   0.39995   0.31858   0.00000  Uiso   1.00
H22    H     0.78946   0.43474   0.38150   0.00000  Uiso   1.00
H23    H     0.89726   0.55525   0.60023   0.00000  Uiso   1.00
H24    H     0.10124   0.55516   0.60034   0.00000  Uiso   1.00
N3     N     0.49897   0.91498   0.24711   0.00000  Uiso   1.00
N4     N     0.49817   0.91499   0.75303   0.00000  Uiso   1.00
C51    C     0.41961   0.88249   0.19782   0.00000  Uiso   1.00
C52    C     0.41872   0.88219   0.09949   0.00000  Uiso   1.00
C53    C     0.57753   0.94748   0.80232   0.00000  Uiso   1.00
C54    C     0.57842   0.94778   0.90065   0.00000  Uiso   1.00
C55    C     0.41898   0.88249   0.80262   0.00000  Uiso   1.00
C56    C     0.41840   0.88219   0.90096   0.00000  Uiso   1.00
C57    C     0.57816   0.94747   0.19751   0.00000  Uiso   1.00
C58    C     0.57874   0.94777   0.09918   0.00000  Uiso   1.00
C59    C     0.49865   0.91498   0.04961   0.00000  Uiso   1.00
C60    C     0.49849   0.91498   0.95053   0.00000  Uiso   1.00
H25    H     0.36472   0.85997   0.23157   0.00000  Uiso   1.00
H26    H     0.36349   0.85957   0.06635   0.00000  Uiso   1.00
H27    H     0.63243   0.97000   0.76856   0.00000  Uiso   1.00
H28    H     0.63365   0.97039   0.93378   0.00000  Uiso   1.00
H29    H     0.36397   0.85997   0.76908   0.00000  Uiso   1.00
H30    H     0.36328   0.85958   0.93430   0.00000  Uiso   1.00
H31    H     0.63317   0.96999   0.23106   0.00000  Uiso   1.00
H32    H     0.63387   0.97039   0.06583   0.00000  Uiso   1.00
C61    C     0.12079   0.91342   0.49748   0.00000  Uiso   1.00
C62    C     0.05754   0.94703   0.55847   0.00000  Uiso   1.00
C63    C     0.05663   0.88011   0.43708   0.00000  Uiso   1.00
C64    C     0.12530   0.97955   0.61745   0.00000  Uiso   1.00
C65    C     0.06591   0.01354   0.67913   0.00000  Uiso   1.00
H33    H     0.21171   0.97847   0.61545   0.00000  Uiso   1.00
C66    C     0.87799   0.91398   0.49859   0.00000  Uiso   1.00
C67    C     0.94123   0.88037   0.43761   0.00000  Uiso   1.00
C68    C     0.94215   0.94729   0.55900   0.00000  Uiso   1.00
C69    C     0.87529   0.98013   0.61859   0.00000  Uiso   1.00
C70    C     0.93561   0.01384   0.67972   0.00000  Uiso   1.00
H34    H     0.78885   0.97945   0.61739   0.00000  Uiso   1.00
H35    H     0.89664   0.85865   0.39822   0.00000  Uiso   1.00
H36    H     0.10062   0.85818   0.39729   0.00000  Uiso   1.00
O17    O     0.18530   0.76113   0.73702   0.00000  Uiso   1.00
Li1    Li    0.16239   0.82589   0.75424   0.00000  Uiso   1.00
O18    O     0.18545   0.65496   0.73706   0.00000  Uiso   1.00
Li2    Li    0.16274   0.59028   0.75432   0.00000  Uiso   1.00
O19    O     0.12971   0.36956   0.26369   0.00000  Uiso   1.00
Li3    Li    0.28579   0.36001   0.24658   0.00000  Uiso   1.00
O20    O     0.87386   0.36967   0.26356   0.00000  Uiso   1.00
Li4    Li    0.71804   0.36025   0.24628   0.00000  Uiso   1.00
O21    O     0.12910   0.04370   0.73382   0.00000  Uiso   1.00
Li5    Li    0.28518   0.05282   0.75030   0.00000  Uiso   1.00
O22    O     0.87325   0.04430   0.73499   0.00000  Uiso   1.00
Li6    Li    0.71743   0.05414   0.75290   0.00000  Uiso   1.00
