# Generated by REPEAT Assigner based on pymatgen
data_DB1-Cu2O8-irmof14_A-irmof16_A_No622
_audit_creation_date              2022-05-24
_audit_creation_method            REPEAT_Assigner
_cell_length_a                    29.794200
_cell_length_b                    58.974400
_cell_length_c                    20.941000
_cell_angle_alpha                 122.295000
_cell_angle_beta                  45.168000
_cell_angle_gamma                 139.276000
_cell_volume                      17024.403899
_symmetry_space_group_name_H-M    P1
_symmetry_Int_Tables_number       1
loop_
    _symmetry_equiv_pos_site_id
    _symmetry_equiv_pos_as_xyz
    1  x,y,z
loop_
    _atom_site_type_symbol
    _atom_site_label
    _atom_site_fract_x
    _atom_site_fract_y
    _atom_site_fract_z
    _atom_type_partial_charge
    Cu  Cu1   0.457480  0.499960  0.585690  1.182800
    Cu  Cu2   0.542530  0.500040  0.414310  1.176789
    O   O1    0.392490  0.454770  0.579780  -0.536964
    O   O2    0.528200  0.545240  0.580050  -0.536513
    O   O3    0.402000  0.500060  0.579910  -0.556323
    O   O4    0.518690  0.499960  0.579910  -0.560614
    O   O5    0.598020  0.499950  0.420090  -0.554046
    O   O6    0.481300  0.500030  0.420080  -0.563131
    O   O7    0.607500  0.545270  0.420220  -0.619387
    O   O8    0.471820  0.454760  0.419950  -0.618034
    C   C1    0.402210  0.434820  0.499800  0.502616
    C   C2    0.597790  0.565180  0.500200  0.504239
    C   C3    0.415890  0.500040  0.500000  0.584587
    C   C4    0.584110  0.499950  0.500000  0.585298
    Cu  Cu3   0.042400  0.499950  0.414280  1.149750
    Cu  Cu4   0.957600  0.500030  0.585670  1.202247
    O   O9    0.971790  0.454760  0.420230  -0.527987
    O   O10   0.107550  0.545230  0.419900  -0.525255
    O   O11   0.098160  0.500040  0.420060  -0.551068
    O   O12   0.981180  0.499950  0.420060  -0.553710
    O   O13   0.901850  0.499950  0.579890  -0.561983
    O   O14   0.018800  0.500020  0.579890  -0.571791
    O   O15   0.028330  0.545260  0.579720  -0.615900
    O   O16   0.892430  0.454750  0.580050  -0.614423
    C   C5    0.902200  0.434810  0.500220  0.490642
    C   C6    0.097800  0.565170  0.499740  0.485406
    C   C7    0.084240  0.500030  0.499980  0.591293
    C   C8    0.915760  0.499950  0.499980  0.580138
    Cu  Cu5   0.707020  0.000060  0.498180  1.121084
    Cu  Cu6   0.791950  0.999930  0.498820  1.112269
    O   O17   0.777700  0.045240  0.498380  -0.607984
    O   O18   0.641810  0.954770  0.498300  -0.534189
    O   O19   0.651430  0.999980  0.615540  -0.565342
    O   O20   0.768080  0.000030  0.381140  -0.567474
    O   O21   0.847530  0.999990  0.381470  -0.592414
    O   O22   0.730910  0.999970  0.615870  -0.595470
    O   O23   0.721150  0.954710  0.498750  -0.526762
    O   O24   0.857180  0.045220  0.498680  -0.534173
    C   C9    0.847380  0.065180  0.498590  0.584066
    C   C10   0.651590  0.934810  0.498410  0.558922
    C   C11   0.665490  0.999990  0.667380  0.630126
    C   C12   0.833490  0.000000  0.329620  0.626505
    Cu  Cu7   0.293590  0.999910  0.501520  1.131118
    Cu  Cu8   0.208360  0.000090  0.501690  1.106187
    O   O25   0.222820  0.954730  0.501420  -0.613110
    O   O26   0.358620  0.045200  0.501900  -0.538559
    O   O27   0.232560  0.999870  0.618860  -0.576705
    O   O28   0.348880  0.000050  0.384460  -0.570182
    O   O29   0.269410  0.000150  0.384360  -0.586459
    O   O30   0.153050  0.999940  0.618750  -0.589863
    O   O31   0.279130  0.045320  0.501920  -0.538271
    O   O32   0.143340  0.954810  0.501280  -0.542501
    C   C13   0.153110  0.934820  0.501290  0.601614
    C   C14   0.348840  0.065190  0.501920  0.576407
    C   C15   0.167130  0.999840  0.670490  0.629020
    C   C16   0.334820  0.000160  0.332730  0.624738
    C   C17   0.693320  0.499950  0.419780  -0.103809
    C   C18   0.738340  0.499950  0.423710  0.067488
    C   C19   0.803080  0.499950  0.345450  0.054623
    H   H1    0.706080  0.499950  0.364450  0.131808
    C   C20   0.613830  0.499950  0.580210  -0.176529
    C   C21   0.662750  0.499950  0.576280  0.118900
    C   C22   0.649940  0.499950  0.654520  0.024352
    H   H2    0.571760  0.499950  0.635540  0.187321
    C   C23   0.806540  0.499950  0.580190  -0.197746
    C   C24   0.761520  0.499950  0.576270  0.144598
    C   C25   0.696790  0.499950  0.654520  0.002544
    H   H3    0.793780  0.499950  0.635520  0.189843
    C   C26   0.886030  0.499950  0.419770  -0.119039
    C   C27   0.837120  0.499950  0.423700  0.088009
    C   C28   0.849930  0.499950  0.345450  0.030254
    H   H4    0.928110  0.499950  0.364440  0.143392
    C   C29   0.629000  0.499950  0.499990  -0.015675
    C   C30   0.727780  0.499950  0.499990  0.029315
    C   C31   0.870870  0.499950  0.499980  -0.002104
    C   C32   0.772090  0.499950  0.499990  0.007461
    C   C33   0.386150  0.500030  0.419780  -0.103590
    C   C34   0.337240  0.500030  0.423710  0.068487
    C   C35   0.350030  0.500010  0.345450  0.075097
    H   H5    0.428210  0.500020  0.364450  0.130482
    C   C36   0.306690  0.500050  0.580210  -0.187120
    C   C37   0.261670  0.500050  0.576280  0.123198
    C   C38   0.196950  0.500060  0.654520  0.032364
    H   H6    0.293940  0.500060  0.635540  0.189882
    C   C39   0.113980  0.500050  0.580190  -0.180454
    C   C40   0.162890  0.500050  0.576270  0.134903
    C   C41   0.150100  0.500060  0.654520  0.008099
    H   H7    0.071920  0.500060  0.635520  0.180515
    C   C42   0.193440  0.500020  0.419770  -0.136696
    C   C43   0.238460  0.500020  0.423700  0.104957
    C   C44   0.303180  0.500010  0.345450  0.006601
    H   H8    0.206190  0.500010  0.364440  0.150291
    C   C45   0.371000  0.500040  0.499990  -0.009181
    C   C46   0.272220  0.500040  0.499990  0.028096
    C   C47   0.129130  0.500030  0.499980  -0.006267
    C   C48   0.227910  0.500040  0.499990  0.001702
    C   C49   0.901210  0.101040  0.498710  -0.146791
    C   C50   0.887330  0.118860  0.498620  -0.113578
    C   C51   0.941930  0.155160  0.498740  -0.186035
    C   C52   0.968400  0.118730  0.498920  0.317393
    C   C53   0.022790  0.155040  0.499040  -0.140049
    C   C54   0.010030  0.173530  0.498950  0.067449
    C   C55   0.069550  0.213190  0.499080  0.080566
    C   C56   0.097340  0.231660  0.556950  -0.140803
    C   C57   0.097430  0.231810  0.441320  -0.159910
    H   H9    0.837390  0.105320  0.498460  0.180511
    H   H10   0.932350  0.168600  0.498670  0.140730
    H   H11   0.072590  0.168390  0.499190  0.136930
    H   H12   0.077560  0.218450  0.599540  0.133494
    H   H13   0.077730  0.218710  0.398640  0.147438
    C   C58   0.348390  0.398960  0.499680  -0.120180
    C   C59   0.362330  0.381240  0.417970  0.339064
    C   C60   0.307740  0.344930  0.418060  -0.240433
    C   C61   0.281130  0.381150  0.581280  -0.079116
    C   C62   0.226740  0.344850  0.580950  -0.206672
    C   C63   0.239570  0.326460  0.499440  0.106901
    C   C64   0.180050  0.286800  0.499320  0.070829
    C   C65   0.152260  0.268330  0.441440  -0.142079
    C   C66   0.152160  0.268190  0.557070  -0.143032
    H   H14   0.317370  0.331570  0.358200  0.186489
    H   H15   0.271920  0.394710  0.640850  0.152859
    H   H16   0.176890  0.331420  0.640720  0.149226
    H   H17   0.172040  0.281540  0.398850  0.127401
    H   H18   0.171870  0.281280  0.599750  0.133467
    C   C67   0.099240  0.898960  0.501190  -0.163594
    C   C68   0.113090  0.881110  0.501210  -0.104860
    C   C69   0.058440  0.844810  0.501100  -0.187994
    C   C70   0.032030  0.881290  0.501060  0.328678
    C   C71   0.977590  0.844990  0.500960  -0.135474
    C   C72   0.990330  0.826460  0.500970  0.060774
    C   C73   0.930750  0.786810  0.500860  0.086695
    C   C74   0.845580  0.768300  0.558460  -0.144432
    C   C75   0.960200  0.768230  0.443140  -0.152027
    H   H19   0.163040  0.894630  0.501300  0.176518
    H   H20   0.068010  0.831340  0.501110  0.140769
    H   H21   0.927780  0.831660  0.500860  0.136255
    H   H22   0.823080  0.781480  0.601010  0.132985
    H   H23   0.022210  0.781350  0.400660  0.142510
    C   C76   0.651660  0.601040  0.500300  -0.119116
    C   C77   0.718900  0.618840  0.418700  0.339683
    C   C78   0.773340  0.655140  0.419010  -0.244192
    C   C79   0.637790  0.618760  0.582010  -0.080953
    C   C80   0.692430  0.655070  0.581910  -0.191664
    C   C81   0.760580  0.673540  0.500520  0.095932
    C   C82   0.820150  0.713190  0.500640  0.079467
    C   C83   0.905320  0.731700  0.443030  -0.152434
    C   C84   0.790700  0.731770  0.558350  -0.149171
    H   H24   0.823170  0.668570  0.359240  0.189251
    H   H25   0.587810  0.605150  0.641500  0.150366
    H   H26   0.682850  0.668440  0.641770  0.141882
    H   H27   0.927820  0.718520  0.400480  0.132034
    H   H28   0.728690  0.718650  0.600830  0.138959
    C   C85   0.401680  0.101030  0.501510  -0.115423
    C   C86   0.469030  0.118850  0.501590  -0.060542
    C   C87   0.523370  0.155150  0.501450  -0.156384
    C   C88   0.387600  0.118730  0.501290  0.278234
    C   C89   0.442140  0.155030  0.501150  -0.254657
    C   C90   0.510390  0.173520  0.501230  0.091494
    C   C91   0.569860  0.213180  0.501080  0.071062
    C   C92   0.597490  0.231650  0.443190  -0.178486
    C   C93   0.597840  0.231800  0.558820  -0.103360
    H   H29   0.478340  0.105310  0.501760  0.126215
    H   H30   0.573280  0.168590  0.501510  0.120227
    H   H31   0.432400  0.168380  0.500990  0.193592
    H   H32   0.577650  0.218440  0.400610  0.153341
    H   H33   0.578250  0.218700  0.601500  0.127738
    C   C94   0.848430  0.398950  0.500360  -0.112268
    C   C95   0.781320  0.381230  0.582080  0.356454
    C   C96   0.726980  0.344930  0.582010  -0.250118
    C   C97   0.862270  0.381140  0.418770  -0.091041
    C   C98   0.807720  0.344840  0.419120  -0.190082
    C   C99   0.739710  0.326450  0.500640  0.093438
    C   C100  0.680250  0.286800  0.500790  0.079511
    C   C101  0.652610  0.268330  0.558680  -0.177733
    C   C102  0.652270  0.268180  0.443050  -0.128631
    H   H34   0.677250  0.331560  0.641880  0.192337
    H   H35   0.912140  0.394700  0.359190  0.163126
    H   H36   0.817280  0.331410  0.359360  0.134759
    H   H37   0.672460  0.281530  0.601260  0.138675
    H   H38   0.671860  0.281270  0.400360  0.132381
    C   C103  0.597870  0.898950  0.498540  -0.097501
    C   C104  0.530460  0.881100  0.498530  -0.069659
    C   C105  0.476170  0.844800  0.498660  -0.150633
    C   C106  0.612060  0.881280  0.498670  0.264722
    C   C107  0.557570  0.844980  0.498800  -0.242240
    C   C108  0.489250  0.826460  0.498800  0.086368
    C   C109  0.429840  0.786800  0.498940  0.080464
    C   C110  0.459470  0.768290  0.441350  -0.177502
    C   C111  0.344640  0.768220  0.556670  -0.105063
    H   H39   0.521070  0.894620  0.498430  0.127715
    H   H40   0.426210  0.831340  0.498660  0.116402
    H   H41   0.567380  0.831650  0.498900  0.188069
    H   H42   0.521510  0.781470  0.398790  0.149326
    H   H43   0.322010  0.781350  0.599140  0.126183
    C   C112  0.151520  0.601030  0.499610  -0.102203
    C   C113  0.137700  0.618830  0.581200  0.343993
    C   C114  0.192190  0.655140  0.580870  -0.234415
    C   C115  0.218570  0.618750  0.417890  -0.096783
    C   C116  0.272860  0.655060  0.417970  -0.192588
    C   C117  0.260140  0.673530  0.499350  0.084924
    C   C118  0.319550  0.713180  0.499210  0.077623
    C   C119  0.289920  0.731690  0.556800  -0.185979
    C   C120  0.404750  0.731760  0.441480  -0.124641
    H   H44   0.182640  0.668560  0.640630  0.188381
    H   H45   0.227690  0.605140  0.358410  0.166964
    H   H46   0.322550  0.668420  0.358100  0.139129
    H   H47   0.227880  0.718520  0.599360  0.145354
    H   H48   0.427380  0.718640  0.399010  0.132180
    C   C121  0.942570  0.999950  0.190560  -0.191256
    C   C122  0.987450  0.999930  0.096320  0.139458
    C   C123  0.052170  0.999900  0.044520  0.000050
    H   H49   0.955410  0.999940  0.220170  0.205703
    C   C124  0.862960  0.999980  0.189960  -0.149798
    C   C125  0.911740  0.999960  0.095750  0.112736
    C   C126  0.898800  0.999970  0.043370  0.026851
    H   H50   0.820890  0.000000  0.219150  0.188551
    C   C127  0.055130  0.999890  0.803340  -0.142933
    C   C128  0.010240  0.999910  0.897580  0.083765
    C   C129  0.945520  0.999940  0.949370  0.035535
    H   H51   0.042280  0.999900  0.773730  0.156079
    C   C130  0.134740  0.999860  0.803940  -0.137898
    C   C131  0.085950  0.999880  0.898150  0.094732
    C   C132  0.098890  0.999870  0.950530  0.032931
    H   H52   0.176810  0.999840  0.774750  0.151549
    C   C133  0.878250  0.999980  0.239570  0.007613
    C   C134  0.976750  0.999930  0.041400  -0.028054
    C   C135  0.119440  0.999860  0.754330  0.035665
    C   C136  0.020940  0.999910  0.952500  0.038037
    C   C137  0.636050  0.000020  0.807040  -0.133916
    C   C138  0.587270  0.000050  0.901250  0.091603
    C   C139  0.600240  0.000050  0.953630  0.033982
    H   H53   0.678130  0.000010  0.777840  0.154104
    C   C140  0.556400  0.000030  0.806450  -0.147561
    C   C141  0.511520  0.000060  0.900690  0.106358
    C   C142  0.446780  0.000080  0.952490  0.016500
    H   H54   0.543540  0.000030  0.776850  0.154213
    C   C143  0.364260  0.000130  0.193070  -0.165002
    C   C144  0.413030  0.000110  0.098860  0.119763
    C   C145  0.400070  0.000100  0.046480  0.019817
    H   H55   0.322170  0.000150  0.222270  0.197560
    C   C146  0.443910  0.000120  0.193660  -0.165048
    C   C147  0.488780  0.000100  0.099420  0.114472
    C   C148  0.553520  0.000080  0.047620  0.026240
    H   H56   0.456770  0.000120  0.223270  0.194241
    C   C149  0.620730  0.000010  0.757440  0.022893
    C   C150  0.522240  0.000070  0.955610  0.024555
    C   C151  0.379580  0.000140  0.242680  0.005509
    C   C152  0.478060  0.000090  0.044500  -0.017040
    O   O33   0.930620  0.477220  0.241700  -0.279372
    O   O34   0.972880  0.522670  0.182120  -0.211293
    N   N1    0.918350  0.499950  0.255710  0.237240
    O   O35   0.825220  0.522670  0.241690  -0.257396
    O   O36   0.841980  0.477220  0.182140  -0.201003
    N   N2    0.823590  0.499950  0.255720  0.203840
    O   O37   0.742840  0.522680  0.758270  -0.312765
    O   O38   0.589700  0.477230  0.817850  -0.202718
    N   N3    0.676280  0.499950  0.744250  0.263526
    O   O39   0.501070  0.477230  0.758290  -0.313679
    O   O40   0.595170  0.522680  0.817840  -0.200737
    N   N4    0.581520  0.499960  0.744260  0.253447
    O   O41   0.325310  0.522720  0.241660  -0.282348
    O   O42   0.342040  0.477260  0.182160  -0.212614
    N   N5    0.323670  0.500000  0.255710  0.250165
    O   O43   0.430690  0.477270  0.241730  -0.258282
    O   O44   0.472960  0.522710  0.182110  -0.198995
    N   N6    0.418430  0.500000  0.255720  0.203033
    O   O45   0.001240  0.477350  0.758300  -0.314796
    O   O46   0.095380  0.522810  0.817810  -0.204428
    N   N7    0.081700  0.500080  0.744250  0.276719
    O   O47   0.243030  0.522810  0.758250  -0.305084
    O   O48   0.089890  0.477370  0.817870  -0.195531
    N   N8    0.176460  0.500080  0.744260  0.234217
    O   O49   0.247700  0.022540  0.823750  -0.276284
    O   O50   0.153730  0.977110  0.935270  -0.203589
    N   N9    0.167310  0.999840  0.902810  0.211520
    O   O51   0.006350  0.977180  0.172080  -0.313016
    O   O52   0.159440  0.022590  0.061010  -0.178707
    N   N10   0.072820  0.999890  0.092920  0.247437
    O   O53   0.923090  0.977210  0.821900  -0.258253
    O   O54   0.906500  0.022700  0.932810  -0.195215
    N   N11   0.924880  0.999950  0.900980  0.191114
    O   O55   0.818250  0.022740  0.170060  -0.313986
    O   O56   0.775720  0.977280  0.058710  -0.175476
    N   N12   0.830380  0.000000  0.091090  0.230596
    O   O57   0.507750  0.977380  0.175170  -0.311436
    O   O58   0.660820  0.022790  0.064090  -0.178020
    N   N13   0.574190  0.000080  0.096010  0.232598
    O   O59   0.749050  0.022740  0.826840  -0.264853
    O   O60   0.655120  0.977310  0.938360  -0.202068
    N   N14   0.668670  0.000030  0.905900  0.207585
    O   O61   0.319490  0.022870  0.173180  -0.314454
    O   O62   0.276960  0.977400  0.061840  -0.176561
    N   N15   0.331630  0.000120  0.094210  0.241484
    O   O63   0.424330  0.977330  0.825030  -0.270432
    O   O64   0.407720  0.022810  0.935930  -0.197626
    N   N16   0.426110  0.000070  0.904100  0.210947
    O   O65   0.981860  0.098690  0.499020  -0.583298
    H   H57   0.932210  0.070400  0.498900  0.417812
    O   O66   0.435830  0.401260  0.330520  -0.582604
    H   H58   0.471140  0.429560  0.345030  0.454535
    O   O67   0.018600  0.901360  0.501050  -0.591421
    H   H59   0.068280  0.929650  0.501140  0.422634
    O   O68   0.732360  0.598910  0.331120  -0.582664
    H   H60   0.682670  0.570600  0.345470  0.453676
    O   O69   0.314000  0.098690  0.501210  -0.508103
    H   H61   0.278750  0.070390  0.501340  0.340307
    O   O70   0.767900  0.401250  0.669520  -0.591266
    H   H62   0.817490  0.429550  0.654990  0.451315
    O   O71   0.685720  0.901350  0.498680  -0.506887
    H   H63   0.720910  0.929640  0.498560  0.337580
    O   O72   0.064430  0.598900  0.668790  -0.589761
    H   H64   0.029170  0.570590  0.654470  0.452124
