data_DB1-Cu2O8N2-ADC_A-irmof8_A_No618_repeat
_audit_creation_date              2024-02-24
_audit_creation_method            'Materials Studio'
_symmetry_space_group_name_H-M    'P1'
_symmetry_Int_Tables_number       1
_symmetry_cell_setting            triclinic
loop_
_symmetry_equiv_pos_as_xyz
  x,y,z
_cell_length_a                    15.8494
_cell_length_b                    17.5218
_cell_length_c                    12.9902
_cell_angle_alpha                 89.9184
_cell_angle_beta                  87.6745
_cell_angle_gamma                 95.2900
loop_
_atom_site_label
_atom_site_type_symbol
_atom_site_fract_x
_atom_site_fract_y
_atom_site_fract_z
_atom_site_U_iso_or_equiv
_atom_site_adp_type
_atom_site_occupancy
Cu1    Cu    0.41940   0.49703   0.50400   0.00000  Uiso   1.00
Cu2    Cu    0.58059   0.50296   0.49602   0.00000  Uiso   1.00
O1     O     0.42483   0.49728   0.63758   0.00000  Uiso   1.00
O2     O     0.42485   0.49741   0.36960   0.00000  Uiso   1.00
O3     O     0.43056   0.59702   0.50319   0.00000  Uiso   1.00
O4     O     0.41912   0.39767   0.50399   0.00000  Uiso   1.00
O5     O     0.56943   0.40297   0.49679   0.00000  Uiso   1.00
O6     O     0.58087   0.60232   0.49606   0.00000  Uiso   1.00
O7     O     0.57517   0.50282   0.36232   0.00000  Uiso   1.00
O8     O     0.57514   0.50256   0.63041   0.00000  Uiso   1.00
C1     C     0.49999   0.49993   0.69308   0.00000  Uiso   1.00
C2     C     0.50001   0.50006   0.30694   0.00000  Uiso   1.00
C3     C     0.50824   0.64363   0.49952   0.00000  Uiso   1.00
C4     C     0.49176   0.35636   0.50050   0.00000  Uiso   1.00
N1     N     0.29962   0.49263   0.50993   0.00000  Uiso   1.00
C5     C     0.25676   0.53995   0.44618   0.00000  Uiso   1.00
C6     C     0.16805   0.53676   0.45048   0.00000  Uiso   1.00
C7     C     0.11957   0.48592   0.51896   0.00000  Uiso   1.00
C8     C     0.16257   0.43873   0.58254   0.00000  Uiso   1.00
C9     C     0.25120   0.44195   0.57820   0.00000  Uiso   1.00
C10    C     0.02495   0.47942   0.52772   0.00000  Uiso   1.00
C11    C     0.97504   0.52058   0.47227   0.00000  Uiso   1.00
C12    C     0.83742   0.56127   0.41747   0.00000  Uiso   1.00
C13    C     0.88043   0.51408   0.48104   0.00000  Uiso   1.00
C14    C     0.83195   0.46323   0.54953   0.00000  Uiso   1.00
C15    C     0.74324   0.46004   0.55383   0.00000  Uiso   1.00
N2     N     0.70038   0.50736   0.49009   0.00000  Uiso   1.00
C16    C     0.74879   0.55804   0.42182   0.00000  Uiso   1.00
H1     H     0.29241   0.57949   0.39292   0.00000  Uiso   1.00
H2     H     0.13885   0.57439   0.39979   0.00000  Uiso   1.00
H3     H     0.12741   0.39903   0.63602   0.00000  Uiso   1.00
H4     H     0.87258   0.60097   0.36399   0.00000  Uiso   1.00
H5     H     0.86115   0.42561   0.60022   0.00000  Uiso   1.00
H6     H     0.70759   0.42050   0.60709   0.00000  Uiso   1.00
H7     H     0.99622   0.43817   0.58329   0.00000  Uiso   1.00
H8     H     0.00377   0.56183   0.41670   0.00000  Uiso   1.00
C17    C     0.48685   0.27084   0.50071   0.00000  Uiso   1.00
C18    C     0.56106   0.23234   0.49718   0.00000  Uiso   1.00
C19    C     0.55655   0.15212   0.49737   0.00000  Uiso   1.00
C20    C     0.47735   0.10802   0.50112   0.00000  Uiso   1.00
C21    C     0.40335   0.14664   0.50464   0.00000  Uiso   1.00
C22    C     0.40790   0.22679   0.50445   0.00000  Uiso   1.00
C23    C     0.46771   0.02245   0.50155   0.00000  Uiso   1.00
C24    C     0.53232   0.97755   0.49847   0.00000  Uiso   1.00
C25    C     0.59667   0.85334   0.49538   0.00000  Uiso   1.00
C26    C     0.52267   0.89197   0.49890   0.00000  Uiso   1.00
C27    C     0.44346   0.84787   0.50265   0.00000  Uiso   1.00
C28    C     0.43895   0.76765   0.50284   0.00000  Uiso   1.00
C29    C     0.51316   0.72915   0.49931   0.00000  Uiso   1.00
C30    C     0.59211   0.77320   0.49557   0.00000  Uiso   1.00
H9     H     0.62266   0.26479   0.49426   0.00000  Uiso   1.00
H10    H     0.61553   0.12593   0.49456   0.00000  Uiso   1.00
H11    H     0.34149   0.11464   0.50757   0.00000  Uiso   1.00
H12    H     0.65853   0.88534   0.49245   0.00000  Uiso   1.00
H13    H     0.38448   0.87406   0.50546   0.00000  Uiso   1.00
H14    H     0.37735   0.73521   0.50576   0.00000  Uiso   1.00
H15    H     0.40339   0.99625   0.50459   0.00000  Uiso   1.00
H16    H     0.59665   0.00374   0.49542   0.00000  Uiso   1.00
C31    C     0.43802   0.49785   0.12655   0.00000  Uiso   1.00
C32    C     0.58624   0.50305   0.15765   0.00000  Uiso   1.00
C33    C     0.60914   0.50384   0.05204   0.00000  Uiso   1.00
C34    C     0.54285   0.50150   0.98167   0.00000  Uiso   1.00
C35    C     0.56198   0.50214   0.87347   0.00000  Uiso   1.00
C36    C     0.41376   0.49694   0.84237   0.00000  Uiso   1.00
C37    C     0.39086   0.49616   0.94797   0.00000  Uiso   1.00
C38    C     0.45715   0.49850   0.01835   0.00000  Uiso   1.00
C39    C     0.50001   0.50004   0.19297   0.00000  Uiso   1.00
C40    C     0.49999   0.49996   0.80705   0.00000  Uiso   1.00
H17    H     0.37175   0.49554   0.15392   0.00000  Uiso   1.00
H18    H     0.63510   0.50479   0.21352   0.00000  Uiso   1.00
H19    H     0.62824   0.50445   0.84610   0.00000  Uiso   1.00
H20    H     0.36491   0.49521   0.78649   0.00000  Uiso   1.00
O9     O     0.28858   0.39748   0.63811   0.00000  Uiso   1.00
Li1    Li    0.25153   0.33026   0.72865   0.00000  Uiso   1.00
O10    O     0.71141   0.60251   0.36190   0.00000  Uiso   1.00
Li2    Li    0.74844   0.66973   0.27136   0.00000  Uiso   1.00
O11    O     0.33817   0.26034   0.50777   0.00000  Uiso   1.00
Li3    Li    0.23331   0.22649   0.51274   0.00000  Uiso   1.00
O12    O     0.66183   0.73964   0.49225   0.00000  Uiso   1.00
Li4    Li    0.76670   0.77348   0.48728   0.00000  Uiso   1.00
S1     S     0.28525   0.49246   0.99275   0.00000  Uiso   1.00
O13    O     0.24925   0.40380   0.03476   0.00000  Uiso   1.00
O14    O     0.22306   0.51572   0.90724   0.00000  Uiso   1.00
H21    H     0.21567   0.41498   0.09693   0.00000  Uiso   1.00
O15    O     0.27355   0.54663   0.08947   0.00000  Uiso   1.00
S2     S     0.71475   0.50754   0.00727   0.00000  Uiso   1.00
O16    O     0.74035   0.42103   0.96617   0.00000  Uiso   1.00
O17    O     0.77997   0.53531   0.09252   0.00000  Uiso   1.00
H22    H     0.77541   0.43460   0.90388   0.00000  Uiso   1.00
O18    O     0.73295   0.56272   0.90999   0.00000  Uiso   1.00
