data_DB1-Cu2O8N2-irmof14_A-irmof8_A_No274_repeat
_audit_creation_date              2024-02-24
_audit_creation_method            'Materials Studio'
_symmetry_space_group_name_H-M    'P1'
_symmetry_Int_Tables_number       1
_symmetry_cell_setting            triclinic
loop_
_symmetry_equiv_pos_as_xyz
  x,y,z
_cell_length_a                    12.9902
_cell_length_b                    27.8873
_cell_length_c                    13.5342
_cell_angle_alpha                 90.0003
_cell_angle_beta                  89.9971
_cell_angle_gamma                 89.9024
loop_
_atom_site_label
_atom_site_type_symbol
_atom_site_fract_x
_atom_site_fract_y
_atom_site_fract_z
_atom_site_U_iso_or_equiv
_atom_site_adp_type
_atom_site_occupancy
Cu1    Cu    0.50001   0.50000   0.40597   0.00000  Uiso   1.00
Cu2    Cu    0.50001   0.50000   0.59403   0.00000  Uiso   1.00
O1     O     0.63386   0.50003   0.41230   0.00000  Uiso   1.00
O2     O     0.36589   0.50011   0.41232   0.00000  Uiso   1.00
O3     O     0.49972   0.56248   0.41231   0.00000  Uiso   1.00
O4     O     0.50003   0.43766   0.41231   0.00000  Uiso   1.00
O5     O     0.50026   0.43751   0.58769   0.00000  Uiso   1.00
O6     O     0.50003   0.56234   0.58769   0.00000  Uiso   1.00
O7     O     0.36605   0.50003   0.58769   0.00000  Uiso   1.00
O8     O     0.63413   0.49987   0.58768   0.00000  Uiso   1.00
C1     C     0.69308   0.49996   0.49999   0.00000  Uiso   1.00
C2     C     0.30694   0.50004   0.50001   0.00000  Uiso   1.00
C3     C     0.49987   0.58993   0.50000   0.00000  Uiso   1.00
C4     C     0.50015   0.41007   0.50000   0.00000  Uiso   1.00
Cu3    Cu    0.50036   0.96581   0.59405   0.00000  Uiso   1.00
Cu4    Cu    0.49970   0.96581   0.40600   0.00000  Uiso   1.00
O9     O     0.63419   0.96556   0.58727   0.00000  Uiso   1.00
O10    O     0.36622   0.96592   0.58815   0.00000  Uiso   1.00
O11    O     0.50004   0.90333   0.58771   0.00000  Uiso   1.00
O12    O     0.50037   0.02815   0.58771   0.00000  Uiso   1.00
O13    O     0.49999   0.02829   0.41234   0.00000  Uiso   1.00
O14    O     0.49974   0.90347   0.41234   0.00000  Uiso   1.00
O15    O     0.36576   0.96599   0.41278   0.00000  Uiso   1.00
O16    O     0.63385   0.96572   0.41190   0.00000  Uiso   1.00
C5     C     0.69310   0.96554   0.49939   0.00000  Uiso   1.00
C6     C     0.30697   0.96608   0.50066   0.00000  Uiso   1.00
C7     C     0.49989   0.87588   0.50002   0.00000  Uiso   1.00
C8     C     0.50018   0.05574   0.50002   0.00000  Uiso   1.00
C9     C     0.43510   0.53022   0.78789   0.00000  Uiso   1.00
C10    C     0.43828   0.52874   0.89128   0.00000  Uiso   1.00
C11    C     0.37496   0.55823   0.94844   0.00000  Uiso   1.00
H1     H     0.39033   0.55107   0.75563   0.00000  Uiso   1.00
H2     H     0.33018   0.57908   0.91592   0.00000  Uiso   1.00
C12    C     0.56492   0.46977   0.78788   0.00000  Uiso   1.00
C13    C     0.56174   0.47125   0.89127   0.00000  Uiso   1.00
C14    C     0.62506   0.44177   0.94842   0.00000  Uiso   1.00
H3     H     0.60969   0.44892   0.75562   0.00000  Uiso   1.00
C15    C     0.56492   0.46977   0.21211   0.00000  Uiso   1.00
C16    C     0.56174   0.47125   0.10872   0.00000  Uiso   1.00
C17    C     0.62506   0.44177   0.05156   0.00000  Uiso   1.00
H4     H     0.60969   0.44892   0.24437   0.00000  Uiso   1.00
H5     H     0.66983   0.42092   0.08407   0.00000  Uiso   1.00
C18    C     0.43510   0.53022   0.21212   0.00000  Uiso   1.00
C19    C     0.43828   0.52874   0.10873   0.00000  Uiso   1.00
C20    C     0.37496   0.55823   0.05157   0.00000  Uiso   1.00
H6     H     0.39032   0.55107   0.24438   0.00000  Uiso   1.00
N1     N     0.50001   0.50000   0.73378   0.00000  Uiso   1.00
C21    C     0.50001   0.50000   0.95123   0.00000  Uiso   1.00
N2     N     0.50001   0.50000   0.26622   0.00000  Uiso   1.00
C22    C     0.50001   0.50000   0.04877   0.00000  Uiso   1.00
C23    C     0.50001   0.79042   0.57233   0.00000  Uiso   1.00
C24    C     0.49971   0.80833   0.39940   0.00000  Uiso   1.00
C25    C     0.49966   0.75967   0.37267   0.00000  Uiso   1.00
C26    C     0.49979   0.72535   0.45002   0.00000  Uiso   1.00
C27    C     0.49975   0.67539   0.42769   0.00000  Uiso   1.00
C28    C     0.50005   0.65748   0.60062   0.00000  Uiso   1.00
C29    C     0.50010   0.70614   0.62735   0.00000  Uiso   1.00
C30    C     0.49997   0.74046   0.55001   0.00000  Uiso   1.00
C31    C     0.49989   0.82279   0.50002   0.00000  Uiso   1.00
C32    C     0.49988   0.64302   0.50001   0.00000  Uiso   1.00
C33    C     0.50027   0.33585   0.58802   0.00000  Uiso   1.00
C34    C     0.50027   0.28567   0.58371   0.00000  Uiso   1.00
C35    C     0.50039   0.25793   0.66958   0.00000  Uiso   1.00
H7     H     0.50035   0.35151   0.64873   0.00000  Uiso   1.00
H8     H     0.50047   0.27371   0.73029   0.00000  Uiso   1.00
C36    C     0.50004   0.33585   0.41199   0.00000  Uiso   1.00
C37    C     0.50005   0.28567   0.41630   0.00000  Uiso   1.00
C38    C     0.49993   0.25793   0.33044   0.00000  Uiso   1.00
H9     H     0.49995   0.35150   0.35127   0.00000  Uiso   1.00
C39    C     0.50006   0.12996   0.41200   0.00000  Uiso   1.00
C40    C     0.50006   0.18014   0.41631   0.00000  Uiso   1.00
C41    C     0.49994   0.20787   0.33045   0.00000  Uiso   1.00
H10    H     0.49997   0.11430   0.35129   0.00000  Uiso   1.00
H11    H     0.49986   0.19209   0.26973   0.00000  Uiso   1.00
C42    C     0.50029   0.12996   0.58803   0.00000  Uiso   1.00
C43    C     0.50028   0.18014   0.58372   0.00000  Uiso   1.00
C44    C     0.50040   0.20788   0.66958   0.00000  Uiso   1.00
H12    H     0.50038   0.11431   0.64875   0.00000  Uiso   1.00
C45    C     0.50015   0.36211   0.50000   0.00000  Uiso   1.00
C46    C     0.50016   0.25657   0.50001   0.00000  Uiso   1.00
C47    C     0.50018   0.10370   0.50002   0.00000  Uiso   1.00
C48    C     0.50017   0.20923   0.50001   0.00000  Uiso   1.00
C49    C     0.12348   0.50008   0.42769   0.00000  Uiso   1.00
C50    C     0.16192   0.49993   0.60062   0.00000  Uiso   1.00
C51    C     0.05745   0.49989   0.62735   0.00000  Uiso   1.00
C52    C     0.98379   0.49995   0.55000   0.00000  Uiso   1.00
C53    C     0.87654   0.49992   0.57232   0.00000  Uiso   1.00
C54    C     0.83810   0.50007   0.39938   0.00000  Uiso   1.00
C55    C     0.94257   0.50011   0.37266   0.00000  Uiso   1.00
C56    C     0.01623   0.50005   0.45001   0.00000  Uiso   1.00
C57    C     0.19297   0.50002   0.50001   0.00000  Uiso   1.00
C58    C     0.80705   0.49997   0.50000   0.00000  Uiso   1.00
C59    C     0.43411   0.93569   0.21235   0.00000  Uiso   1.00
C60    C     0.43693   0.93717   0.10895   0.00000  Uiso   1.00
C61    C     0.37340   0.90778   0.05200   0.00000  Uiso   1.00
H13    H     0.38945   0.91491   0.24476   0.00000  Uiso   1.00
H14    H     0.32874   0.88700   0.08467   0.00000  Uiso   1.00
C62    C     0.56394   0.99593   0.21193   0.00000  Uiso   1.00
C63    C     0.56039   0.99446   0.10855   0.00000  Uiso   1.00
C64    C     0.62351   0.02384   0.05118   0.00000  Uiso   1.00
H15    H     0.60882   0.01671   0.24404   0.00000  Uiso   1.00
C65    C     0.56245   0.99593   0.78770   0.00000  Uiso   1.00
C66    C     0.55963   0.99446   0.89110   0.00000  Uiso   1.00
C67    C     0.62315   0.02384   0.94805   0.00000  Uiso   1.00
H16    H     0.60711   0.01671   0.75529   0.00000  Uiso   1.00
H17    H     0.66781   0.04462   0.91539   0.00000  Uiso   1.00
C68    C     0.43262   0.93569   0.78812   0.00000  Uiso   1.00
C69    C     0.43616   0.93717   0.89150   0.00000  Uiso   1.00
C70    C     0.37304   0.90778   0.94887   0.00000  Uiso   1.00
H18    H     0.38773   0.91491   0.75601   0.00000  Uiso   1.00
N3     N     0.49921   0.96581   0.26625   0.00000  Uiso   1.00
C71    C     0.49845   0.96581   0.04880   0.00000  Uiso   1.00
N4     N     0.49734   0.96581   0.73380   0.00000  Uiso   1.00
C72    C     0.49811   0.96581   0.95125   0.00000  Uiso   1.00
C73    C     0.12376   0.96473   0.57026   0.00000  Uiso   1.00
C74    C     0.16159   0.96481   0.39719   0.00000  Uiso   1.00
C75    C     0.05702   0.96502   0.37082   0.00000  Uiso   1.00
C76    C     0.98364   0.96508   0.44842   0.00000  Uiso   1.00
C77    C     0.87630   0.96529   0.42645   0.00000  Uiso   1.00
C78    C     0.83847   0.96520   0.59952   0.00000  Uiso   1.00
C79    C     0.94304   0.96499   0.62589   0.00000  Uiso   1.00
C80    C     0.01642   0.96493   0.54830   0.00000  Uiso   1.00
C81    C     0.19299   0.96467   0.49771   0.00000  Uiso   1.00
C82    C     0.80707   0.96534   0.49900   0.00000  Uiso   1.00
O17    O     0.31261   0.58726   0.09686   0.00000  Uiso   1.00
Li1    Li    0.22437   0.62835   0.05606   0.00000  Uiso   1.00
O18    O     0.68741   0.41273   0.90314   0.00000  Uiso   1.00
Li2    Li    0.77565   0.37164   0.94394   0.00000  Uiso   1.00
O19    O     0.50051   0.18591   0.75413   0.00000  Uiso   1.00
Li3    Li    0.50067   0.20571   0.87378   0.00000  Uiso   1.00
O20    O     0.49982   0.27990   0.24590   0.00000  Uiso   1.00
Li4    Li    0.49966   0.26010   0.12624   0.00000  Uiso   1.00
O21    O     0.31053   0.87885   0.90380   0.00000  Uiso   1.00
Li5    Li    0.22243   0.83790   0.94488   0.00000  Uiso   1.00
O22    O     0.68602   0.05277   0.09626   0.00000  Uiso   1.00
Li6    Li    0.77413   0.09372   0.05517   0.00000  Uiso   1.00
O23    O     0.50019   0.61954   0.68023   0.00000  Uiso   1.00
H19    H     0.50032   0.63702   0.75390   0.00000  Uiso   1.00
O24    O     0.50029   0.72208   0.73398   0.00000  Uiso   1.00
H20    H     0.50030   0.76184   0.73735   0.00000  Uiso   1.00
O25    O     0.50023   0.80592   0.67923   0.00000  Uiso   1.00
H21    H     0.50025   0.84567   0.68327   0.00000  Uiso   1.00
O26    O     0.49958   0.84626   0.31978   0.00000  Uiso   1.00
H22    H     0.49945   0.82877   0.24611   0.00000  Uiso   1.00
O27    O     0.49948   0.74374   0.26604   0.00000  Uiso   1.00
H23    H     0.49948   0.70397   0.26267   0.00000  Uiso   1.00
O28    O     0.49953   0.65989   0.32079   0.00000  Uiso   1.00
H24    H     0.49950   0.62013   0.31675   0.00000  Uiso   1.00
O29    O     0.75666   0.50013   0.31977   0.00000  Uiso   1.00
H25    H     0.79420   0.50020   0.24610   0.00000  Uiso   1.00
O30    O     0.97679   0.50021   0.26603   0.00000  Uiso   1.00
H26    H     0.06216   0.50022   0.26267   0.00000  Uiso   1.00
O31    O     0.15678   0.50019   0.32079   0.00000  Uiso   1.00
H27    H     0.24212   0.50022   0.31675   0.00000  Uiso   1.00
O32    O     0.24334   0.49987   0.68025   0.00000  Uiso   1.00
H28    H     0.20578   0.49980   0.75391   0.00000  Uiso   1.00
O33    O     0.02323   0.49980   0.73398   0.00000  Uiso   1.00
H29    H     0.93787   0.49979   0.73734   0.00000  Uiso   1.00
O34    O     0.84323   0.49980   0.67921   0.00000  Uiso   1.00
H30    H     0.75789   0.49978   0.68324   0.00000  Uiso   1.00
O35    O     0.75732   0.96527   0.67940   0.00000  Uiso   1.00
H31    H     0.79512   0.96514   0.75294   0.00000  Uiso   1.00
O36    O     0.97763   0.96483   0.73240   0.00000  Uiso   1.00
H32    H     0.06301   0.96468   0.73548   0.00000  Uiso   1.00
O37    O     0.15743   0.96456   0.67704   0.00000  Uiso   1.00
H33    H     0.24278   0.96440   0.68080   0.00000  Uiso   1.00
O38    O     0.24273   0.96474   0.31730   0.00000  Uiso   1.00
H34    H     0.20491   0.96487   0.24376   0.00000  Uiso   1.00
O39    O     0.02243   0.96517   0.26431   0.00000  Uiso   1.00
H35    H     0.93705   0.96532   0.26122   0.00000  Uiso   1.00
O40    O     0.84263   0.96545   0.31967   0.00000  Uiso   1.00
H36    H     0.75727   0.96561   0.31592   0.00000  Uiso   1.00
