# Generated by REPEAT Assigner based on pymatgen
data_DB1-Cu2O8-irmof10_A-irmof6_A_No357
_audit_creation_date              2022-05-24
_audit_creation_method            REPEAT_Assigner
_cell_length_a                    29.891500
_cell_length_b                    39.408300
_cell_length_c                    10.000000
_cell_angle_alpha                 90.000000
_cell_angle_beta                  90.000000
_cell_angle_gamma                 40.800200
_cell_volume                      7697.150722
_symmetry_space_group_name_H-M    P1
_symmetry_Int_Tables_number       1
loop_
    _symmetry_equiv_pos_site_id
    _symmetry_equiv_pos_as_xyz
    1  x,y,z
loop_
    _atom_site_type_symbol
    _atom_site_label
    _atom_site_fract_x
    _atom_site_fract_y
    _atom_site_fract_z
    _atom_type_partial_charge
    Cu  Cu1   0.500000  0.500000  0.372740  1.134430
    Cu  Cu2   0.500000  0.500000  0.627260  1.115592
    O   O1    0.432490  0.567530  0.381320  -0.593725
    O   O2    0.567520  0.432340  0.381320  -0.635325
    O   O3    0.441850  0.499860  0.381320  -0.638207
    O   O4    0.558150  0.500010  0.381320  -0.624248
    O   O5    0.558170  0.500130  0.618680  -0.629740
    O   O6    0.441830  0.500010  0.618680  -0.592186
    O   O7    0.567510  0.432420  0.618680  -0.641639
    O   O8    0.432490  0.567660  0.618680  -0.407030
    C   C1    0.402690  0.597400  0.500000  0.529154
    C   C2    0.597310  0.402610  0.500000  0.650829
    C   C3    0.416160  0.499940  0.500000  0.637695
    C   C4    0.583830  0.500070  0.500000  0.586116
    Cu  Cu3   0.999860  0.500140  0.627300  1.141651
    Cu  Cu4   0.000110  0.499890  0.372780  1.142678
    O   O9    0.932600  0.567660  0.618260  -0.595026
    O   O10   0.067400  0.432470  0.619170  -0.634842
    O   O11   0.058300  0.499990  0.618720  -0.637757
    O   O12   0.941700  0.500140  0.618720  -0.636703
    O   O13   0.941690  0.500020  0.381360  -0.662789
    O   O14   0.058250  0.499910  0.381350  -0.580829
    O   O15   0.067490  0.432320  0.381810  -0.647741
    O   O16   0.932560  0.567560  0.380910  -0.404074
    C   C5    0.902880  0.597410  0.499380  0.522788
    C   C6    0.097090  0.402620  0.500680  0.643300
    C   C7    0.083950  0.499950  0.500030  0.623244
    C   C8    0.916020  0.500080  0.500030  0.626731
    Cu  Cu5   0.080690  0.919600  0.627300  1.159662
    Cu  Cu6   0.080380  0.919590  0.372790  1.156178
    O   O17   0.148170  0.852070  0.618730  -0.595723
    O   O18   0.012930  0.987260  0.618720  -0.632333
    O   O19   0.022510  0.919470  0.619370  -0.653377
    O   O20   0.138590  0.919850  0.618080  -0.656006
    O   O21   0.138550  0.919730  0.380720  -0.635092
    O   O22   0.022500  0.919320  0.382010  -0.642661
    O   O23   0.012780  0.987170  0.381370  -0.628022
    O   O24   0.148160  0.851930  0.381370  -0.612868
    C   C9    0.177960  0.822200  0.500040  0.628987
    C   C10   0.983110  0.016990  0.500040  0.621161
    C   C11   0.996950  0.919280  0.500980  0.665617
    C   C12   0.164130  0.919910  0.499110  0.667929
    Cu  Cu7   0.581900  0.919480  0.369910  1.161701
    Cu  Cu8   0.581960  0.919730  0.624430  1.144660
    O   O25   0.649190  0.851960  0.378940  -0.599872
    O   O26   0.514600  0.987150  0.378040  -0.630038
    O   O27   0.640310  0.919370  0.377850  -0.661617
    O   O28   0.523480  0.919740  0.379140  -0.649564
    O   O29   0.523530  0.919860  0.616500  -0.626968
    O   O30   0.640390  0.919450  0.615210  -0.644108
    O   O31   0.514670  0.987300  0.615390  -0.617020
    O   O32   0.649230  0.852070  0.616300  -0.612094
    C   C13   0.678910  0.822210  0.497830  0.637232
    C   C14   0.484950  0.017000  0.496520  0.588746
    C   C15   0.666140  0.919290  0.496240  0.673329
    C   C16   0.497710  0.919920  0.498100  0.661444
    C   C17   0.632060  0.500070  0.500010  0.126363
    C   C18   0.867800  0.500080  0.500030  0.087528
    C   C19   0.655710  0.500010  0.380070  -0.544489
    C   C20   0.702630  0.500010  0.378960  0.694949
    C   C21   0.844140  0.500140  0.619970  -0.526876
    C   C22   0.797230  0.500140  0.621080  0.688647
    C   C23   0.844270  0.500020  0.380090  -0.335702
    C   C24   0.797350  0.500020  0.378970  -0.021607
    C   C25   0.655590  0.500130  0.619950  -0.378842
    C   C26   0.702500  0.500140  0.621070  0.010069
    C   C27   0.726290  0.500070  0.500020  -0.100425
    C   C28   0.773560  0.500080  0.500020  -0.082225
    H   H1    0.639700  0.499970  0.296920  0.197656
    H   H2    0.860160  0.500180  0.703110  0.187831
    H   H3    0.860370  0.499980  0.296940  0.143603
    H   H4    0.781540  0.499970  0.295480  0.100311
    H   H5    0.639490  0.500170  0.703090  0.158437
    H   H6    0.718320  0.500180  0.704550  0.084864
    C   C29   0.367940  0.499940  0.500010  0.069604
    C   C30   0.132180  0.499950  0.500030  0.062391
    C   C31   0.344420  0.499860  0.380070  -0.485698
    C   C32   0.297500  0.499860  0.378960  0.668240
    C   C33   0.155690  0.500030  0.619970  -0.471543
    C   C34   0.202610  0.500030  0.621080  0.666534
    C   C35   0.155850  0.499870  0.380090  -0.313820
    C   C36   0.202770  0.499870  0.378970  -0.088186
    C   C37   0.344270  0.500020  0.619950  -0.324924
    C   C38   0.297350  0.500020  0.621070  -0.087485
    C   C39   0.273690  0.499940  0.500020  -0.056354
    C   C40   0.226420  0.499950  0.500020  -0.057483
    H   H7    0.360530  0.499810  0.296920  0.166944
    H   H8    0.139580  0.500080  0.703110  0.164092
    H   H9    0.139840  0.499820  0.296940  0.138688
    H   H10   0.218680  0.499810  0.295480  0.155681
    H   H11   0.360270  0.500070  0.703090  0.153054
    H   H12   0.281430  0.500080  0.704550  0.148836
    C   C41   0.233640  0.766500  0.500030  -0.049880
    C   C42   0.347010  0.653100  0.500010  -0.166018
    C   C43   0.261970  0.738100  0.394410  -0.010079
    C   C44   0.318690  0.681500  0.605640  0.107181
    C   C45   0.318550  0.681500  0.394400  0.055293
    C   C46   0.262110  0.738100  0.605650  -0.130155
    C   C47   0.263070  0.736900  0.244200  0.050169
    C   C48   0.317250  0.682710  0.244190  0.062066
    H   H13   0.244450  0.755830  0.704280  0.125297
    H   H14   0.273190  0.756110  0.199870  0.022359
    H   H15   0.214380  0.756240  0.201010  0.035372
    H   H16   0.307080  0.663500  0.200170  0.035881
    H   H17   0.365890  0.663380  0.200670  0.008097
    C   C49   0.653310  0.346630  0.500010  0.102947
    C   C50   0.927100  0.072970  0.500040  0.129093
    C   C51   0.680680  0.319240  0.380070  -0.563625
    C   C52   0.735170  0.264780  0.378960  0.701648
    C   C53   0.899740  0.100360  0.619970  -0.580452
    C   C54   0.845250  0.154820  0.621080  0.705275
    C   C55   0.899670  0.100350  0.380090  -0.364247
    C   C56   0.845180  0.154820  0.378970  -0.027706
    C   C57   0.680740  0.319240  0.619950  -0.356573
    C   C58   0.735230  0.264780  0.621070  -0.032133
    C   C59   0.762760  0.237240  0.500020  -0.077273
    C   C60   0.817660  0.182360  0.500030  -0.082373
    H   H18   0.662010  0.337880  0.296930  0.199792
    H   H19   0.918410  0.081720  0.703120  0.206795
    H   H20   0.918300  0.081710  0.296950  0.145418
    H   H21   0.826740  0.173230  0.295490  0.104998
    H   H22   0.662120  0.337880  0.703090  0.144654
    H   H23   0.753680  0.246370  0.704560  0.105231
    C   C61   0.734400  0.766510  0.498210  -0.075759
    C   C62   0.847390  0.653110  0.499000  -0.160498
    C   C63   0.762660  0.738220  0.604030  0.014977
    C   C64   0.819140  0.681400  0.393180  0.097455
    C   C65   0.819050  0.681620  0.604420  0.040165
    C   C66   0.762740  0.738000  0.392790  -0.104533
    C   C67   0.763790  0.737170  0.754240  0.009612
    C   C68   0.817790  0.682980  0.754610  0.101054
    H   H24   0.745090  0.755640  0.294040  0.116625
    H   H25   0.715280  0.756430  0.798450  0.023568
    H   H26   0.773830  0.756560  0.797310  0.049565
    H   H27   0.866260  0.663820  0.798760  0.019810
    H   H28   0.807700  0.663690  0.798270  0.006955
    C   C69   0.152820  0.346640  0.501060  0.114655
    C   C70   0.425260  0.072980  0.502870  0.184343
    C   C71   0.180000  0.319380  0.621180  -0.575779
    C   C72   0.234220  0.264910  0.622650  0.699397
    C   C73   0.398080  0.100250  0.382750  -0.617429
    C   C74   0.343860  0.154710  0.381270  0.726535
    C   C75   0.397910  0.100490  0.622620  -0.395150
    C   C76   0.343690  0.154950  0.623380  -0.014329
    C   C77   0.180170  0.319140  0.381300  -0.355302
    C   C78   0.234390  0.264670  0.380540  -0.044771
    C   C79   0.261720  0.237250  0.501780  -0.060203
    C   C80   0.316350  0.182380  0.502140  -0.104695
    H   H29   0.161380  0.338100  0.704200  0.203438
    H   H30   0.416690  0.081530  0.299730  0.215301
    H   H31   0.416410  0.081930  0.705890  0.150982
    H   H32   0.325300  0.173450  0.706740  0.107026
    H   H33   0.161670  0.337690  0.298030  0.144462
    H   H34   0.252780  0.246180  0.297180  0.111093
    C   C81   0.212130  0.920130  0.498570  0.054556
    C   C82   0.446810  0.921190  0.495930  0.047028
    C   C83   0.235700  0.920300  0.618250  -0.512929
    C   C84   0.282410  0.920510  0.618840  0.686663
    C   C85   0.423230  0.921030  0.376260  -0.510443
    C   C86   0.376530  0.920810  0.375670  0.685551
    C   C87   0.423410  0.921150  0.616140  -0.319555
    C   C88   0.376710  0.920940  0.617780  -0.041778
    C   C89   0.235530  0.920170  0.378370  -0.320087
    C   C90   0.282230  0.920380  0.376730  -0.041677
    C   C91   0.305940  0.920550  0.497520  -0.080416
    C   C92   0.353000  0.920770  0.496990  -0.076395
    H   H35   0.219780  0.920260  0.701570  0.182305
    H   H36   0.439160  0.921060  0.292930  0.183391
    H   H37   0.439460  0.921260  0.699100  0.136654
    H   H38   0.360980  0.920910  0.701440  0.108965
    H   H39   0.219480  0.920060  0.295410  0.136126
    H   H40   0.297960  0.920410  0.293070  0.109048
    C   C93   0.948950  0.919060  0.501510  0.054176
    C   C94   0.714290  0.917970  0.504100  0.079701
    C   C95   0.925530  0.919030  0.621710  -0.505843
    C   C96   0.878830  0.918810  0.623340  0.684494
    C   C97   0.737700  0.918000  0.383910  -0.530085
    C   C98   0.784400  0.918220  0.382270  0.696973
    C   C99   0.737840  0.918160  0.623780  -0.330930
    C   C100  0.784540  0.918380  0.624380  -0.052303
    C   C101  0.925400  0.918870  0.381830  -0.311739
    C   C102  0.878700  0.918650  0.381230  -0.062805
    C   C103  0.855150  0.918620  0.502540  -0.067018
    C   C104  0.808090  0.918410  0.503070  -0.079873
    H   H41   0.941560  0.919160  0.704670  0.179969
    H   H42   0.721670  0.917870  0.300940  0.186204
    H   H43   0.721910  0.918140  0.707100  0.145697
    H   H44   0.800380  0.918500  0.707690  0.119771
    H   H45   0.941330  0.918890  0.298510  0.135885
    H   H46   0.862860  0.918520  0.297920  0.128088
    O   O33   0.724130  0.499960  0.266090  -0.958868
    Li  Li1   0.707090  0.499870  0.102830  0.787540
    O   O34   0.775730  0.500200  0.733940  -0.956137
    Li  Li2   0.792770  0.500280  0.897210  0.792915
    O   O35   0.276130  0.499790  0.266090  -0.997006
    Li  Li3   0.293360  0.499680  0.102830  0.844735
    O   O36   0.223980  0.500100  0.733940  -0.996502
    Li  Li4   0.206750  0.500210  0.897210  0.844827
    O   O37   0.760040  0.239880  0.266100  -0.968361
    Li  Li5   0.740110  0.259760  0.102830  0.787238
    O   O38   0.820380  0.179710  0.733950  -0.968392
    Li  Li6   0.840310  0.159840  0.897220  0.788543
    O   O39   0.258920  0.240130  0.735680  -0.970581
    Li  Li7   0.239010  0.260180  0.898820  0.792631
    O   O40   0.319160  0.179490  0.268240  -0.974746
    Li  Li8   0.339060  0.159450  0.105100  0.792140
    O   O41   0.303840  0.920660  0.731460  -0.967104
    Li  Li9   0.286920  0.920670  0.894920  0.804071
    O   O42   0.355100  0.920660  0.263040  -0.963486
    Li  Li10  0.372020  0.920650  0.099580  0.800714
    O   O43   0.857550  0.918790  0.736440  -0.974329
    Li  Li11  0.874690  0.918970  0.899520  0.819251
    O   O44   0.805680  0.918240  0.269170  -0.982821
    Li  Li12  0.788540  0.918050  0.106100  0.820339
    S   S1    0.347260  0.653010  0.763970  0.761512
    O   O45   0.420880  0.630560  0.804870  -0.503572
    O   O46   0.293480  0.691970  0.879220  -0.483495
    H   H47   0.446770  0.597450  0.848030  0.400981
    O   O47   0.364730  0.603580  0.770680  -0.470900
    S   S2    0.847590  0.652750  0.235040  0.766136
    O   O48   0.818820  0.630260  0.194290  -0.500050
    O   O49   0.823720  0.691600  0.119530  -0.482259
    H   H48   0.859060  0.597110  0.151350  0.401463
    O   O50   0.928780  0.603320  0.228660  -0.479711
