data_DB1-Cu2O8N2-DPAC_A-irmof8_A_No596_repeat
_audit_creation_date              2024-02-20
_audit_creation_method            'Materials Studio'
_symmetry_space_group_name_H-M    'P1'
_symmetry_Int_Tables_number       1
_symmetry_cell_setting            triclinic
loop_
_symmetry_equiv_pos_as_xyz
  x,y,z
_cell_length_a                    30.3624
_cell_length_b                    17.3722
_cell_length_c                    15.8500
_cell_angle_alpha                 89.9944
_cell_angle_beta                  89.9929
_cell_angle_gamma                 89.8681
loop_
_atom_site_label
_atom_site_type_symbol
_atom_site_fract_x
_atom_site_fract_y
_atom_site_fract_z
_atom_site_U_iso_or_equiv
_atom_site_adp_type
_atom_site_occupancy
Cu1    Cu    0.50001   0.50000   0.41971   0.00000  Uiso   1.00
Cu2    Cu    0.50000   0.49999   0.58029   0.00000  Uiso   1.00
O1     O     0.55727   0.49998   0.42512   0.00000  Uiso   1.00
O2     O     0.44262   0.50024   0.42513   0.00000  Uiso   1.00
O3     O     0.49989   0.60030   0.42512   0.00000  Uiso   1.00
O4     O     0.50001   0.39992   0.42513   0.00000  Uiso   1.00
O5     O     0.50010   0.39969   0.57488   0.00000  Uiso   1.00
O6     O     0.50001   0.60007   0.57487   0.00000  Uiso   1.00
O7     O     0.44269   0.50012   0.57488   0.00000  Uiso   1.00
O8     O     0.55738   0.49972   0.57487   0.00000  Uiso   1.00
C1     C     0.58261   0.49983   0.50000   0.00000  Uiso   1.00
C2     C     0.41740   0.50016   0.50001   0.00000  Uiso   1.00
C3     C     0.49995   0.64436   0.49999   0.00000  Uiso   1.00
C4     C     0.50005   0.35563   0.50001   0.00000  Uiso   1.00
Cu3    Cu    0.92784   0.49940   0.58030   0.00000  Uiso   1.00
Cu4    Cu    0.92785   0.49995   0.41973   0.00000  Uiso   1.00
O9     O     0.87057   0.49949   0.57490   0.00000  Uiso   1.00
O10    O     0.98522   0.49958   0.57489   0.00000  Uiso   1.00
O11    O     0.92774   0.59973   0.57529   0.00000  Uiso   1.00
O12    O     0.92805   0.39935   0.57449   0.00000  Uiso   1.00
O13    O     0.92796   0.39963   0.42474   0.00000  Uiso   1.00
O14    O     0.92762   0.60001   0.42554   0.00000  Uiso   1.00
O15    O     0.98516   0.49998   0.42514   0.00000  Uiso   1.00
O16    O     0.87046   0.49975   0.42514   0.00000  Uiso   1.00
C5     C     0.84524   0.49964   0.50002   0.00000  Uiso   1.00
C6     C     0.01044   0.49972   0.50001   0.00000  Uiso   1.00
C7     C     0.92758   0.64405   0.50059   0.00000  Uiso   1.00
C8     C     0.92810   0.35531   0.49944   0.00000  Uiso   1.00
N1     N     0.50001   0.50000   0.30038   0.00000  Uiso   1.00
C9     C     0.47173   0.54947   0.25392   0.00000  Uiso   1.00
C10    C     0.47165   0.54962   0.16508   0.00000  Uiso   1.00
C11    C     0.50000   0.49999   0.12006   0.00000  Uiso   1.00
C12    C     0.52836   0.45037   0.16507   0.00000  Uiso   1.00
C13    C     0.52828   0.45052   0.25391   0.00000  Uiso   1.00
C14    C     0.49999   0.50000   0.03772   0.00000  Uiso   1.00
C15    C     0.49999   0.50000   0.96228   0.00000  Uiso   1.00
C16    C     0.49999   0.49999   0.87995   0.00000  Uiso   1.00
C17    C     0.47163   0.54960   0.83493   0.00000  Uiso   1.00
C18    C     0.47171   0.54945   0.74608   0.00000  Uiso   1.00
N2     N     0.49999   0.49999   0.69962   0.00000  Uiso   1.00
C19    C     0.52828   0.45053   0.74608   0.00000  Uiso   1.00
C20    C     0.52836   0.45038   0.83493   0.00000  Uiso   1.00
H1     H     0.45077   0.58615   0.28476   0.00000  Uiso   1.00
H2     H     0.45072   0.58623   0.13391   0.00000  Uiso   1.00
H3     H     0.54924   0.41384   0.28474   0.00000  Uiso   1.00
H4     H     0.45074   0.58611   0.71525   0.00000  Uiso   1.00
H5     H     0.54924   0.41386   0.71525   0.00000  Uiso   1.00
H6     H     0.54929   0.41378   0.86610   0.00000  Uiso   1.00
C21    C     0.50004   0.27406   0.50001   0.00000  Uiso   1.00
C22    C     0.49998   0.23168   0.42345   0.00000  Uiso   1.00
C23    C     0.49996   0.15062   0.42322   0.00000  Uiso   1.00
C24    C     0.50001   0.10953   0.49999   0.00000  Uiso   1.00
C25    C     0.50007   0.15059   0.57678   0.00000  Uiso   1.00
C26    C     0.50008   0.23165   0.57656   0.00000  Uiso   1.00
C27    C     0.50000   0.03441   0.49999   0.00000  Uiso   1.00
C28    C     0.49999   0.96558   0.49998   0.00000  Uiso   1.00
C29    C     0.49998   0.89046   0.49998   0.00000  Uiso   1.00
C30    C     0.49991   0.84939   0.42320   0.00000  Uiso   1.00
C31    C     0.49990   0.76833   0.42343   0.00000  Uiso   1.00
C32    C     0.49996   0.72593   0.49999   0.00000  Uiso   1.00
C33    C     0.50003   0.76832   0.57654   0.00000  Uiso   1.00
C34    C     0.50004   0.84938   0.57677   0.00000  Uiso   1.00
H7     H     0.49995   0.25981   0.36670   0.00000  Uiso   1.00
H8     H     0.49992   0.12218   0.36656   0.00000  Uiso   1.00
H9     H     0.50012   0.25977   0.63331   0.00000  Uiso   1.00
H10    H     0.49985   0.74021   0.36668   0.00000  Uiso   1.00
H11    H     0.50007   0.74019   0.63329   0.00000  Uiso   1.00
H12    H     0.50009   0.87782   0.63342   0.00000  Uiso   1.00
C35    C     0.76674   0.49959   0.56176   0.00000  Uiso   1.00
C36    C     0.78321   0.49983   0.41410   0.00000  Uiso   1.00
C37    C     0.73851   0.49990   0.39127   0.00000  Uiso   1.00
C38    C     0.70699   0.49981   0.45732   0.00000  Uiso   1.00
C39    C     0.66110   0.49988   0.43825   0.00000  Uiso   1.00
C40    C     0.64464   0.49964   0.58592   0.00000  Uiso   1.00
C41    C     0.68933   0.49956   0.60874   0.00000  Uiso   1.00
C42    C     0.72086   0.49965   0.54270   0.00000  Uiso   1.00
C43    C     0.79648   0.49967   0.50001   0.00000  Uiso   1.00
C44    C     0.63137   0.49979   0.50000   0.00000  Uiso   1.00
H13    H     0.80815   0.49989   0.36542   0.00000  Uiso   1.00
H14    H     0.61969   0.49957   0.63458   0.00000  Uiso   1.00
C45    C     0.05712   0.49978   0.50001   0.00000  Uiso   1.00
C46    C     0.08136   0.49972   0.57657   0.00000  Uiso   1.00
C47    C     0.12774   0.49978   0.57680   0.00000  Uiso   1.00
C48    C     0.15125   0.49989   0.50002   0.00000  Uiso   1.00
C49    C     0.12776   0.49995   0.42324   0.00000  Uiso   1.00
C50    C     0.08138   0.49989   0.42346   0.00000  Uiso   1.00
C51    C     0.19423   0.49994   0.50002   0.00000  Uiso   1.00
C52    C     0.23361   0.49998   0.50003   0.00000  Uiso   1.00
C53    C     0.27659   0.50003   0.50002   0.00000  Uiso   1.00
C54    C     0.30009   0.49999   0.57680   0.00000  Uiso   1.00
C55    C     0.34647   0.50004   0.57657   0.00000  Uiso   1.00
C56    C     0.37073   0.50012   0.50001   0.00000  Uiso   1.00
C57    C     0.34648   0.50016   0.42346   0.00000  Uiso   1.00
C58    C     0.30010   0.50011   0.42324   0.00000  Uiso   1.00
H15    H     0.06527   0.49964   0.63332   0.00000  Uiso   1.00
H16    H     0.14401   0.49974   0.63345   0.00000  Uiso   1.00
H17    H     0.06529   0.49994   0.36670   0.00000  Uiso   1.00
H18    H     0.36256   0.50001   0.63332   0.00000  Uiso   1.00
H19    H     0.36257   0.50022   0.36671   0.00000  Uiso   1.00
H20    H     0.28383   0.50014   0.36659   0.00000  Uiso   1.00
N3     N     0.92783   0.50244   0.69964   0.00000  Uiso   1.00
C59    C     0.95600   0.55171   0.74629   0.00000  Uiso   1.00
C60    C     0.95609   0.55155   0.83513   0.00000  Uiso   1.00
C61    C     0.92784   0.50181   0.87996   0.00000  Uiso   1.00
C62    C     0.89959   0.45239   0.83476   0.00000  Uiso   1.00
C63    C     0.89967   0.45284   0.74592   0.00000  Uiso   1.00
C64    C     0.92785   0.50153   0.96230   0.00000  Uiso   1.00
C65    C     0.92785   0.50127   0.03774   0.00000  Uiso   1.00
C66    C     0.92785   0.50098   0.12007   0.00000  Uiso   1.00
C67    C     0.95611   0.55039   0.16529   0.00000  Uiso   1.00
C68    C     0.95603   0.54993   0.25413   0.00000  Uiso   1.00
N4     N     0.92785   0.50036   0.30040   0.00000  Uiso   1.00
C69    C     0.89968   0.45110   0.25374   0.00000  Uiso   1.00
C70    C     0.89959   0.45126   0.16489   0.00000  Uiso   1.00
H21    H     0.97688   0.58846   0.71560   0.00000  Uiso   1.00
H22    H     0.97694   0.58802   0.86645   0.00000  Uiso   1.00
H23    H     0.87878   0.41630   0.71495   0.00000  Uiso   1.00
H24    H     0.97692   0.58646   0.28510   0.00000  Uiso   1.00
H25    H     0.87879   0.41436   0.28443   0.00000  Uiso   1.00
H26    H     0.87874   0.41480   0.13358   0.00000  Uiso   1.00
C71    C     0.92614   0.27373   0.50304   0.00000  Uiso   1.00
C72    C     0.92629   0.23109   0.57943   0.00000  Uiso   1.00
C73    C     0.92648   0.15003   0.57935   0.00000  Uiso   1.00
C74    C     0.92653   0.10921   0.50241   0.00000  Uiso   1.00
C75    C     0.92638   0.15054   0.42579   0.00000  Uiso   1.00
C76    C     0.92619   0.23159   0.42632   0.00000  Uiso   1.00
C77    C     0.92670   0.03409   0.50212   0.00000  Uiso   1.00
C78    C     0.92686   0.96526   0.50186   0.00000  Uiso   1.00
C79    C     0.92703   0.89014   0.50156   0.00000  Uiso   1.00
C80    C     0.92719   0.84881   0.57818   0.00000  Uiso   1.00
C81    C     0.92737   0.76775   0.57763   0.00000  Uiso   1.00
C82    C     0.92740   0.72562   0.50091   0.00000  Uiso   1.00
C83    C     0.92724   0.76826   0.42452   0.00000  Uiso   1.00
C84    C     0.92706   0.84932   0.42462   0.00000  Uiso   1.00
H27    H     0.92627   0.25903   0.63629   0.00000  Uiso   1.00
H28    H     0.92659   0.12141   0.63589   0.00000  Uiso   1.00
H29    H     0.92609   0.25991   0.36968   0.00000  Uiso   1.00
H30    H     0.92748   0.73943   0.63428   0.00000  Uiso   1.00
H31    H     0.92726   0.74033   0.36766   0.00000  Uiso   1.00
H32    H     0.92694   0.87796   0.36808   0.00000  Uiso   1.00
O17    O     0.55486   0.40400   0.12558   0.00000  Uiso   1.00
Li1    Li    0.56462   0.38691   0.02092   0.00000  Uiso   1.00
O18    O     0.44512   0.59595   0.87440   0.00000  Uiso   1.00
Li2    Li    0.43534   0.61303   0.97907   0.00000  Uiso   1.00
O19    O     0.50011   0.11456   0.64852   0.00000  Uiso   1.00
Li3    Li    0.50011   0.01907   0.67496   0.00000  Uiso   1.00
O20    O     0.49985   0.88542   0.35146   0.00000  Uiso   1.00
Li4    Li    0.49984   0.98091   0.32501   0.00000  Uiso   1.00
O21    O     0.14837   0.50005   0.35149   0.00000  Uiso   1.00
Li5    Li    0.20301   0.50014   0.32505   0.00000  Uiso   1.00
O22    O     0.27948   0.49992   0.64855   0.00000  Uiso   1.00
Li6    Li    0.22484   0.49984   0.67500   0.00000  Uiso   1.00
O23    O     0.87319   0.40592   0.87406   0.00000  Uiso   1.00
Li7    Li    0.86347   0.38848   0.97866   0.00000  Uiso   1.00
O24    O     0.98252   0.59684   0.12599   0.00000  Uiso   1.00
Li8    Li    0.99226   0.61427   0.02140   0.00000  Uiso   1.00
O25    O     0.92642   0.11475   0.35390   0.00000  Uiso   1.00
Li9    Li    0.92662   0.01935   0.32709   0.00000  Uiso   1.00
O26    O     0.92717   0.88459   0.65007   0.00000  Uiso   1.00
Li10   Li    0.92698   0.97999   0.67689   0.00000  Uiso   1.00
O27    O     0.74057   0.54965   0.72710   0.00000  Uiso   1.00
O28    O     0.68170   0.44898   0.76169   0.00000  Uiso   1.00
N5     N     0.70398   0.49939   0.69990   0.00000  Uiso   1.00
O29    O     0.81747   0.54964   0.68094   0.00000  Uiso   1.00
O30    O     0.75844   0.44898   0.71457   0.00000  Uiso   1.00
N6     N     0.78099   0.49940   0.65315   0.00000  Uiso   1.00
O31    O     0.68717   0.55046   0.27310   0.00000  Uiso   1.00
O32    O     0.74627   0.44982   0.23813   0.00000  Uiso   1.00
N7     N     0.72387   0.50006   0.30011   0.00000  Uiso   1.00
O33    O     0.61028   0.55049   0.31930   0.00000  Uiso   1.00
O34    O     0.66950   0.44983   0.28522   0.00000  Uiso   1.00
N8     N     0.64685   0.50007   0.34687   0.00000  Uiso   1.00
