# Generated by REPEAT Assigner based on pymatgen
data_DB1-Cu2O8-ADC_A-irmof7_A_No1053
_audit_creation_date              2022-05-24
_audit_creation_method            REPEAT_Assigner
_cell_length_a                    10.543200
_cell_length_b                    34.996400
_cell_length_c                    10.000000
_cell_angle_alpha                 90.000000
_cell_angle_beta                  90.000000
_cell_angle_gamma                 90.093300
_cell_volume                      3689.735553
_symmetry_space_group_name_H-M    P1
_symmetry_Int_Tables_number       1
loop_
    _symmetry_equiv_pos_site_id
    _symmetry_equiv_pos_as_xyz
    1  x,y,z
loop_
    _atom_site_type_symbol
    _atom_site_label
    _atom_site_fract_x
    _atom_site_fract_y
    _atom_site_fract_z
    _atom_type_partial_charge
    Cu  Cu1  0.500000  0.500000  0.627260  1.068707
    Cu  Cu2  0.500010  0.500000  0.372740  1.027269
    O   O1   0.664920  0.499970  0.618690  -0.483178
    O   O2   0.334750  0.499920  0.618670  -0.493973
    O   O3   0.499640  0.450210  0.618680  -0.338364
    O   O4   0.500020  0.549680  0.618680  -0.314909
    O   O5   0.500320  0.549790  0.381320  -0.248090
    O   O6   0.500030  0.450330  0.381320  -0.325313
    O   O7   0.334960  0.499980  0.381310  -0.492490
    O   O8   0.665260  0.500100  0.381330  -0.454057
    C   C1   0.737880  0.500030  0.500010  0.423541
    C   C2   0.262130  0.499970  0.499990  0.427957
    C   C3   0.499840  0.428340  0.499990  0.368896
    C   C4   0.500170  0.571670  0.500000  0.262217
    Cu  Cu3  0.500500  0.000000  0.281880  1.068582
    Cu  Cu4  0.499860  0.000010  0.536390  1.022544
    O   O9   0.665390  0.000190  0.290910  -0.483128
    O   O10  0.335220  0.999930  0.290000  -0.493775
    O   O11  0.500130  0.049790  0.290440  -0.338721
    O   O12  0.500480  0.950320  0.290470  -0.316045
    O   O13  0.500180  0.950210  0.527830  -0.245680
    O   O14  0.499920  0.049680  0.527800  -0.322482
    O   O15  0.334830  0.999870  0.527350  -0.492635
    O   O16  0.665140  0.000070  0.528270  -0.451878
    C   C5   0.738060  0.000200  0.409800  0.420053
    C   C6   0.262300  0.999800  0.408480  0.424750
    C   C7   0.500030  0.071670  0.409120  0.371439
    C   C8   0.500330  0.928340  0.409150  0.265839
    C   C9   0.500330  0.885660  0.409160  0.024468
    C   C10  0.500170  0.865060  0.530080  0.079220
    C   C11  0.500160  0.825030  0.530240  -0.055846
    C   C12  0.500320  0.804430  0.408930  0.277123
    C   C13  0.500470  0.825100  0.288320  -0.136234
    C   C14  0.500480  0.865090  0.288240  0.131438
    C   C15  0.500320  0.761820  0.401440  -0.236760
    C   C16  0.500180  0.738180  0.507770  -0.230615
    C   C17  0.500030  0.674900  0.620870  -0.130903
    C   C18  0.500190  0.695570  0.500260  0.270399
    C   C19  0.500340  0.674980  0.378940  -0.049556
    C   C20  0.500330  0.634950  0.379100  0.073144
    C   C21  0.500180  0.614340  0.500010  0.031868
    C   C22  0.500030  0.634910  0.620940  0.124522
    H   H1   0.500450  0.749900  0.302040  0.309952
    H   H2   0.500060  0.750100  0.607160  0.307762
    C   C23  0.500030  0.114340  0.409130  -0.010428
    C   C24  0.499820  0.134950  0.530040  0.142860
    C   C25  0.499820  0.174980  0.530220  -0.096301
    C   C26  0.500020  0.195570  0.408900  0.271960
    C   C27  0.500220  0.174910  0.288290  -0.083512
    C   C28  0.500220  0.134920  0.288210  0.097492
    C   C29  0.500020  0.238190  0.401420  -0.213099
    C   C30  0.499850  0.261820  0.507740  -0.202469
    C   C31  0.499650  0.325100  0.620850  -0.077484
    C   C32  0.499850  0.304430  0.500240  0.262137
    C   C33  0.500050  0.325030  0.378920  -0.086749
    C   C34  0.500050  0.365050  0.379090  0.134059
    C   C35  0.499850  0.385660  0.500000  -0.001999
    C   C36  0.499650  0.365090  0.620920  0.092271
    H   H3   0.500190  0.250100  0.302020  0.267938
    H   H4   0.499690  0.249900  0.607140  0.264335
    C   C37  0.123720  0.499990  0.499990  -0.076069
    C   C38  0.058960  0.524780  0.413590  0.241511
    C   C39  0.058640  0.475210  0.586400  -0.105291
    C   C40  0.127710  0.548980  0.329190  -0.525911
    C   C41  0.066870  0.574060  0.241780  0.171866
    H   H5   0.215770  0.548320  0.331460  0.320716
    C   C42  0.876290  0.500010  0.500000  -0.015318
    C   C43  0.941050  0.475230  0.586400  -0.091587
    C   C44  0.941370  0.524790  0.413590  0.128766
    C   C45  0.872930  0.549000  0.329200  -0.330823
    C   C46  0.934090  0.574070  0.241790  0.057178
    H   H6   0.784860  0.548360  0.331480  0.180676
    H   H7   0.895820  0.459070  0.642760  0.128781
    H   H8   0.103670  0.459040  0.642750  0.179056
    C   C47  0.123890  0.000620  0.410900  -0.070796
    C   C48  0.058900  0.975770  0.497130  0.239930
    C   C49  0.059040  0.025330  0.324310  -0.107999
    C   C50  0.127430  0.951630  0.581740  -0.525264
    C   C51  0.066370  0.926500  0.668980  0.171763
    H   H9   0.215500  0.952380  0.579710  0.321278
    C   C52  0.876470  0.000350  0.410200  -0.015061
    C   C53  0.941450  0.025200  0.323970  -0.090537
    C   C54  0.941320  0.975640  0.496790  0.127611
    C   C55  0.872660  0.951360  0.581010  -0.326785
    C   C56  0.933590  0.926360  0.668600  0.053946
    H   H10  0.784590  0.951920  0.578470  0.178328
    H   H11  0.896360  0.041310  0.267480  0.129333
    H   H12  0.104210  0.041540  0.268070  0.178958
    O   O17  0.583600  0.919810  0.137450  -0.258679
    O   O18  0.417860  0.872960  0.046000  -0.223116
    N   N1   0.500650  0.886120  0.156190  0.202576
    O   O19  0.417730  0.770700  0.135890  -0.302750
    O   O20  0.583710  0.817740  0.046120  -0.219633
    N   N2   0.500640  0.804350  0.155730  0.385942
    O   O21  0.417060  0.919740  0.680660  -0.354870
    O   O22  0.582790  0.873080  0.772280  -0.100529
    N   N3   0.500000  0.886130  0.662050  0.197810
    O   O23  0.582890  0.771710  0.686950  -0.220610
    O   O24  0.416930  0.819160  0.772960  -0.080194
    N   N4   0.499990  0.805140  0.664450  0.120120
    O   O25  0.583470  0.728370  0.222460  -0.220478
    O   O26  0.417720  0.680760  0.135980  -0.079081
    N   N5   0.500510  0.694860  0.244730  0.116973
    O   O27  0.417590  0.580190  0.228270  -0.353530
    O   O28  0.583570  0.627010  0.137130  -0.100892
    N   N6   0.500500  0.613880  0.247120  0.198483
    O   O29  0.416920  0.729220  0.773070  -0.303356
    O   O30  0.582650  0.682340  0.863300  -0.219126
    N   N7   0.499870  0.695650  0.753460  0.386176
    O   O31  0.582760  0.580270  0.771940  -0.258458
    O   O32  0.416790  0.626950  0.862930  -0.224182
    N   N8   0.499860  0.613880  0.752980  0.204137
    O   O33  0.417550  0.080200  0.137150  -0.246147
    O   O34  0.583550  0.127050  0.046240  -0.184753
    N   N9   0.500440  0.113890  0.156150  0.186913
    O   O35  0.583390  0.229310  0.136140  -0.297281
    O   O36  0.417690  0.182270  0.045830  -0.183349
    N   N10  0.500430  0.195660  0.155700  0.345539
    O   O37  0.582510  0.080260  0.680890  -0.242982
    O   O38  0.416500  0.126920  0.771980  -0.153509
    N   N11  0.499610  0.113880  0.662020  0.138920
    O   O39  0.416630  0.228290  0.686650  -0.223607
    O   O40  0.582350  0.180850  0.773200  -0.087192
    N   N12  0.499600  0.194860  0.664420  0.194533
    O   O41  0.417380  0.271630  0.222170  -0.223193
    O   O42  0.583380  0.319240  0.136230  -0.087303
    N   N13  0.500270  0.305140  0.244710  0.189877
    O   O43  0.583220  0.419820  0.228530  -0.243336
    O   O44  0.417510  0.373000  0.136850  -0.152452
    N   N14  0.500260  0.386120  0.247110  0.141458
    O   O45  0.582340  0.270790  0.773320  -0.298232
    O   O46  0.416330  0.317660  0.863010  -0.183221
    N   N15  0.499440  0.304350  0.753450  0.344648
    O   O47  0.416470  0.419730  0.771670  -0.246804
    O   O48  0.582180  0.373050  0.863190  -0.184029
    N   N16  0.499430  0.386120  0.752970  0.186561
    C   C57  0.143550  0.600900  0.148160  -0.235390
    H   H13  0.122750  0.595350  0.056730  0.087316
    H   H14  0.232640  0.596940  0.162200  0.160747
    H   H15  0.122680  0.627000  0.167660  0.054183
    C   C58  0.857760  0.600930  0.148170  -0.050785
    H   H16  0.878690  0.627030  0.167940  0.048032
    H   H17  0.768610  0.596910  0.161930  0.001250
    H   H18  0.878760  0.595450  0.056760  0.073831
    C   C59  0.142800  0.899730  0.762820  -0.231629
    H   H19  0.121770  0.905270  0.854190  0.084552
    H   H20  0.231930  0.903770  0.749040  0.159512
    H   H21  0.121970  0.873610  0.743270  0.054362
    C   C60  0.857010  0.899430  0.762000  -0.044264
    H   H22  0.877990  0.873350  0.742300  0.045970
    H   H23  0.767900  0.903360  0.747990  -0.001284
    H   H24  0.877790  0.904930  0.853470  0.073479
