# Generated by REPEAT Assigner based on pymatgen
data_DB1-Cu2N8-AZO_B-DPAC_B_No218
_audit_creation_date              2022-05-24
_audit_creation_method            REPEAT_Assigner
_cell_length_a                    21.586100
_cell_length_b                    19.686400
_cell_length_c                    7.052800
_cell_angle_alpha                 82.558800
_cell_angle_beta                  106.346000
_cell_angle_gamma                 122.384000
_cell_volume                      2427.851583
_symmetry_space_group_name_H-M    P1
_symmetry_Int_Tables_number       1
loop_
    _symmetry_equiv_pos_site_id
    _symmetry_equiv_pos_as_xyz
    1  x,y,z
loop_
    _atom_site_type_symbol
    _atom_site_label
    _atom_site_fract_x
    _atom_site_fract_y
    _atom_site_fract_z
    _atom_type_partial_charge
    Cu  Cu1  0.500000  0.500000  0.000000  0.337103
    Cu  Cu2  0.500000  0.500000  0.500000  0.292420
    N   N1   0.585200  0.584560  0.199020  0.131947
    N   N2   0.647790  0.648060  0.166680  -0.519142
    N   N3   0.500630  0.414890  0.375110  0.139133
    N   N4   0.499720  0.351000  0.460720  -0.469538
    N   N5   0.414800  0.415440  0.613380  0.071244
    N   N6   0.352210  0.351940  0.519120  -0.495224
    N   N7   0.499370  0.585110  0.812490  -0.103145
    N   N8   0.500280  0.649000  0.853480  -0.230942
    N   N9   0.414800  0.415440  0.800980  0.132635
    N   N10  0.352210  0.351940  0.833320  -0.518825
    N   N11  0.499370  0.585110  0.624890  0.131575
    N   N12  0.500280  0.649000  0.539280  -0.454388
    N   N13  0.585200  0.584560  0.386620  0.069084
    N   N14  0.647790  0.648060  0.480880  -0.495110
    N   N15  0.500630  0.414890  0.187510  -0.099246
    N   N16  0.499720  0.351000  0.146520  -0.237596
    C   C1   0.685390  0.685630  0.342590  0.771271
    C   C2   0.499750  0.313190  0.317320  0.660692
    C   C3   0.314610  0.314370  0.657410  0.790628
    C   C4   0.500250  0.686810  0.682680  0.674123
    C   C5   0.499810  0.236770  0.344990  -0.396994
    C   C6   0.499840  0.199840  0.530130  0.019003
    C   C7   0.499900  0.128060  0.555670  -0.228667
    C   C8   0.499930  0.091750  0.396850  0.477235
    C   C9   0.499900  0.128160  0.212670  -0.412966
    C   C10  0.499840  0.199900  0.186490  0.213938
    N   N17  0.499980  0.018230  0.418400  -0.221927
    N   N18  0.500010  0.981770  0.581600  -0.226934
    C   C11  0.500100  0.871840  0.787330  -0.430168
    C   C12  0.500070  0.908250  0.603160  0.498847
    C   C13  0.500100  0.871940  0.444330  -0.255792
    C   C14  0.500160  0.800160  0.469870  0.060243
    C   C15  0.500190  0.763230  0.655010  -0.404019
    C   C16  0.500160  0.800100  0.813510  0.225541
    H   H1   0.499820  0.226840  0.654440  0.120127
    H   H2   0.499920  0.100640  0.698770  0.096625
    H   H3   0.499920  0.100640  0.089480  0.130068
    H   H4   0.500080  0.899360  0.910520  0.131783
    H   H5   0.500080  0.899360  0.301230  0.100177
    H   H6   0.500180  0.773150  0.345560  0.088954
    C   C17  0.242450  0.242260  0.621300  -0.193816
    C   C18  0.204950  0.204800  0.430490  -0.051190
    C   C19  0.133240  0.133150  0.394090  -0.088731
    C   C20  0.096910  0.096820  0.548470  0.199196
    C   C21  0.133250  0.133110  0.739220  -0.086768
    C   C22  0.204950  0.204770  0.774590  -0.099479
    C   C23  0.030450  0.030410  0.515210  -0.149759
    C   C24  0.969560  0.969570  0.484730  -0.096688
    C   C25  0.903110  0.903160  0.451500  0.161461
    C   C26  0.866770  0.866860  0.260770  -0.048225
    C   C27  0.795060  0.795200  0.225410  -0.128179
    C   C28  0.757560  0.757730  0.378690  -0.175006
    C   C29  0.795060  0.795200  0.569490  -0.067452
    C   C30  0.866770  0.866860  0.605870  -0.062790
    H   H7   0.229830  0.229680  0.315390  0.088391
    H   H8   0.108080  0.108020  0.254180  0.343099
    H   H9   0.229840  0.229620  0.914590  0.122132
    H   H10  0.770180  0.770340  0.085420  0.130152
    H   H11  0.770170  0.770340  0.684580  0.092186
    H   H12  0.891930  0.891990  0.745770  0.314321
    C   C31  0.499810  0.238680  0.980290  0.210729
    H   H13  0.455310  0.201720  0.884540  -0.023253
    H   H14  0.499880  0.287190  0.985810  -0.148899
    H   H15  0.544210  0.251100  0.943020  -0.029255
    C   C32  0.500190  0.761320  0.019710  0.141737
    H   H16  0.455670  0.748680  0.056720  -0.022982
    H   H17  0.500340  0.712930  0.014340  -0.134219
    H   H18  0.544570  0.798370  0.115570  0.037293
    S   S1   0.090410  0.090280  0.934560  0.795869
    O   O1   0.129200  0.041780  0.086360  -0.386299
    O   O2   0.001760  0.027100  0.863050  -0.343732
    H   H19  0.131820  0.056700  0.216790  0.196655
    O   O3   0.102240  0.156530  0.071550  -0.456691
    S   S2   0.909610  0.909660  0.065430  0.746091
    O   O4   0.947150  0.859910  0.014830  -0.382303
    O   O5   0.976040  0.001440  0.107450  -0.337647
    H   H20  0.933750  0.858850  0.870110  0.195458
    O   O6   0.850160  0.904690  0.865300  -0.425176
