# Generated by REPEAT Assigner based on pymatgen
data_DB1-Zn2O8N2-ADC_A-BDC_A_No229
_audit_creation_date              2022-05-24
_audit_creation_method            REPEAT_Assigner
_cell_length_a                    16.735800
_cell_length_b                    17.722000
_cell_length_c                    10.900900
_cell_angle_alpha                 89.851600
_cell_angle_beta                  92.085300
_cell_angle_gamma                 84.915100
_cell_volume                      3218.206417
_symmetry_space_group_name_H-M    P1
_symmetry_Int_Tables_number       1
loop_
    _symmetry_equiv_pos_site_id
    _symmetry_equiv_pos_as_xyz
    1  x,y,z
loop_
    _atom_site_type_symbol
    _atom_site_label
    _atom_site_fract_x
    _atom_site_fract_y
    _atom_site_fract_z
    _atom_type_partial_charge
    O   O1   0.587330  0.387870  0.506060  -0.595044
    O   O2   0.424380  0.393790  0.495800  -0.584812
    C   C1   0.507960  0.352360  0.500900  0.374877
    Zn  Zn1  0.599380  0.496410  0.505880  0.996052
    O   O3   0.418370  0.502980  0.672050  -0.469738
    O   O4   0.581330  0.497180  0.681770  -0.595052
    C   C2   0.499880  0.500040  0.739270  0.520862
    O   O5   0.412660  0.612150  0.494170  -0.594192
    O   O6   0.575620  0.606230  0.503970  -0.584941
    C   C3   0.492040  0.647660  0.499000  0.375202
    Zn  Zn2  0.400620  0.503610  0.494130  0.992511
    O   O7   0.581630  0.496880  0.327960  -0.471215
    O   O8   0.418660  0.502970  0.318240  -0.594969
    C   C4   0.500130  0.499720  0.260740  0.522354
    N   N1   0.283700  0.507850  0.487220  -0.057711
    C   C5   0.242940  0.461090  0.563560  0.011057
    C   C6   0.158960  0.464070  0.558700  -0.273467
    C   C7   0.113260  0.514120  0.476980  0.262526
    C   C8   0.154150  0.560740  0.400850  -0.301280
    C   C9   0.238050  0.557740  0.405760  -0.009941
    C   C10  0.023700  0.520350  0.466800  -0.116876
    C   C11  0.976290  0.479650  0.533250  -0.118866
    C   C12  0.845840  0.439270  0.599190  -0.302353
    C   C13  0.886740  0.485890  0.523060  0.264009
    C   C14  0.841030  0.535940  0.441340  -0.274013
    C   C15  0.757060  0.538920  0.436470  0.011998
    N   N2   0.716290  0.492170  0.512810  -0.059949
    C   C16  0.761940  0.442280  0.594270  -0.008746
    H   H1   0.276550  0.422170  0.627120  0.127623
    H   H2   0.131180  0.426900  0.619380  0.122111
    H   H3   0.121010  0.599830  0.337020  0.163661
    H   H4   0.267710  0.594390  0.345920  0.146214
    H   H5   0.878970  0.400180  0.663020  0.164024
    H   H6   0.868820  0.573110  0.380650  0.121998
    H   H7   0.723460  0.577850  0.372910  0.127566
    H   H8   0.732280  0.405630  0.654110  0.145803
    C   C17  0.512570  0.267820  0.501070  0.176555
    C   C18  0.442300  0.229550  0.496790  -0.202972
    C   C19  0.446530  0.150260  0.496940  -0.154632
    C   C20  0.521480  0.106880  0.501390  0.173575
    C   C21  0.591560  0.145270  0.505660  -0.218154
    C   C22  0.587280  0.224490  0.505510  -0.165587
    C   C23  0.530580  0.022300  0.501820  -0.102165
    C   C24  0.469390  0.977720  0.498080  -0.100789
    C   C25  0.408430  0.854750  0.494240  -0.217523
    C   C26  0.478490  0.893140  0.498510  0.172166
    C   C27  0.553450  0.849770  0.502970  -0.153305
    C   C28  0.557680  0.770470  0.503120  -0.203536
    C   C29  0.487420  0.732200  0.498840  0.176692
    C   C30  0.412710  0.775520  0.494400  -0.165840
    H   H9   0.384000  0.261460  0.493320  0.125308
    H   H10  0.390690  0.124190  0.493540  0.132537
    H   H11  0.650100  0.113800  0.509140  0.154787
    H   H12  0.642350  0.252330  0.508860  0.121374
    H   H13  0.349880  0.886210  0.490760  0.154802
    H   H14  0.609290  0.875830  0.506360  0.132214
    H   H15  0.615990  0.738570  0.506580  0.125258
    H   H16  0.357640  0.747680  0.491040  0.121165
    C   C31  0.499940  0.499960  0.871510  -0.045229
    C   C32  0.500070  0.499800  0.128500  -0.049194
    C   C33  0.428070  0.502480  0.932250  0.535427
    C   C34  0.571940  0.497280  0.067760  0.538806
    C   C35  0.428130  0.502400  0.059860  -0.424494
    C   C36  0.571880  0.497360  0.940150  -0.428683
    H   H17  0.378310  0.504150  0.101150  0.116436
    H   H18  0.621700  0.495610  0.898860  0.117262
    C   C37  0.984750  0.578860  0.371260  -0.068281
    H   H19  0.953910  0.553380  0.310880  0.034898
    H   H20  0.026030  0.603190  0.331810  0.014067
    H   H21  0.950210  0.616190  0.412020  0.072398
    C   C38  0.015240  0.421140  0.628790  -0.065294
    H   H22  0.049590  0.383680  0.587980  0.071551
    H   H23  0.973950  0.396980  0.668500  0.013043
    H   H24  0.046280  0.446580  0.688970  0.034330
    C   C39  0.618250  0.985250  0.507050  -0.000922
    H   H25  0.627030  0.954310  0.579540  0.026964
    H   H26  0.654740  0.024120  0.509110  -0.007038
    H   H27  0.627200  0.954410  0.435730  0.025487
    C   C40  0.381720  0.014760  0.492850  -0.000877
    H   H28  0.372700  0.045420  0.564350  0.025435
    H   H29  0.345230  0.975890  0.490420  -0.007269
    H   H30  0.373010  0.045880  0.420560  0.026954
    O   O9   0.360650  0.504920  0.869010  -0.896714
    Li  Li1  0.262580  0.508380  0.909530  0.859238
    O   O10  0.639360  0.494840  0.130990  -0.896735
    Li  Li2  0.737430  0.491380  0.090480  0.859225
