data_DB1-Cu2O8-irmof8_A-imd_No11_repeat
_audit_creation_date              2024-02-23
_audit_creation_method            'Materials Studio'
_symmetry_space_group_name_H-M    'P1'
_symmetry_Int_Tables_number       1
_symmetry_cell_setting            triclinic
loop_
_symmetry_equiv_pos_as_xyz
  x,y,z
_cell_length_a                    25.9805
_cell_length_b                    18.3596
_cell_length_c                    10.0000
_cell_angle_alpha                 90.0000
_cell_angle_beta                  90.0000
_cell_angle_gamma                 134.9660
loop_
_atom_site_label
_atom_site_type_symbol
_atom_site_fract_x
_atom_site_fract_y
_atom_site_fract_z
_atom_site_U_iso_or_equiv
_atom_site_adp_type
_atom_site_occupancy
Cu1    Cu    0.49998   0.49995   0.62726   0.00000  Uiso   1.00
Cu2    Cu    0.50002   0.50004   0.37274   0.00000  Uiso   1.00
O1     O     0.43299   0.36610   0.61860   0.00000  Uiso   1.00
O2     O     0.56695   0.63408   0.61876   0.00000  Uiso   1.00
O3     O     0.43305   0.50024   0.61868   0.00000  Uiso   1.00
O4     O     0.56689   0.49994   0.61868   0.00000  Uiso   1.00
O5     O     0.56696   0.49979   0.38132   0.00000  Uiso   1.00
O6     O     0.43309   0.50002   0.38132   0.00000  Uiso   1.00
O7     O     0.56700   0.63400   0.38140   0.00000  Uiso   1.00
O8     O     0.43306   0.36591   0.38124   0.00000  Uiso   1.00
C1     C     0.40346   0.30692   0.49988   0.00000  Uiso   1.00
C2     C     0.59654   0.69307   0.50011   0.00000  Uiso   1.00
C3     C     0.40353   0.50013   0.50000   0.00000  Uiso   1.00
C4     C     0.59647   0.49986   0.50000   0.00000  Uiso   1.00
Cu3    Cu    0.99989   0.49977   0.37271   0.00000  Uiso   1.00
Cu4    Cu    0.00009   0.50018   0.62723   0.00000  Uiso   1.00
O9     O     0.93319   0.36593   0.38166   0.00000  Uiso   1.00
O10    O     0.06688   0.63391   0.38092   0.00000  Uiso   1.00
O11    O     0.06710   0.50006   0.38129   0.00000  Uiso   1.00
O12    O     0.93297   0.49977   0.38129   0.00000  Uiso   1.00
O13    O     0.93289   0.49992   0.61865   0.00000  Uiso   1.00
O14    O     0.06699   0.50014   0.61865   0.00000  Uiso   1.00
O15    O     0.06692   0.63413   0.61828   0.00000  Uiso   1.00
O16    O     0.93308   0.36604   0.61902   0.00000  Uiso   1.00
C5     C     0.90369   0.30690   0.50051   0.00000  Uiso   1.00
C6     C     0.09629   0.69305   0.49944   0.00000  Uiso   1.00
C7     C     0.09659   0.50010   0.49997   0.00000  Uiso   1.00
C8     C     0.90339   0.49985   0.49997   0.00000  Uiso   1.00
C9     C     0.81163   0.49979   0.40210   0.00000  Uiso   1.00
C10    C     0.83093   0.49994   0.63616   0.00000  Uiso   1.00
C11    C     0.77871   0.49996   0.67233   0.00000  Uiso   1.00
C12    C     0.74184   0.49990   0.56765   0.00000  Uiso   1.00
C13    C     0.68823   0.49992   0.59787   0.00000  Uiso   1.00
C14    C     0.66892   0.49977   0.36381   0.00000  Uiso   1.00
C15    C     0.72115   0.49975   0.32764   0.00000  Uiso   1.00
C16    C     0.75801   0.49981   0.43232   0.00000  Uiso   1.00
C17    C     0.84641   0.49985   0.49998   0.00000  Uiso   1.00
C18    C     0.65345   0.49986   0.49999   0.00000  Uiso   1.00
H1     H     0.82364   0.49974   0.29745   0.00000  Uiso   1.00
H2     H     0.86011   0.50000   0.71331   0.00000  Uiso   1.00
H3     H     0.67621   0.49997   0.70252   0.00000  Uiso   1.00
H4     H     0.63975   0.49972   0.28668   0.00000  Uiso   1.00
C19    C     0.18828   0.50001   0.40210   0.00000  Uiso   1.00
C20    C     0.16916   0.50023   0.63616   0.00000  Uiso   1.00
C21    C     0.22141   0.50027   0.67233   0.00000  Uiso   1.00
C22    C     0.25820   0.50018   0.56765   0.00000  Uiso   1.00
C23    C     0.31184   0.50021   0.59787   0.00000  Uiso   1.00
C24    C     0.33096   0.49999   0.36381   0.00000  Uiso   1.00
C25    C     0.27871   0.49995   0.32764   0.00000  Uiso   1.00
C26    C     0.24192   0.50005   0.43232   0.00000  Uiso   1.00
C27    C     0.15357   0.50010   0.49998   0.00000  Uiso   1.00
C28    C     0.34654   0.50012   0.49999   0.00000  Uiso   1.00
H5     H     0.17618   0.49990   0.29745   0.00000  Uiso   1.00
H6     H     0.14004   0.50029   0.71331   0.00000  Uiso   1.00
H7     H     0.32394   0.50033   0.70252   0.00000  Uiso   1.00
H8     H     0.36008   0.49993   0.28668   0.00000  Uiso   1.00
C29    C     0.18819   0.87656   0.40169   0.00000  Uiso   1.00
C30    C     0.16873   0.83800   0.63572   0.00000  Uiso   1.00
C31    C     0.22097   0.94246   0.67197   0.00000  Uiso   1.00
C32    C     0.25793   0.01617   0.56734   0.00000  Uiso   1.00
C33    C     0.31157   0.12341   0.59763   0.00000  Uiso   1.00
C34    C     0.33103   0.16197   0.36360   0.00000  Uiso   1.00
C35    C     0.27878   0.05751   0.32735   0.00000  Uiso   1.00
C36    C     0.24183   0.98380   0.43198   0.00000  Uiso   1.00
C37    C     0.15332   0.80702   0.49952   0.00000  Uiso   1.00
C38    C     0.34643   0.19295   0.49980   0.00000  Uiso   1.00
H9     H     0.17624   0.85252   0.29702   0.00000  Uiso   1.00
H10    H     0.13949   0.77968   0.71283   0.00000  Uiso   1.00
H11    H     0.32351   0.14745   0.70229   0.00000  Uiso   1.00
H12    H     0.36027   0.22030   0.28650   0.00000  Uiso   1.00
C39    C     0.81205   0.12344   0.59824   0.00000  Uiso   1.00
C40    C     0.83143   0.16197   0.36420   0.00000  Uiso   1.00
C41    C     0.77912   0.05751   0.32797   0.00000  Uiso   1.00
C42    C     0.74218   0.98381   0.43262   0.00000  Uiso   1.00
C43    C     0.68847   0.87657   0.40234   0.00000  Uiso   1.00
C44    C     0.66910   0.83804   0.63638   0.00000  Uiso   1.00
C45    C     0.72140   0.94250   0.67261   0.00000  Uiso   1.00
C46    C     0.75835   0.01620   0.56796   0.00000  Uiso   1.00
C47    C     0.84691   0.19297   0.50040   0.00000  Uiso   1.00
C48    C     0.65362   0.80704   0.50018   0.00000  Uiso   1.00
H13    H     0.82407   0.14749   0.70290   0.00000  Uiso   1.00
H14    H     0.86067   0.22030   0.28709   0.00000  Uiso   1.00
H15    H     0.67645   0.85252   0.29768   0.00000  Uiso   1.00
H16    H     0.63986   0.77971   0.71348   0.00000  Uiso   1.00
O17    O     0.73581   0.49967   0.20358   0.00000  Uiso   1.00
Li1    Li    0.70295   0.49958   0.05524   0.00000  Uiso   1.00
O18    O     0.76406   0.50005   0.79639   0.00000  Uiso   1.00
Li2    Li    0.79692   0.50015   0.94473   0.00000  Uiso   1.00
O19    O     0.26394   0.49983   0.20358   0.00000  Uiso   1.00
Li3    Li    0.29669   0.49970   0.05524   0.00000  Uiso   1.00
O20    O     0.23616   0.50038   0.79639   0.00000  Uiso   1.00
Li4    Li    0.20341   0.50051   0.94473   0.00000  Uiso   1.00
O21    O     0.26418   0.02815   0.20328   0.00000  Uiso   1.00
Li5    Li    0.29716   0.09384   0.05498   0.00000  Uiso   1.00
O22    O     0.23557   0.97181   0.79604   0.00000  Uiso   1.00
Li6    Li    0.20260   0.90612   0.94434   0.00000  Uiso   1.00
O23    O     0.73607   0.97187   0.79668   0.00000  Uiso   1.00
Li7    Li    0.70313   0.90619   0.94499   0.00000  Uiso   1.00
O24    O     0.76446   0.02815   0.20390   0.00000  Uiso   1.00
Li8    Li    0.79741   0.09384   0.05559   0.00000  Uiso   1.00
