# Generated by REPEAT Assigner based on pymatgen
data_DB1-Zn2O8-irmof10_A-mof177_No308
_audit_creation_date              2022-05-24
_audit_creation_method            REPEAT_Assigner
_cell_length_a                    34.779800
_cell_length_b                    34.616000
_cell_length_c                    34.615900
_cell_angle_alpha                 60.000300
_cell_angle_beta                  59.854900
_cell_angle_gamma                 59.846000
_cell_volume                      29402.222507
_symmetry_space_group_name_H-M    P1
_symmetry_Int_Tables_number       1
loop_
    _symmetry_equiv_pos_site_id
    _symmetry_equiv_pos_as_xyz
    1  x,y,z
loop_
    _atom_site_type_symbol
    _atom_site_label
    _atom_site_fract_x
    _atom_site_fract_y
    _atom_site_fract_z
    _atom_type_partial_charge
    Br  Br1   0.515290  0.647000  0.470660  -0.015495
    Br  Br2   0.515440  0.470670  0.646780  -0.015650
    Br  Br3   0.514960  0.470790  0.869700  -0.021151
    Br  Br4   0.514450  0.644380  0.869970  -0.011860
    Br  Br5   0.514270  0.869860  0.644750  -0.011901
    Br  Br6   0.514630  0.869840  0.471110  -0.021407
    Br  Br7   0.484330  0.529390  0.353300  -0.015119
    Br  Br8   0.484080  0.353230  0.529600  -0.015115
    Br  Br9   0.482970  0.130930  0.529840  -0.021325
    Br  Br10  0.482350  0.131170  0.356570  -0.012074
    Br  Br11  0.482670  0.356430  0.131130  -0.012567
    Br  Br12  0.483530  0.529590  0.130870  -0.021668
    Br  Br13  0.633000  0.353100  0.529270  -0.007979
    Br  Br14  0.632690  0.529150  0.352860  -0.007697
    Br  Br15  0.855090  0.528860  0.129860  -0.018469
    Br  Br16  0.028570  0.355420  0.129790  -0.019676
    Br  Br17  0.028980  0.130300  0.355360  -0.017539
    Br  Br18  0.855810  0.130450  0.529080  -0.017984
    Br  Br19  0.367340  0.470900  0.647160  -0.008021
    Br  Br20  0.366940  0.646790  0.470600  -0.008106
    Br  Br21  0.143970  0.869260  0.470510  -0.017799
    Br  Br22  0.970740  0.869420  0.644170  -0.018593
    Br  Br23  0.971240  0.644510  0.869940  -0.022160
    Br  Br24  0.144860  0.471210  0.870090  -0.019784
    Br  Br25  0.631520  0.529790  0.984360  -0.003101
    Br  Br26  0.631870  0.353170  0.984800  0.003954
    Br  Br27  0.854450  0.130290  0.984220  -0.008597
    Br  Br28  0.027430  0.130540  0.983330  -0.019923
    Br  Br29  0.026990  0.356390  0.982760  -0.032786
    Br  Br30  0.853670  0.530010  0.983210  -0.018846
    Br  Br31  0.366040  0.647410  0.015940  0.003596
    Br  Br32  0.366310  0.470620  0.016790  -0.003973
    Br  Br33  0.143980  0.470130  0.018560  -0.020912
    Br  Br34  0.970610  0.643690  0.019110  -0.024782
    Br  Br35  0.970270  0.869750  0.018030  -0.032651
    Br  Br36  0.143380  0.870200  0.016650  -0.004467
    Br  Br37  0.631520  0.984380  0.353560  0.004299
    Br  Br38  0.630970  0.985130  0.529700  -0.003991
    Br  Br39  0.852900  0.984960  0.529380  -0.019481
    Br  Br40  0.026250  0.984090  0.355840  -0.031533
    Br  Br41  0.026950  0.983130  0.130620  -0.023199
    Br  Br42  0.854140  0.983260  0.130790  -0.007577
    Br  Br43  0.366110  0.015720  0.471500  -0.003686
    Br  Br44  0.365480  0.016870  0.647470  0.004363
    Br  Br45  0.142680  0.018620  0.870070  -0.002487
    Br  Br46  0.969820  0.018860  0.870260  -0.035419
    Br  Br47  0.970620  0.017390  0.645240  -0.023781
    Br  Br48  0.144100  0.016030  0.471840  -0.027327
    C   C1    0.514860  0.563560  0.787630  0.201638
    C   C2    0.514830  0.540120  0.834820  -0.406388
    C   C3    0.514720  0.563030  0.858960  0.800959
    C   C4    0.514630  0.610020  0.834930  -0.454148
    C   C5    0.514660  0.633790  0.787740  0.248402
    C   C6    0.514780  0.610890  0.763250  -0.261295
    C   C7    0.514530  0.787680  0.634030  0.250180
    C   C8    0.514440  0.834880  0.610330  -0.455691
    C   C9    0.514470  0.858970  0.563360  0.803167
    C   C10   0.514590  0.834880  0.540410  -0.409697
    C   C11   0.514680  0.787670  0.563780  0.204698
    C   C12   0.514650  0.763220  0.611100  -0.264584
    C   C13   0.483170  0.287570  0.364710  0.409779
    C   C14   0.483380  0.313170  0.390330  -0.569707
    C   C15   0.483550  0.364490  0.364600  0.380159
    C   C16   0.483490  0.390200  0.313240  -0.569844
    C   C17   0.483270  0.364590  0.287630  0.409949
    C   C18   0.483110  0.313280  0.313360  -0.543978
    C   C19   0.484020  0.390060  0.460380  -0.373019
    C   C20   0.483820  0.366720  0.436690  0.197420
    C   C21   0.483760  0.389630  0.389750  -0.244229
    C   C22   0.483920  0.436530  0.366810  0.196234
    C   C23   0.484390  0.462300  0.462460  0.020677
    C   C24   0.484120  0.460220  0.390170  -0.372330
    C   C25   0.484170  0.437320  0.437460  0.720272
    C   C26   0.483050  0.213040  0.437110  0.206085
    C   C27   0.482900  0.165920  0.460580  -0.407831
    C   C28   0.482700  0.141920  0.437760  0.795271
    C   C29   0.482650  0.166010  0.390810  -0.451501
    C   C30   0.482800  0.213140  0.367010  0.251371
    C   C31   0.483000  0.237500  0.389820  -0.269996
    C   C32   0.483020  0.366880  0.213150  0.248968
    C   C33   0.482970  0.390660  0.165990  -0.449998
    C   C34   0.483110  0.437570  0.141870  0.794843
    C   C35   0.483310  0.460380  0.165880  -0.404331
    C   C36   0.483370  0.436940  0.213040  0.202799
    C   C37   0.483220  0.389680  0.237520  -0.268061
    C   C38   0.863760  0.363940  0.286700  0.423157
    C   C39   0.812430  0.389650  0.312430  -0.560802
    C   C40   0.786840  0.364010  0.363870  0.403329
    C   C41   0.812570  0.312670  0.389570  -0.558715
    C   C42   0.863900  0.286960  0.363830  0.417752
    C   C43   0.889500  0.312600  0.312400  -0.561124
    C   C44   0.665190  0.459950  0.389690  -0.412542
    C   C45   0.408240  0.538000  0.016130  0.003957
    C   C46   0.712330  0.436170  0.366230  0.233758
    C   C47   0.736450  0.389240  0.389130  -0.275489
    C   C48   0.712460  0.366400  0.436140  0.233071
    C   C49   0.665320  0.389840  0.459940  -0.411535
    C   C50   0.640840  0.437120  0.437060  0.737185
    C   C51   0.865820  0.436240  0.212070  0.260941
    C   C52   0.889490  0.459610  0.164830  -0.436457
    C   C53   0.936410  0.436710  0.140720  0.775216
    C   C54   0.959340  0.389780  0.164800  -0.432234
    C   C55   0.936000  0.366070  0.212040  0.257284
    C   C56   0.888740  0.388960  0.236520  -0.319050
    C   C57   0.936280  0.212420  0.365990  0.246894
    C   C58   0.959750  0.165270  0.389770  -0.433640
    C   C59   0.936950  0.141240  0.436780  0.791112
    C   C60   0.890020  0.165330  0.459710  -0.435726
    C   C61   0.866220  0.212480  0.436280  0.251228
    C   C62   0.889010  0.236870  0.388910  -0.307190
    C   C63   0.135940  0.712880  0.635900  0.421128
    C   C64   0.187290  0.687200  0.610200  -0.557499
    C   C65   0.213060  0.635900  0.635960  0.402888
    C   C66   0.187470  0.610290  0.687410  -0.557446
    C   C67   0.136110  0.635980  0.713100  0.410629
    C   C68   0.110340  0.687270  0.687340  -0.560961
    C   C69   0.334630  0.610080  0.539950  -0.412296
    C   C70   0.287470  0.633500  0.563710  0.236200
    C   C71   0.263480  0.610690  0.610740  -0.279168
    C   C72   0.287620  0.563790  0.633690  0.236046
    C   C73   0.334790  0.540040  0.610260  -0.412551
    C   C74   0.359140  0.562840  0.562880  0.736499
    C   C75   0.409250  0.537780  0.537820  0.021077
    C   C76   0.514680  0.537800  0.909400  -0.033584
    C   C77   0.133590  0.787300  0.563390  0.248994
    C   C78   0.109750  0.834410  0.539900  -0.430526
    C   C79   0.062810  0.858480  0.562790  0.784202
    C   C80   0.040010  0.834470  0.609820  -0.433072
    C   C81   0.063500  0.787370  0.633640  0.249184
    C   C82   0.110800  0.762930  0.610760  -0.310188
    C   C83   0.063850  0.633860  0.787740  0.241437
    C   C84   0.040510  0.610170  0.834980  -0.400926
    C   C85   0.063470  0.563280  0.859120  0.699564
    C   C86   0.110420  0.540390  0.835040  -0.401866
    C   C87   0.134090  0.563750  0.787790  0.244253
    C   C88   0.111140  0.610980  0.763300  -0.293433
    C   C89   0.862520  0.287340  0.983780  0.414920
    C   C90   0.811240  0.313010  0.983980  -0.543586
    C   C91   0.785530  0.364460  0.983980  0.396285
    C   C92   0.811090  0.390240  0.983780  -0.568144
    C   C93   0.862360  0.364570  0.983590  0.394914
    C   C94   0.888080  0.313120  0.983580  -0.574245
    C   C95   0.664140  0.390100  0.984540  -0.446080
    C   C96   0.711230  0.366690  0.984360  0.237457
    C   C97   0.735190  0.389670  0.984180  -0.241728
    C   C98   0.711090  0.436700  0.984180  0.198710
    C   C99   0.664000  0.460440  0.984360  -0.407344
    C   C100  0.589650  0.462530  0.984740  0.002589
    C   C101  0.639690  0.437480  0.984550  0.786506
    C   C102  0.864840  0.212620  0.983960  0.263523
    C   C103  0.888620  0.165370  0.983950  -0.468065
    C   C104  0.935500  0.141310  0.983770  0.829582
    C   C105  0.958270  0.165470  0.983600  -0.418114
    C   C106  0.934820  0.212720  0.983600  0.213568
    C   C107  0.887610  0.237140  0.983780  -0.279648
    C   C108  0.934520  0.366860  0.983210  0.207853
    C   C109  0.957830  0.390710  0.983030  -0.388708
    C   C110  0.934920  0.437740  0.983030  0.788773
    C   C111  0.888050  0.460610  0.983210  -0.406893
    C   C112  0.864410  0.437100  0.983390  0.217749
    C   C113  0.887310  0.389720  0.983390  -0.279367
    C   C114  0.135360  0.635710  0.017840  0.389136
    C   C115  0.186660  0.610080  0.017550  -0.563758
    C   C116  0.212260  0.635910  0.017220  0.395994
    C   C117  0.186540  0.687370  0.017180  -0.544284
    C   C118  0.135240  0.713000  0.017470  0.412415
    C   C119  0.109650  0.687170  0.017800  -0.567221
    C   C120  0.333830  0.540000  0.016710  -0.400548
    C   C121  0.286710  0.563700  0.016970  0.190866
    C   C122  0.262620  0.610750  0.016940  -0.237564
    C   C123  0.286610  0.633770  0.016640  0.237194
    C   C124  0.333730  0.610400  0.016380  -0.443410
    C   C125  0.358180  0.563010  0.016410  0.780652
    C   C126  0.133280  0.563100  0.018200  0.224209
    C   C127  0.109610  0.539550  0.018500  -0.407414
    C   C128  0.062710  0.562380  0.018770  0.763028
    C   C129  0.039800  0.609430  0.018730  -0.400909
    C   C130  0.483060  0.462810  0.091460  -0.027074
    C   C131  0.063140  0.633320  0.018420  0.218504
    C   C132  0.110380  0.610500  0.018160  -0.288356
    C   C133  0.062910  0.787600  0.017690  0.203182
    C   C134  0.039470  0.834870  0.017650  -0.404586
    C   C135  0.062270  0.859080  0.017350  0.844103
    C   C136  0.109170  0.835050  0.017090  -0.472558
    C   C137  0.132950  0.787790  0.017130  0.256426
    C   C138  0.110150  0.763220  0.017430  -0.272725
    C   C139  0.861780  0.984250  0.364390  0.383307
    C   C140  0.810520  0.984400  0.390110  -0.562627
    C   C141  0.785020  0.984310  0.364460  0.392834
    C   C142  0.810760  0.984070  0.313100  -0.538269
    C   C143  0.862020  0.983920  0.287380  0.410322
    C   C144  0.887520  0.984010  0.313020  -0.567946
    C   C145  0.663500  0.984810  0.460460  -0.403179
    C   C146  0.710570  0.984670  0.436670  0.193934
    C   C147  0.734700  0.984450  0.389720  -0.238643
    C   C148  0.710790  0.984380  0.366870  0.236190
    C   C149  0.663720  0.984510  0.390320  -0.447870
    C   C150  0.639230  0.984730  0.437620  0.787618
    C   C151  0.863730  0.984550  0.436720  0.209016
    C   C152  0.407840  0.016100  0.538410  0.000200
    C   C153  0.887320  0.984640  0.460100  -0.383176
    C   C154  0.934170  0.984500  0.437180  0.705716
    C   C155  0.957120  0.984290  0.390230  -0.372227
    C   C156  0.933860  0.984200  0.366510  0.205879
    C   C157  0.886670  0.984340  0.389410  -0.266775
    C   C158  0.934340  0.983550  0.212790  0.211224
    C   C159  0.957820  0.983330  0.165620  -0.414744
    C   C160  0.935100  0.983240  0.141580  0.828173
    C   C161  0.888240  0.983380  0.165690  -0.467570
    C   C162  0.864430  0.983600  0.212860  0.257364
    C   C163  0.887140  0.983690  0.237260  -0.276987
    C   C164  0.134880  0.017610  0.713630  0.414764
    C   C165  0.186160  0.017380  0.687920  -0.541911
    C   C166  0.211940  0.017010  0.636600  0.396863
    C   C167  0.186430  0.016870  0.610980  -0.565222
    C   C168  0.135150  0.017110  0.636680  0.389294
    C   C169  0.109370  0.017480  0.688010  -0.571757
    C   C170  0.333290  0.016680  0.610760  -0.446715
    C   C171  0.286190  0.016890  0.634190  0.240433
    C   C172  0.262280  0.016780  0.611370  -0.241532
    C   C173  0.286440  0.016440  0.564450  0.195095
    C   C174  0.333540  0.016220  0.540680  -0.403498
    C   C175  0.357800  0.016330  0.563490  0.785504
    C   C176  0.132430  0.018100  0.788080  0.258131
    C   C177  0.108590  0.018440  0.835210  -0.481332
    C   C178  0.061710  0.018660  0.859300  0.863917
    C   C179  0.038990  0.018540  0.835290  -0.404939
    C   C180  0.062490  0.018200  0.788150  0.205222
    C   C181  0.109720  0.017970  0.763700  -0.274938
    C   C182  0.514370  0.909430  0.538200  -0.032489
    C   C183  0.063040  0.017200  0.634580  0.216992
    C   C184  0.039790  0.017070  0.610880  -0.392960
    C   C185  0.062760  0.016740  0.563960  0.737834
    C   C186  0.109640  0.016520  0.541060  -0.387563
    C   C187  0.133230  0.016640  0.564420  0.213176
    C   C188  0.110260  0.016980  0.611680  -0.279230
    C   C189  0.589220  0.984880  0.462720  -0.000734
    C   C190  0.482540  0.091540  0.463020  -0.024855
    C   C191  0.961990  0.461260  0.983700  -0.062503
    C   C192  0.961540  0.461880  0.090220  -0.018864
    C   C193  0.036430  0.537280  0.014580  -0.065616
    C   C194  0.036800  0.536570  0.908080  0.060019
    C   C195  0.962700  0.983910  0.462180  0.012753
    C   C196  0.515470  0.537760  0.537600  0.022783
    C   C197  0.962210  0.090840  0.462010  -0.041772
    C   C198  0.037110  0.015760  0.537430  -0.015531
    C   C199  0.037510  0.908840  0.537510  -0.028457
    C   C200  0.961050  0.984320  0.090500  -0.068699
    C   C201  0.960740  0.090800  0.983770  -0.063409
    C   C202  0.036080  0.015070  0.908490  -0.086717
    C   C203  0.036310  0.908610  0.015380  -0.064451
    C   C204  0.514810  0.635970  0.713110  0.400470
    C   C205  0.514940  0.610260  0.687360  -0.562164
    C   C206  0.514970  0.635960  0.635980  0.370449
    C   C207  0.514870  0.687360  0.610350  -0.560969
    C   C208  0.514740  0.713070  0.636100  0.401397
    C   C209  0.514710  0.687370  0.687490  -0.536484
    C   C210  0.590760  0.462200  0.462160  0.020840
    C   C211  0.515310  0.539960  0.610050  -0.366925
    C   C212  0.515190  0.563730  0.633530  0.191390
    C   C213  0.515100  0.610720  0.610700  -0.235087
    C   C214  0.515130  0.633620  0.563730  0.188681
    C   C215  0.515250  0.610180  0.539910  -0.365882
    C   C216  0.515340  0.562840  0.562730  0.712709
    H   H1    0.515070  0.667720  0.546880  -0.006058
    H   H2    0.514950  0.545360  0.771570  -0.025610
    H   H3    0.514590  0.668010  0.771760  -0.043153
    H   H4    0.514500  0.771650  0.668240  -0.042922
    H   H5    0.514760  0.771630  0.545560  -0.026116
    H   H6    0.483420  0.294980  0.426680  0.349398
    H   H7    0.482950  0.295150  0.295230  0.355843
    H   H8    0.483610  0.426520  0.295030  0.349798
    H   H9    0.483710  0.332680  0.453610  -0.008117
    H   H10   0.483880  0.453440  0.332750  -0.008021
    H   H11   0.483200  0.229010  0.455250  -0.025901
    H   H12   0.482760  0.229180  0.332830  -0.043763
    H   H13   0.482910  0.332720  0.229210  -0.043340
    H   H14   0.483510  0.455060  0.229020  -0.025417
    H   H15   0.794220  0.425980  0.294240  0.349490
    H   H16   0.925830  0.294410  0.294190  0.345418
    H   H17   0.794460  0.294520  0.425970  0.348888
    H   H18   0.729460  0.453030  0.332110  -0.031394
    H   H19   0.729680  0.332340  0.453040  -0.031375
    H   H20   0.831640  0.454430  0.228120  -0.031937
    H   H21   0.954210  0.331880  0.228070  -0.029575
    H   H22   0.954400  0.228410  0.331750  -0.026210
    H   H23   0.832050  0.228510  0.454490  -0.029366
    H   H24   0.205410  0.705320  0.573790  0.348075
    H   H25   0.073990  0.705450  0.705530  0.347564
    H   H26   0.205700  0.573980  0.705640  0.351232
    H   H27   0.270230  0.667530  0.546770  -0.032291
    H   H28   0.270500  0.546950  0.667810  -0.032598
    H   H29   0.167770  0.771270  0.545200  -0.029294
    H   H30   0.045380  0.771390  0.667890  -0.027295
    H   H31   0.045620  0.668010  0.771670  -0.031742
    H   H32   0.168280  0.545570  0.771770  -0.035083
    H   H33   0.793150  0.294770  0.984120  0.359255
    H   H34   0.924370  0.294950  0.983440  0.350236
    H   H35   0.792890  0.426660  0.983790  0.346574
    H   H36   0.728440  0.332570  0.984350  -0.045554
    H   H37   0.728200  0.453650  0.984050  -0.028767
    H   H38   0.830710  0.228630  0.984090  -0.049953
    H   H39   0.952920  0.228800  0.983460  -0.028097
    H   H40   0.952720  0.332610  0.983200  -0.005494
    H   H41   0.830270  0.455280  0.983520  -0.003541
    H   H42   0.204860  0.573650  0.017580  0.343373
    H   H43   0.073340  0.705310  0.018000  0.345942
    H   H44   0.204660  0.705660  0.016950  0.357642
    H   H45   0.269590  0.546720  0.017190  -0.026779
    H   H46   0.269410  0.667910  0.016610  -0.047313
    H   H47   0.167440  0.544960  0.018010  -0.000580
    H   H48   0.044950  0.667580  0.018400  -0.000114
    H   H49   0.044790  0.771490  0.017910  -0.029474
    H   H50   0.167100  0.771810  0.016930  -0.043348
    H   H51   0.792300  0.984570  0.426470  0.344851
    H   H52   0.923800  0.983910  0.294820  0.347944
    H   H53   0.792710  0.984010  0.294950  0.353657
    H   H54   0.727640  0.984730  0.453530  -0.027549
    H   H55   0.728020  0.984220  0.332790  -0.043836
    H   H56   0.829610  0.984660  0.454920  -0.002122
    H   H57   0.952080  0.984040  0.332310  -0.005654
    H   H58   0.952400  0.983600  0.228790  -0.027689
    H   H59   0.830310  0.983700  0.228910  -0.042970
    H   H60   0.204210  0.017470  0.706060  0.353793
    H   H61   0.073070  0.017650  0.706200  0.350362
    H   H62   0.204680  0.016610  0.574660  0.347712
    H   H63   0.268940  0.017140  0.668240  -0.047004
    H   H64   0.269370  0.016350  0.547610  -0.028966
    H   H65   0.166570  0.017950  0.772040  -0.040043
    H   H66   0.044440  0.018120  0.772170  -0.033228
    H   H67   0.044800  0.017440  0.668750  -0.002971
    H   H68   0.167370  0.016480  0.546230  -0.004095
    H   H69   0.515010  0.573880  0.705500  0.348220
    H   H70   0.514620  0.705570  0.705710  0.353744
    H   H71   0.514900  0.705550  0.573980  0.347458
    H   H72   0.515170  0.546840  0.667620  -0.007276
    O   O1    0.432950  0.488830  0.567350  -0.412829
    O   O2    0.432870  0.567160  0.488640  -0.414104
    O   O3    0.488510  0.432880  0.511570  -0.454543
    O   O4    0.488570  0.511250  0.432900  -0.451606
    O   O5    0.431780  0.567600  0.011760  -0.423930
    O   O6    0.432000  0.488790  0.012110  -0.436904
    O   O7    0.510700  0.488630  0.933200  -0.392286
    O   O8    0.510520  0.567330  0.933030  -0.377986
    O   O9    0.566130  0.432980  0.988990  -0.423834
    O   O10   0.565890  0.511710  0.988810  -0.437322
    O   O11   0.487110  0.511950  0.067650  -0.394065
    O   O12   0.487460  0.433180  0.067780  -0.380685
    O   O13   0.431580  0.011690  0.489430  -0.435687
    O   O14   0.431400  0.012180  0.567790  -0.423346
    O   O15   0.510170  0.933300  0.567650  -0.381122
    O   O16   0.510380  0.933000  0.489170  -0.388732
    O   O17   0.565510  0.989170  0.511760  -0.436091
    O   O18   0.565660  0.988850  0.433320  -0.423740
    O   O19   0.486810  0.067650  0.433540  -0.383678
    O   O20   0.511410  0.567160  0.488460  -0.454916
    O   O21   0.486770  0.067930  0.511950  -0.391324
    O   O22   0.010770  0.431760  0.988060  -0.395418
    O   O23   0.932480  0.510500  0.987610  -0.436212
    O   O24   0.932130  0.510980  0.066370  -0.377773
    O   O25   0.010540  0.432350  0.066620  -0.379626
    O   O26   0.987590  0.566730  0.010360  -0.400279
    O   O27   0.511520  0.488710  0.567060  -0.452563
    O   O28   0.065960  0.488050  0.010630  -0.412029
    O   O29   0.066230  0.487500  0.931940  -0.405781
    O   O30   0.987890  0.566210  0.931720  -0.398499
    O   O31   0.933050  0.988440  0.511120  -0.449426
    O   O32   0.011670  0.987890  0.432720  -0.409578
    O   O33   0.011320  0.066950  0.432590  -0.380165
    O   O34   0.932820  0.067310  0.511100  -0.370000
    O   O35   0.066700  0.011350  0.488430  -0.415112
    O   O36   0.988160  0.011730  0.566900  -0.427617
    O   O37   0.988430  0.932740  0.566960  -0.377119
    O   O38   0.067000  0.932410  0.488520  -0.382927
    O   O39   0.567080  0.511200  0.432680  -0.413272
    O   O40   0.009800  0.988730  0.066570  -0.375582
    O   O41   0.931740  0.988140  0.066980  -0.382834
    O   O42   0.931490  0.066860  0.988070  -0.376960
    O   O43   0.009670  0.067260  0.987610  -0.388414
    O   O44   0.987280  0.010790  0.932410  -0.351291
    O   O45   0.065410  0.011210  0.932020  -0.402033
    O   O46   0.567130  0.432800  0.511320  -0.414210
    O   O47   0.065590  0.932560  0.011010  -0.401454
    O   O48   0.987480  0.932180  0.011290  -0.364312
    Zn  Zn1   0.499980  0.547830  0.452060  1.227891
    Zn  Zn2   0.498800  0.548270  0.000340  1.184595
    Zn  Zn3   0.499100  0.452270  0.000490  1.184433
    Zn  Zn4   0.500040  0.452160  0.547940  1.228202
    Zn  Zn5   0.498630  0.000320  0.452720  1.183889
    Zn  Zn6   0.498450  0.000630  0.548430  1.183965
    Zn  Zn7   0.047010  0.451300  0.999300  1.208660
    Zn  Zn8   0.951390  0.547220  0.999030  1.210657
    Zn  Zn9   0.952010  0.000040  0.547670  1.211072
    Zn  Zn10  0.047780  0.999660  0.451920  1.206134
    Zn  Zn11  0.046230  0.999930  0.999260  1.170593
    Zn  Zn12  0.950890  0.999500  0.999730  1.154804
