data_DB1-Cu2O8-AZO_A-irmof20_A_No262_repeat
_audit_creation_date              2024-02-20
_audit_creation_method            'Materials Studio'
_symmetry_space_group_name_H-M    'P1'
_symmetry_Int_Tables_number       1
_symmetry_cell_setting            triclinic
loop_
_symmetry_equiv_pos_as_xyz
  x,y,z
_cell_length_a                    12.5011
_cell_length_b                    34.4976
_cell_length_c                    10.0000
_cell_angle_alpha                 90.0000
_cell_angle_beta                  90.0000
_cell_angle_gamma                 90.0965
loop_
_atom_site_label
_atom_site_type_symbol
_atom_site_fract_x
_atom_site_fract_y
_atom_site_fract_z
_atom_site_U_iso_or_equiv
_atom_site_adp_type
_atom_site_occupancy
Cu1    Cu    0.50000   0.50000   0.62726   0.00000  Uiso   1.00
Cu2    Cu    0.50001   0.50000   0.37274   0.00000  Uiso   1.00
O1     O     0.63909   0.49998   0.61869   0.00000  Uiso   1.00
O2     O     0.36063   0.49991   0.61867   0.00000  Uiso   1.00
O3     O     0.49970   0.44949   0.61868   0.00000  Uiso   1.00
O4     O     0.50002   0.55040   0.61868   0.00000  Uiso   1.00
O5     O     0.50028   0.55051   0.38132   0.00000  Uiso   1.00
O6     O     0.50003   0.44961   0.38132   0.00000  Uiso   1.00
O7     O     0.36081   0.49997   0.38131   0.00000  Uiso   1.00
O8     O     0.63938   0.50010   0.38133   0.00000  Uiso   1.00
C1     C     0.70063   0.50003   0.50001   0.00000  Uiso   1.00
C2     C     0.29939   0.49997   0.49999   0.00000  Uiso   1.00
C3     C     0.49987   0.42730   0.50000   0.00000  Uiso   1.00
C4     C     0.50015   0.57270   0.50000   0.00000  Uiso   1.00
Cu3    Cu    0.50043   0.00000   0.27502   0.00000  Uiso   1.00
Cu4    Cu    0.49989   0.00000   0.52953   0.00000  Uiso   1.00
O9     O     0.63950   0.00020   0.28405   0.00000  Uiso   1.00
O10    O     0.36104   0.99992   0.28314   0.00000  Uiso   1.00
O11    O     0.50012   0.05051   0.28359   0.00000  Uiso   1.00
O12    O     0.50042   0.94961   0.28359   0.00000  Uiso   1.00
O13    O     0.50017   0.94949   0.52095   0.00000  Uiso   1.00
O14    O     0.49994   0.05040   0.52096   0.00000  Uiso   1.00
O15    O     0.36071   0.99986   0.52049   0.00000  Uiso   1.00
O16    O     0.63928   0.00007   0.52141   0.00000  Uiso   1.00
C5     C     0.70078   0.00021   0.40294   0.00000  Uiso   1.00
C6     C     0.29954   0.99979   0.40161   0.00000  Uiso   1.00
C7     C     0.50003   0.07270   0.40228   0.00000  Uiso   1.00
C8     C     0.50029   0.92730   0.40228   0.00000  Uiso   1.00
C9     C     0.50029   0.88404   0.40227   0.00000  Uiso   1.00
C10    C     0.50015   0.86313   0.52342   0.00000  Uiso   1.00
C11    C     0.50015   0.82250   0.52310   0.00000  Uiso   1.00
C12    C     0.50028   0.80194   0.40182   0.00000  Uiso   1.00
C13    C     0.50041   0.82255   0.28122   0.00000  Uiso   1.00
C14    C     0.50041   0.86317   0.28108   0.00000  Uiso   1.00
N1     N     0.50028   0.76032   0.39824   0.00000  Uiso   1.00
N2     N     0.50016   0.73968   0.50403   0.00000  Uiso   1.00
C15    C     0.50003   0.67745   0.62106   0.00000  Uiso   1.00
C16    C     0.50016   0.69806   0.50046   0.00000  Uiso   1.00
C17    C     0.50029   0.67751   0.37917   0.00000  Uiso   1.00
C18    C     0.50029   0.63687   0.37885   0.00000  Uiso   1.00
C19    C     0.50015   0.61597   0.50000   0.00000  Uiso   1.00
C20    C     0.50003   0.63684   0.62120   0.00000  Uiso   1.00
H1     H     0.50005   0.87842   0.61799   0.00000  Uiso   1.00
H2     H     0.50005   0.80697   0.61703   0.00000  Uiso   1.00
H3     H     0.49993   0.69303   0.71497   0.00000  Uiso   1.00
H4     H     0.50039   0.69303   0.28525   0.00000  Uiso   1.00
C21    C     0.50003   0.11597   0.40227   0.00000  Uiso   1.00
C22    C     0.49986   0.13687   0.52342   0.00000  Uiso   1.00
C23    C     0.49986   0.17751   0.52310   0.00000  Uiso   1.00
C24    C     0.50002   0.19806   0.40182   0.00000  Uiso   1.00
C25    C     0.50019   0.17745   0.28122   0.00000  Uiso   1.00
C26    C     0.50020   0.13684   0.28108   0.00000  Uiso   1.00
N3     N     0.50003   0.23968   0.39824   0.00000  Uiso   1.00
N4     N     0.49988   0.26032   0.50403   0.00000  Uiso   1.00
C27    C     0.49971   0.32255   0.62105   0.00000  Uiso   1.00
C28    C     0.49988   0.30194   0.50046   0.00000  Uiso   1.00
C29    C     0.50005   0.32250   0.37917   0.00000  Uiso   1.00
C30    C     0.50004   0.36313   0.37885   0.00000  Uiso   1.00
C31    C     0.49987   0.38404   0.50000   0.00000  Uiso   1.00
C32    C     0.49971   0.36317   0.62120   0.00000  Uiso   1.00
H5     H     0.49973   0.12158   0.61799   0.00000  Uiso   1.00
H6     H     0.49973   0.19303   0.61703   0.00000  Uiso   1.00
H7     H     0.49958   0.30697   0.71497   0.00000  Uiso   1.00
H8     H     0.50018   0.30697   0.28525   0.00000  Uiso   1.00
C33    C     0.88935   0.49996   0.60607   0.00000  Uiso   1.00
S1     S     0.88440   0.50010   0.34692   0.00000  Uiso   1.00
C34    C     0.11066   0.50005   0.39392   0.00000  Uiso   1.00
S2     S     0.11562   0.49991   0.65307   0.00000  Uiso   1.00
C35    C     0.81999   0.50002   0.50000   0.00000  Uiso   1.00
C36    C     0.18002   0.49998   0.49999   0.00000  Uiso   1.00
C37    C     0.00001   0.50004   0.43165   0.00000  Uiso   1.00
C38    C     0.00001   0.49997   0.56834   0.00000  Uiso   1.00
C39    C     0.88973   0.00051   0.29751   0.00000  Uiso   1.00
S3     S     0.88422   0.00037   0.55665   0.00000  Uiso   1.00
C40    C     0.11058   0.00069   0.51041   0.00000  Uiso   1.00
S4     S     0.11610   0.00083   0.25128   0.00000  Uiso   1.00
C41    C     0.82015   0.00037   0.40335   0.00000  Uiso   1.00
C42    C     0.18017   0.00083   0.40457   0.00000  Uiso   1.00
C43    C     0.00001   0.00056   0.47231   0.00000  Uiso   1.00
C44    C     0.00031   0.00064   0.33561   0.00000  Uiso   1.00
C45    C     0.50056   0.88463   0.14854   0.00000  Uiso   1.00
O17    O     0.54740   0.86877   0.04279   0.00000  Uiso   1.00
O18    O     0.45977   0.91702   0.14055   0.00000  Uiso   1.00
H9     H     0.56430   0.84075   0.06497   0.00000  Uiso   1.00
C46    C     0.50055   0.80070   0.14944   0.00000  Uiso   1.00
O19    O     0.54729   0.76624   0.14193   0.00000  Uiso   1.00
O20    O     0.45986   0.81541   0.04947   0.00000  Uiso   1.00
H10    H     0.56410   0.75731   0.23624   0.00000  Uiso   1.00
C47    C     0.49988   0.61537   0.75373   0.00000  Uiso   1.00
O21    O     0.54650   0.63129   0.85965   0.00000  Uiso   1.00
O22    O     0.45907   0.58293   0.76159   0.00000  Uiso   1.00
H11    H     0.56345   0.65933   0.83752   0.00000  Uiso   1.00
C48    C     0.50043   0.61544   0.24626   0.00000  Uiso   1.00
O23    O     0.45381   0.63132   0.14039   0.00000  Uiso   1.00
O24    O     0.54123   0.58305   0.23832   0.00000  Uiso   1.00
H12    H     0.43687   0.65933   0.16259   0.00000  Uiso   1.00
C49    C     0.50038   0.11537   0.14854   0.00000  Uiso   1.00
O25    O     0.45380   0.13123   0.04261   0.00000  Uiso   1.00
O26    O     0.54120   0.08298   0.14070   0.00000  Uiso   1.00
H13    H     0.43685   0.15925   0.06473   0.00000  Uiso   1.00
C50    C     0.50037   0.19931   0.14944   0.00000  Uiso   1.00
O27    O     0.45365   0.23376   0.14175   0.00000  Uiso   1.00
O28    O     0.54132   0.18460   0.04963   0.00000  Uiso   1.00
H14    H     0.43660   0.24269   0.23600   0.00000  Uiso   1.00
C51    C     0.49952   0.38463   0.75373   0.00000  Uiso   1.00
O29    O     0.45264   0.36872   0.85947   0.00000  Uiso   1.00
O30    O     0.54031   0.41707   0.76175   0.00000  Uiso   1.00
H15    H     0.43576   0.34067   0.83727   0.00000  Uiso   1.00
C52    C     0.50022   0.38457   0.24626   0.00000  Uiso   1.00
O31    O     0.54710   0.36869   0.14057   0.00000  Uiso   1.00
O32    O     0.45943   0.41695   0.23817   0.00000  Uiso   1.00
H16    H     0.56399   0.34067   0.16283   0.00000  Uiso   1.00
O33    O     0.85810   0.49989   0.72985   0.00000  Uiso   1.00
Li1    Li    0.92545   0.49981   0.87880   0.00000  Uiso   1.00
O34    O     0.14192   0.50011   0.27014   0.00000  Uiso   1.00
Li2    Li    0.07457   0.50020   0.12120   0.00000  Uiso   1.00
O35    O     0.85874   0.00054   0.17363   0.00000  Uiso   1.00
Li3    Li    0.92642   0.00071   0.02491   0.00000  Uiso   1.00
O36    O     0.14157   0.00066   0.63429   0.00000  Uiso   1.00
Li4    Li    0.07390   0.00049   0.78301   0.00000  Uiso   1.00
