# Generated by REPEAT Assigner based on pymatgen
data_DB1-Al2O6-ADC_B-BDC_B_No605
_audit_creation_date              2022-05-24
_audit_creation_method            REPEAT_Assigner
_cell_length_a                    14.545400
_cell_length_b                    20.732600
_cell_length_c                    6.607200
_cell_angle_alpha                 90.000000
_cell_angle_beta                  90.000000
_cell_angle_gamma                 45.447000
_cell_volume                      1419.854353
_symmetry_space_group_name_H-M    P1
_symmetry_Int_Tables_number       1
loop_
    _symmetry_equiv_pos_site_id
    _symmetry_equiv_pos_as_xyz
    1  x,y,z
loop_
    _atom_site_type_symbol
    _atom_site_label
    _atom_site_fract_x
    _atom_site_fract_y
    _atom_site_fract_z
    _atom_type_partial_charge
    Al  Al1  0.500000  0.500000  0.000000  0.957165
    Al  Al2  0.500000  0.500000  0.500000  0.930929
    O   O1   0.667020  0.417560  0.076290  -0.492595
    O   O2   0.502140  0.582440  0.423710  -0.436422
    O   O3   0.332980  0.582440  0.576290  -0.403339
    O   O4   0.497860  0.417560  0.923710  -0.421747
    O   O5   0.332980  0.582440  0.923710  -0.492438
    O   O6   0.497860  0.417560  0.576290  -0.500818
    O   O7   0.667020  0.417560  0.423710  -0.427651
    O   O8   0.502140  0.582440  0.076290  -0.471912
    O   O9   0.540080  0.500000  0.750000  -0.395395
    O   O10  0.459920  0.500000  0.250000  -0.394357
    C   C1   0.725860  0.387950  0.250000  0.609399
    C   C2   0.501760  0.612050  0.250000  0.600419
    C   C3   0.274140  0.612050  0.750000  0.589194
    C   C4   0.498240  0.387950  0.750000  0.610816
    H   H1   0.606450  0.500000  0.750000  0.292030
    H   H2   0.393550  0.500000  0.250000  0.290794
    Al  Al3  0.500000  0.000000  0.000000  2.217013
    Al  Al4  0.500000  0.000000  0.500000  2.239181
    O   O11  0.332980  0.082440  0.076290  -0.727551
    O   O12  0.497860  0.917560  0.423710  -0.742115
    O   O13  0.667020  0.917560  0.576290  -0.747507
    O   O14  0.502140  0.082440  0.923710  -0.745217
    O   O15  0.667020  0.917560  0.923710  -0.727137
    O   O16  0.502140  0.082440  0.576290  -0.732457
    O   O17  0.332980  0.082440  0.423710  -0.747791
    O   O18  0.497860  0.917560  0.076290  -0.735222
    O   O19  0.459920  0.000000  0.750000  -1.228313
    O   O20  0.540080  0.000000  0.250000  -1.228351
    C   C5   0.274140  0.112050  0.250000  0.799253
    C   C6   0.498240  0.887950  0.250000  0.802667
    C   C7   0.725860  0.887950  0.750000  0.798463
    C   C8   0.501760  0.112050  0.750000  0.803016
    H   H3   0.393550  0.000000  0.750000  0.431816
    H   H4   0.606450  0.000000  0.250000  0.431810
    C   C9   0.500870  0.682020  0.250000  -0.202327
    C   C10  0.499130  0.817980  0.250000  -0.067891
    C   C11  0.500430  0.716240  0.431530  0.364803
    C   C12  0.499570  0.783760  0.068470  -0.120743
    C   C13  0.499570  0.783760  0.431530  -0.235889
    C   C14  0.500430  0.716240  0.068470  -0.094877
    H   H5   0.499270  0.807050  0.942640  0.133847
    H   H6   0.499270  0.807050  0.557370  0.191895
    H   H7   0.500730  0.692950  0.942640  0.168853
    C   C15  0.499130  0.317980  0.750000  -0.209773
    C   C16  0.500870  0.182020  0.750000  -0.067779
    C   C17  0.499570  0.283760  0.931530  0.368832
    C   C18  0.500430  0.216240  0.568470  -0.121806
    C   C19  0.500430  0.216240  0.931530  -0.236546
    C   C20  0.499570  0.283760  0.568470  -0.091649
    H   H8   0.500730  0.192950  0.442630  0.132390
    H   H9   0.500730  0.192950  0.057370  0.193825
    H   H10  0.499270  0.307050  0.442630  0.170485
    C   C21  0.135100  0.682020  0.750000  -0.196683
    C   C22  0.864900  0.817980  0.750000  -0.066582
    C   C23  0.067080  0.716240  0.568470  0.361524
    C   C24  0.932910  0.783760  0.931530  -0.121041
    C   C25  0.932910  0.783760  0.568470  -0.233364
    C   C26  0.067080  0.716240  0.931530  -0.098486
    H   H11  0.886620  0.807050  0.057370  0.131860
    H   H12  0.886620  0.807050  0.442630  0.193331
    H   H13  0.113380  0.692950  0.057370  0.175457
    C   C27  0.864900  0.317980  0.250000  -0.213375
    C   C28  0.135100  0.182020  0.250000  -0.065660
    C   C29  0.932910  0.283760  0.431530  0.371354
    C   C30  0.067080  0.216240  0.068470  -0.124308
    C   C31  0.067080  0.216240  0.431530  -0.237103
    C   C32  0.932910  0.283760  0.068470  -0.087136
    H   H14  0.113380  0.192950  0.942640  0.132784
    H   H15  0.113380  0.192950  0.557370  0.194026
    H   H16  0.886620  0.307050  0.942640  0.169537
    O   O21  0.500900  0.679600  0.629460  -0.576436
    H   H17  0.501580  0.626640  0.598760  0.284828
    O   O22  0.499100  0.320400  0.129460  -0.584514
    H   H18  0.498420  0.373360  0.098760  0.294911
    O   O23  0.139900  0.679600  0.370540  -0.581716
    H   H19  0.245150  0.626640  0.401240  0.285669
    O   O24  0.860100  0.320400  0.629460  -0.587500
    H   H20  0.754850  0.373360  0.598760  0.297341
