# Generated by REPEAT Assigner based on pymatgen
data_DB1-Zn2O8N2-DPAC_A-irmof7_A_No429
_audit_creation_date              2022-05-24
_audit_creation_method            REPEAT_Assigner
_cell_length_a                    28.316400
_cell_length_b                    17.572400
_cell_length_c                    16.737700
_cell_angle_alpha                 90.040700
_cell_angle_beta                  89.872700
_cell_angle_gamma                 89.747900
_cell_volume                      8328.360393
_symmetry_space_group_name_H-M    P1
_symmetry_Int_Tables_number       1
loop_
    _symmetry_equiv_pos_site_id
    _symmetry_equiv_pos_as_xyz
    1  x,y,z
loop_
    _atom_site_type_symbol
    _atom_site_label
    _atom_site_fract_x
    _atom_site_fract_y
    _atom_site_fract_z
    _atom_type_partial_charge
    O   O1   0.500340  0.390250  0.581110  -0.595335
    O   O2   0.500110  0.390270  0.418720  -0.582972
    C   C1   0.500170  0.351590  0.499930  0.483018
    Zn  Zn1  0.500000  0.500010  0.599040  1.033907
    O   O3   0.568090  0.499830  0.418640  -0.624236
    O   O4   0.568120  0.499920  0.581040  -0.600010
    C   C2   0.592110  0.499760  0.499870  0.555511
    O   O5   0.499750  0.609780  0.418880  -0.573368
    O   O6   0.499800  0.609750  0.581280  -0.563244
    C   C3   0.499790  0.648440  0.500080  0.436278
    Zn  Zn2  0.500010  0.500020  0.400960  1.041109
    O   O7   0.431910  0.500040  0.581360  -0.602978
    O   O8   0.431880  0.500230  0.418960  -0.601974
    C   C4   0.407890  0.500000  0.500140  0.492943
    O   O9   0.879290  0.388410  0.418780  -0.599572
    O   O10  0.879520  0.388620  0.581170  -0.588840
    C   C5   0.879540  0.349840  0.499960  0.481792
    Zn  Zn3  0.879430  0.498140  0.400880  1.044773
    O   O11  0.811330  0.498800  0.581280  -0.618895
    O   O12  0.811300  0.498710  0.418880  -0.611009
    C   C6   0.787310  0.498860  0.500060  0.563221
    O   O13  0.879470  0.608120  0.581060  -0.589750
    O   O14  0.879410  0.607910  0.418670  -0.570045
    C   C7   0.879350  0.646690  0.499880  0.448491
    Zn  Zn4  0.879420  0.498380  0.598960  1.045334
    O   O15  0.947520  0.497570  0.418560  -0.622734
    O   O16  0.947540  0.497950  0.580960  -0.594527
    C   C8   0.971540  0.497400  0.499790  0.506370
    N   N1   0.500010  0.500020  0.284450  -0.045312
    C   C9   0.530450  0.451190  0.240300  -0.015758
    C   C10  0.530530  0.451040  0.156170  -0.214732
    C   C11  0.500010  0.500000  0.113690  0.314084
    C   C12  0.469480  0.548980  0.156470  -0.296673
    C   C13  0.469570  0.548840  0.240600  0.080306
    C   C14  0.500010  0.500000  0.035720  -0.128030
    C   C15  0.500010  0.499990  0.964280  -0.094134
    C   C16  0.500000  0.499990  0.886310  0.290242
    C   C17  0.530520  0.451010  0.843530  -0.304104
    C   C18  0.530420  0.451160  0.759400  0.075150
    N   N2   0.500000  0.500000  0.715550  -0.059734
    C   C19  0.469570  0.548840  0.759710  -0.011653
    C   C20  0.469480  0.548980  0.843840  -0.198395
    H   H1   0.553010  0.415000  0.269390  0.181058
    H   H2   0.553060  0.414910  0.126540  0.181051
    H   H3   0.447010  0.585040  0.269910  0.148541
    H   H4   0.552980  0.414950  0.730090  0.156589
    H   H5   0.447010  0.585040  0.730620  0.168418
    H   H6   0.446970  0.585120  0.873470  0.172607
    C   C21  0.500120  0.270950  0.499950  0.032769
    C   C22  0.500140  0.229100  0.572450  -0.088212
    C   C23  0.500090  0.148970  0.572690  -0.209023
    C   C24  0.500030  0.108300  0.499990  0.252802
    C   C25  0.500010  0.148840  0.427270  -0.235244
    C   C26  0.500060  0.228970  0.427460  -0.035185
    C   C27  0.499990  0.034030  0.500010  -0.136900
    C   C28  0.499950  0.965990  0.500030  -0.040035
    C   C29  0.499910  0.891730  0.500040  0.150298
    C   C30  0.499910  0.851180  0.572750  -0.127344
    C   C31  0.499870  0.771040  0.572550  -0.100384
    C   C32  0.499830  0.729080  0.500060  0.079675
    C   C33  0.499820  0.770930  0.427560  -0.108052
    C   C34  0.499870  0.851060  0.427340  -0.168622
    H   H7   0.500180  0.256960  0.626190  0.131033
    H   H8   0.500100  0.120900  0.626340  0.176689
    H   H9   0.500050  0.256740  0.373720  0.118066
    H   H10  0.499880  0.743280  0.626300  0.116621
    H   H11  0.499790  0.743070  0.373830  0.134548
    H   H12  0.499860  0.879130  0.373680  0.170176
    C   C35  0.735770  0.499100  0.500000  -0.151884
    C   C36  0.711470  0.548510  0.551710  0.186227
    C   C37  0.711740  0.449920  0.448260  -0.062776
    C   C38  0.736880  0.596540  0.602260  -0.196593
    C   C39  0.714030  0.646510  0.654560  -0.005691
    H   H13  0.769680  0.595090  0.600930  0.185431
    C   C40  0.643650  0.499530  0.499920  -0.140822
    C   C41  0.667950  0.450120  0.448210  -0.063574
    C   C42  0.667690  0.548710  0.551660  0.174937
    C   C43  0.642020  0.596980  0.602160  -0.204649
    C   C44  0.664600  0.646740  0.654510  0.018339
    H   H14  0.609230  0.595830  0.600770  0.184360
    H   H15  0.651230  0.418050  0.414460  0.128548
    H   H16  0.728630  0.417690  0.414530  0.130430
    C   C45  0.021580  0.497710  0.499820  0.015694
    C   C46  0.047700  0.497930  0.427350  -0.072089
    C   C47  0.097430  0.498230  0.427170  -0.220002
    C   C48  0.122510  0.498320  0.499900  0.266348
    C   C49  0.097200  0.498100  0.572590  -0.257530
    C   C50  0.047470  0.497800  0.572340  -0.032503
    C   C51  0.168600  0.498590  0.499930  -0.119320
    C   C52  0.210830  0.498840  0.499960  -0.114788
    C   C53  0.256910  0.499120  0.500000  0.263763
    C   C54  0.282230  0.499360  0.427310  -0.264282
    C   C55  0.331960  0.499650  0.427570  -0.024520
    C   C56  0.357850  0.499710  0.500090  0.024261
    C   C57  0.331720  0.499470  0.572560  -0.085147
    C   C58  0.281990  0.499180  0.572730  -0.211708
    H   H17  0.030530  0.497870  0.373590  0.124677
    H   H18  0.114960  0.498380  0.373530  0.172666
    H   H19  0.030130  0.497650  0.626070  0.132667
    H   H20  0.349300  0.499820  0.373850  0.130178
    H   H21  0.348890  0.499510  0.626320  0.126781
    H   H22  0.264460  0.499010  0.626370  0.171533
    N   N3   0.879410  0.497360  0.715470  -0.053022
    C   C59  0.849070  0.448870  0.759610  0.017709
    C   C60  0.848980  0.448810  0.843740  -0.237495
    C   C61  0.879420  0.497540  0.886230  0.291316
    C   C62  0.909850  0.546180  0.843460  -0.273008
    C   C63  0.909760  0.545950  0.759330  0.050400
    C   C64  0.879420  0.497630  0.964200  -0.100795
    C   C65  0.879420  0.497700  0.035640  -0.116820
    C   C66  0.879420  0.497800  0.113610  0.305716
    C   C67  0.849000  0.449140  0.156380  -0.263839
    C   C68  0.849100  0.449390  0.240510  0.023461
    N   N4   0.879430  0.498000  0.284370  -0.037765
    C   C69  0.909760  0.546500  0.240230  0.016277
    C   C70  0.909850  0.546550  0.156090  -0.225200
    H   H23  0.826580  0.412850  0.730510  0.168353
    H   H24  0.826530  0.412920  0.873360  0.191354
    H   H25  0.932250  0.581910  0.730030  0.157622
    H   H26  0.826610  0.413420  0.269820  0.172422
    H   H27  0.932250  0.582540  0.269320  0.157522
    H   H28  0.932290  0.582450  0.126470  0.180248
    C   C71  0.877830  0.269210  0.500140  0.039278
    C   C72  0.877890  0.227280  0.427630  -0.078629
    C   C73  0.878090  0.147140  0.427370  -0.217126
    C   C74  0.878230  0.106560  0.500060  0.243043
    C   C75  0.878170  0.147180  0.572790  -0.235232
    C   C76  0.877970  0.227320  0.572620  -0.046572
    C   C77  0.878410  0.032290  0.500030  -0.090298
    C   C78  0.878580  0.964250  0.499990  -0.121925
    C   C79  0.878760  0.889980  0.499970  0.256780
    C   C80  0.878840  0.849350  0.427240  -0.224149
    C   C81  0.879030  0.769210  0.427430  -0.061643
    C   C82  0.879160  0.727330  0.499910  0.057182
    C   C83  0.879080  0.769260  0.572420  -0.089390
    C   C84  0.878890  0.849400  0.572660  -0.241511
    H   H29  0.877800  0.255080  0.373900  0.124775
    H   H30  0.878130  0.119010  0.373710  0.178609
    H   H31  0.877930  0.255140  0.626370  0.126590
    H   H32  0.879080  0.741380  0.373670  0.127405
    H   H33  0.879170  0.741470  0.626150  0.135770
    H   H34  0.878840  0.877540  0.626320  0.205419
    C   C85  0.436120  0.602490  0.112900  0.733118
    O   O17  0.419190  0.582830  0.041970  -0.463602
    O   O18  0.423950  0.662870  0.144350  -0.488336
    H   H35  0.437450  0.536590  0.022500  0.284669
    C   C86  0.563870  0.397470  0.887080  0.713480
    O   O19  0.551740  0.370110  0.958090  -0.451227
    O   O20  0.601390  0.378120  0.855560  -0.481951
    H   H36  0.522980  0.399340  0.977600  0.285473
    C   C87  0.499950  0.107120  0.347810  0.702661
    O   O21  0.479270  0.039680  0.342220  -0.467052
    O   O22  0.517940  0.136790  0.288540  -0.498623
    H   H37  0.471820  0.021340  0.398280  0.270026
    C   C88  0.499960  0.892890  0.652220  0.577740
    O   O23  0.479370  0.960680  0.658020  -0.468819
    O   O24  0.517980  0.862910  0.711310  -0.406379
    H   H38  0.471890  0.979150  0.602040  0.286876
    C   C89  0.122920  0.498190  0.652080  0.723740
    O   O25  0.164700  0.531680  0.657880  -0.477732
    O   O26  0.104440  0.469000  0.711180  -0.506982
    H   H39  0.176180  0.543830  0.601900  0.280214
    C   C90  0.256510  0.499300  0.347820  0.726029
    O   O27  0.214400  0.532310  0.342140  -0.477529
    O   O28  0.275290  0.470460  0.288600  -0.507896
    H   H40  0.202800  0.544210  0.398170  0.280944
    C   C91  0.943110  0.599440  0.887040  0.736238
    O   O29  0.960080  0.579700  0.957960  -0.469563
    O   O30  0.955160  0.659680  0.855600  -0.485353
    H   H41  0.941910  0.533660  0.977430  0.284640
    C   C92  0.815750  0.395860  0.112810  0.688323
    O   O31  0.827930  0.368310  0.041800  -0.444743
    O   O32  0.778270  0.376890  0.144340  -0.475053
    H   H42  0.856640  0.397250  0.022300  0.282158
    C   C93  0.878320  0.105550  0.652240  0.700747
    O   O33  0.899120  0.037930  0.657820  -0.469530
    O   O34  0.860260  0.135460  0.711520  -0.494107
    H   H43  0.906600  0.019460  0.601760  0.271823
    C   C94  0.878710  0.890970  0.347790  0.702226
    O   O35  0.899180  0.958560  0.342000  -0.478312
    O   O36  0.860750  0.861090  0.288690  -0.494699
    H   H44  0.906620  0.977030  0.397990  0.275075
    Br  Br1  0.751960  0.717790  0.729580  -0.066504
    Br  Br2  0.626290  0.718370  0.729460  -0.060452
