data_DB1-Zn2O8-ADC_A-irmof8_A_No579_repeat
_audit_creation_date              2024-02-20
_audit_creation_method            'Materials Studio'
_symmetry_space_group_name_H-M    'P1'
_symmetry_Int_Tables_number       1
_symmetry_cell_setting            triclinic
loop_
_symmetry_equiv_pos_as_xyz
  x,y,z
_cell_length_a                    13.1905
_cell_length_b                    37.7332
_cell_length_c                    10.0000
_cell_angle_alpha                 90.0000
_cell_angle_beta                  90.0000
_cell_angle_gamma                 110.2660
loop_
_atom_site_label
_atom_site_type_symbol
_atom_site_fract_x
_atom_site_fract_y
_atom_site_fract_z
_atom_site_U_iso_or_equiv
_atom_site_adp_type
_atom_site_occupancy
O1     O     0.35407   0.50035   0.63579   0.00000  Uiso   1.00
O2     O     0.35386   0.49998   0.36398   0.00000  Uiso   1.00
C1     C     0.30240   0.50011   0.49991   0.00000  Uiso   1.00
Zn1    Zn    0.50004   0.50011   0.66577   0.00000  Uiso   1.00
O3     O     0.55431   0.55438   0.36380   0.00000  Uiso   1.00
O4     O     0.55451   0.55458   0.63562   0.00000  Uiso   1.00
C2     C     0.57350   0.57369   0.49974   0.00000  Uiso   1.00
O5     O     0.64604   0.49973   0.36421   0.00000  Uiso   1.00
O6     O     0.64610   0.49995   0.63602   0.00000  Uiso   1.00
C3     C     0.69761   0.49986   0.50010   0.00000  Uiso   1.00
Zn2    Zn    0.49999   0.49989   0.33423   0.00000  Uiso   1.00
O7     O     0.44552   0.44562   0.63620   0.00000  Uiso   1.00
O8     O     0.44570   0.44542   0.36438   0.00000  Uiso   1.00
C4     C     0.42619   0.42632   0.50026   0.00000  Uiso   1.00
O9     O     0.85054   0.99980   0.27341   0.00000  Uiso   1.00
O10    O     0.85107   0.00017   0.54522   0.00000  Uiso   1.00
C5     C     0.79939   0.00008   0.40929   0.00000  Uiso   1.00
Zn3    Zn    0.99686   0.99991   0.24343   0.00000  Uiso   1.00
O11    O     0.94323   0.94564   0.54541   0.00000  Uiso   1.00
O12    O     0.94303   0.94543   0.27359   0.00000  Uiso   1.00
C6     C     0.92404   0.92633   0.40948   0.00000  Uiso   1.00
O13    O     0.14349   0.00017   0.54499   0.00000  Uiso   1.00
O14    O     0.14310   0.99993   0.27318   0.00000  Uiso   1.00
C7     C     0.19475   0.99998   0.40910   0.00000  Uiso   1.00
Zn4    Zn    0.99725   0.00013   0.57496   0.00000  Uiso   1.00
O15    O     0.05066   0.05440   0.27298   0.00000  Uiso   1.00
O16    O     0.05125   0.05460   0.54480   0.00000  Uiso   1.00
C8     C     0.06971   0.07370   0.40891   0.00000  Uiso   1.00
C9     C     0.88210   0.88414   0.40941   0.00000  Uiso   1.00
C10    C     0.86183   0.86375   0.53029   0.00000  Uiso   1.00
C11    C     0.82249   0.82417   0.53040   0.00000  Uiso   1.00
C12    C     0.80227   0.80383   0.40905   0.00000  Uiso   1.00
C13    C     0.82260   0.82428   0.28847   0.00000  Uiso   1.00
C14    C     0.86190   0.86381   0.28845   0.00000  Uiso   1.00
C15    C     0.76039   0.76170   0.40149   0.00000  Uiso   1.00
C16    C     0.73715   0.73832   0.50778   0.00000  Uiso   1.00
C17    C     0.67494   0.67574   0.62078   0.00000  Uiso   1.00
C18    C     0.69527   0.69619   0.50020   0.00000  Uiso   1.00
C19    C     0.67505   0.67584   0.37885   0.00000  Uiso   1.00
C20    C     0.63571   0.63627   0.37894   0.00000  Uiso   1.00
C21    C     0.61544   0.61588   0.49982   0.00000  Uiso   1.00
C22    C     0.63564   0.63620   0.62078   0.00000  Uiso   1.00
H1     H     0.87665   0.87866   0.62485   0.00000  Uiso   1.00
H2     H     0.80855   0.81014   0.62607   0.00000  Uiso   1.00
H3     H     0.80800   0.80959   0.19347   0.00000  Uiso   1.00
H4     H     0.68954   0.69042   0.71579   0.00000  Uiso   1.00
H5     H     0.68899   0.68988   0.28317   0.00000  Uiso   1.00
H6     H     0.62089   0.62136   0.28438   0.00000  Uiso   1.00
H7     H     0.74869   0.74993   0.30207   0.00000  Uiso   1.00
H8     H     0.74885   0.75009   0.60719   0.00000  Uiso   1.00
C23    C     0.11238   0.11589   0.40898   0.00000  Uiso   1.00
C24    C     0.13280   0.13625   0.52992   0.00000  Uiso   1.00
C25    C     0.17282   0.17583   0.53015   0.00000  Uiso   1.00
C26    C     0.19360   0.19620   0.40886   0.00000  Uiso   1.00
C27    C     0.17312   0.17578   0.28822   0.00000  Uiso   1.00
C28    C     0.13314   0.13625   0.28808   0.00000  Uiso   1.00
C29    C     0.23622   0.23833   0.40143   0.00000  Uiso   1.00
C30    C     0.25969   0.26169   0.50779   0.00000  Uiso   1.00
C31    C     0.32279   0.32424   0.62098   0.00000  Uiso   1.00
C32    C     0.30230   0.30382   0.50035   0.00000  Uiso   1.00
C33    C     0.32308   0.32419   0.37905   0.00000  Uiso   1.00
C34    C     0.36310   0.36376   0.37927   0.00000  Uiso   1.00
C35    C     0.38352   0.38413   0.50021   0.00000  Uiso   1.00
C36    C     0.36277   0.36378   0.62111   0.00000  Uiso   1.00
H9     H     0.11757   0.12132   0.62443   0.00000  Uiso   1.00
H10    H     0.18686   0.18984   0.62586   0.00000  Uiso   1.00
H11    H     0.18812   0.19049   0.19326   0.00000  Uiso   1.00
H12    H     0.30778   0.30954   0.71595   0.00000  Uiso   1.00
H13    H     0.30905   0.31018   0.28333   0.00000  Uiso   1.00
H14    H     0.37833   0.37869   0.28475   0.00000  Uiso   1.00
H15    H     0.24828   0.25013   0.30205   0.00000  Uiso   1.00
H16    H     0.24762   0.24990   0.60717   0.00000  Uiso   1.00
C37    C     0.12174   0.50012   0.59784   0.00000  Uiso   1.00
C38    C     0.15939   0.49994   0.36377   0.00000  Uiso   1.00
C39    C     0.05643   0.49987   0.32763   0.00000  Uiso   1.00
C40    C     0.98396   0.49992   0.43234   0.00000  Uiso   1.00
C41    C     0.87826   0.49985   0.40216   0.00000  Uiso   1.00
C42    C     0.84061   0.50003   0.63623   0.00000  Uiso   1.00
C43    C     0.94358   0.50011   0.67237   0.00000  Uiso   1.00
C44    C     0.01604   0.50005   0.56766   0.00000  Uiso   1.00
C45    C     0.19011   0.50006   0.49994   0.00000  Uiso   1.00
C46    C     0.80989   0.49991   0.50006   0.00000  Uiso   1.00
H17    H     0.21674   0.49989   0.28661   0.00000  Uiso   1.00
H18    H     0.78325   0.50007   0.71338   0.00000  Uiso   1.00
C47    C     0.61800   0.99935   0.31135   0.00000  Uiso   1.00
C48    C     0.65598   0.99950   0.54541   0.00000  Uiso   1.00
C49    C     0.55325   0.99967   0.58155   0.00000  Uiso   1.00
C50    C     0.48073   0.99967   0.47685   0.00000  Uiso   1.00
C51    C     0.37526   0.99983   0.50703   0.00000  Uiso   1.00
C52    C     0.33728   0.99968   0.27296   0.00000  Uiso   1.00
C53    C     0.44001   0.99952   0.23682   0.00000  Uiso   1.00
C54    C     0.51253   0.99951   0.34153   0.00000  Uiso   1.00
C55    C     0.68642   0.99935   0.40925   0.00000  Uiso   1.00
C56    C     0.30684   0.99984   0.40913   0.00000  Uiso   1.00
H19    H     0.71337   0.99950   0.62258   0.00000  Uiso   1.00
H20    H     0.27988   0.99969   0.19581   0.00000  Uiso   1.00
O17    O     0.87966   0.88168   0.17510   0.00000  Uiso   1.00
Li1    Li    0.86494   0.86687   0.01223   0.00000  Uiso   1.00
O18    O     0.61788   0.61833   0.73413   0.00000  Uiso   1.00
Li2    Li    0.63260   0.63314   0.89700   0.00000  Uiso   1.00
O19    O     0.11525   0.11841   0.17468   0.00000  Uiso   1.00
Li3    Li    0.13050   0.13326   0.01185   0.00000  Uiso   1.00
O20    O     0.38065   0.38162   0.73451   0.00000  Uiso   1.00
Li4    Li    0.36541   0.36677   0.89734   0.00000  Uiso   1.00
H21    H     0.05908   0.51883   0.84882   0.00000  Uiso   1.00
H22    H     0.92065   0.48175   0.89059   0.00000  Uiso   1.00
N1     N     0.97742   0.50024   0.81667   0.00000  Uiso   1.00
H23    H     0.23613   0.51882   0.77536   0.00000  Uiso   1.00
H24    H     0.09743   0.48175   0.81600   0.00000  Uiso   1.00
N2     N     0.15468   0.50024   0.74251   0.00000  Uiso   1.00
H25    H     0.97754   0.51821   0.15078   0.00000  Uiso   1.00
H26    H     0.04274   0.48115   0.10980   0.00000  Uiso   1.00
N3     N     0.02258   0.49973   0.18333   0.00000  Uiso   1.00
H27    H     0.80051   0.51822   0.22429   0.00000  Uiso   1.00
H28    H     0.86593   0.48115   0.18437   0.00000  Uiso   1.00
N4     N     0.84533   0.49973   0.25750   0.00000  Uiso   1.00
H29    H     0.51821   0.98071   0.06037   0.00000  Uiso   1.00
H30    H     0.45357   0.01788   0.01859   0.00000  Uiso   1.00
N5     N     0.47356   0.99935   0.09252   0.00000  Uiso   1.00
H31    H     0.69511   0.98056   0.13383   0.00000  Uiso   1.00
H32    H     0.63020   0.01772   0.09319   0.00000  Uiso   1.00
N6     N     0.65065   0.99919   0.16668   0.00000  Uiso   1.00
H33    H     0.43799   0.98141   0.75841   0.00000  Uiso   1.00
H34    H     0.57678   0.01839   0.79938   0.00000  Uiso   1.00
N7     N     0.51971   0.99984   0.72586   0.00000  Uiso   1.00
H35    H     0.26109   0.98156   0.68491   0.00000  Uiso   1.00
H36    H     0.40011   0.01854   0.72482   0.00000  Uiso   1.00
N8     N     0.34260   0.99999   0.65169   0.00000  Uiso   1.00
