data_DB1-Cu2O8-irmof12_A-TED_A_No1_repeat
_audit_creation_date              2024-02-23
_audit_creation_method            'Materials Studio'
_symmetry_space_group_name_H-M    'P1'
_symmetry_Int_Tables_number       1
_symmetry_cell_setting            triclinic
loop_
_symmetry_equiv_pos_as_xyz
  x,y,z
_cell_length_a                    30.0382
_cell_length_b                    18.0578
_cell_length_c                    10.0000
_cell_angle_alpha                 90.0000
_cell_angle_beta                  90.0000
_cell_angle_gamma                 143.0620
loop_
_atom_site_label
_atom_site_type_symbol
_atom_site_fract_x
_atom_site_fract_y
_atom_site_fract_z
_atom_site_U_iso_or_equiv
_atom_site_adp_type
_atom_site_occupancy
Cu1    Cu    0.50010   0.50021   0.62726   0.00000  Uiso   1.00
Cu2    Cu    0.49989   0.49977   0.37274   0.00000  Uiso   1.00
O1     O     0.42298   0.33997   0.61901   0.00000  Uiso   1.00
O2     O     0.57724   0.66075   0.61835   0.00000  Uiso   1.00
O3     O     0.44225   0.50054   0.61868   0.00000  Uiso   1.00
O4     O     0.55797   0.50018   0.61868   0.00000  Uiso   1.00
O5     O     0.55777   0.49949   0.38132   0.00000  Uiso   1.00
O6     O     0.44201   0.49976   0.38132   0.00000  Uiso   1.00
O7     O     0.57702   0.66015   0.38100   0.00000  Uiso   1.00
O8     O     0.42277   0.33923   0.38165   0.00000  Uiso   1.00
C1     C     0.38885   0.26888   0.50047   0.00000  Uiso   1.00
C2     C     0.61115   0.73110   0.49953   0.00000  Uiso   1.00
C3     C     0.41658   0.50015   0.50000   0.00000  Uiso   1.00
C4     C     0.58342   0.49983   0.50000   0.00000  Uiso   1.00
Cu3    Cu    0.99973   0.49944   0.37271   0.00000  Uiso   1.00
Cu4    Cu    0.00023   0.50048   0.62722   0.00000  Uiso   1.00
O9     O     0.92289   0.33925   0.38206   0.00000  Uiso   1.00
O10    O     0.07690   0.66002   0.38051   0.00000  Uiso   1.00
O11    O     0.05792   0.49981   0.38128   0.00000  Uiso   1.00
O12    O     0.94187   0.49946   0.38128   0.00000  Uiso   1.00
O13    O     0.94207   0.50015   0.61864   0.00000  Uiso   1.00
O14    O     0.05808   0.50042   0.61864   0.00000  Uiso   1.00
O15    O     0.07721   0.66081   0.61787   0.00000  Uiso   1.00
O16    O     0.92305   0.33990   0.61942   0.00000  Uiso   1.00
C5     C     0.88903   0.26885   0.50109   0.00000  Uiso   1.00
C6     C     0.11093   0.73107   0.49885   0.00000  Uiso   1.00
C7     C     0.08355   0.50011   0.49997   0.00000  Uiso   1.00
C8     C     0.91642   0.49981   0.49997   0.00000  Uiso   1.00
C9     C     0.70660   0.45360   0.73527   0.00000  Uiso   1.00
C10    C     0.75101   0.54604   0.26470   0.00000  Uiso   1.00
C11    C     0.74816   0.45222   0.26501   0.00000  Uiso   1.00
C12    C     0.79390   0.54741   0.73495   0.00000  Uiso   1.00
C13    C     0.65958   0.50016   0.61295   0.00000  Uiso   1.00
C14    C     0.70591   0.50016   0.61537   0.00000  Uiso   1.00
H1     H     0.64486   0.50040   0.69682   0.00000  Uiso   1.00
C15    C     0.65926   0.49950   0.38703   0.00000  Uiso   1.00
C16    C     0.70559   0.49949   0.38460   0.00000  Uiso   1.00
H2     H     0.64431   0.49925   0.30316   0.00000  Uiso   1.00
C17    C     0.84026   0.49948   0.38702   0.00000  Uiso   1.00
C18    C     0.79392   0.49948   0.38460   0.00000  Uiso   1.00
H3     H     0.85497   0.49924   0.30314   0.00000  Uiso   1.00
C19    C     0.84057   0.50014   0.61293   0.00000  Uiso   1.00
C20    C     0.79424   0.50015   0.61536   0.00000  Uiso   1.00
H4     H     0.85553   0.50039   0.69680   0.00000  Uiso   1.00
C21    C     0.63306   0.49983   0.49999   0.00000  Uiso   1.00
C22    C     0.72675   0.49982   0.49999   0.00000  Uiso   1.00
C23    C     0.86678   0.49981   0.49997   0.00000  Uiso   1.00
C24    C     0.77308   0.49982   0.49998   0.00000  Uiso   1.00
H5     H     0.67006   0.35415   0.72090   0.00000  Uiso   1.00
H6     H     0.68818   0.46279   0.82579   0.00000  Uiso   1.00
H7     H     0.81005   0.64550   0.27907   0.00000  Uiso   1.00
H8     H     0.72377   0.53686   0.17418   0.00000  Uiso   1.00
H9     H     0.68916   0.35286   0.28007   0.00000  Uiso   1.00
H10    H     0.77515   0.46088   0.17443   0.00000  Uiso   1.00
H11    H     0.83040   0.64678   0.71989   0.00000  Uiso   1.00
H12    H     0.81257   0.53875   0.82552   0.00000  Uiso   1.00
C25    C     0.29408   0.54781   0.73493   0.00000  Uiso   1.00
C26    C     0.24827   0.45245   0.26504   0.00000  Uiso   1.00
C27    C     0.25112   0.54626   0.26467   0.00000  Uiso   1.00
C28    C     0.20678   0.45399   0.73529   0.00000  Uiso   1.00
C29    C     0.34075   0.50051   0.61295   0.00000  Uiso   1.00
C30    C     0.29441   0.50051   0.61537   0.00000  Uiso   1.00
H13    H     0.35571   0.50079   0.69682   0.00000  Uiso   1.00
C31    C     0.34039   0.49977   0.38703   0.00000  Uiso   1.00
C32    C     0.29405   0.49976   0.38460   0.00000  Uiso   1.00
H14    H     0.35510   0.49950   0.30316   0.00000  Uiso   1.00
C33    C     0.15938   0.49975   0.38702   0.00000  Uiso   1.00
C34    C     0.20572   0.49974   0.38460   0.00000  Uiso   1.00
H15    H     0.14441   0.49947   0.30314   0.00000  Uiso   1.00
C35    C     0.15974   0.50049   0.61293   0.00000  Uiso   1.00
C36    C     0.20608   0.50050   0.61536   0.00000  Uiso   1.00
H16    H     0.14503   0.50076   0.69680   0.00000  Uiso   1.00
C37    C     0.36693   0.50014   0.49999   0.00000  Uiso   1.00
C38    C     0.27323   0.50013   0.49998   0.00000  Uiso   1.00
C39    C     0.13319   0.50011   0.49997   0.00000  Uiso   1.00
C40    C     0.22690   0.50013   0.49998   0.00000  Uiso   1.00
H17    H     0.33058   0.64717   0.71983   0.00000  Uiso   1.00
H18    H     0.31277   0.53919   0.82551   0.00000  Uiso   1.00
H19    H     0.18928   0.35309   0.28013   0.00000  Uiso   1.00
H20    H     0.27525   0.46108   0.17446   0.00000  Uiso   1.00
H21    H     0.31016   0.64572   0.27900   0.00000  Uiso   1.00
H22    H     0.22386   0.53704   0.17416   0.00000  Uiso   1.00
H23    H     0.17024   0.35453   0.72096   0.00000  Uiso   1.00
H24    H     0.18837   0.46320   0.82580   0.00000  Uiso   1.00
C41    C     0.24916   0.08347   0.46447   0.00000  Uiso   1.00
C42    C     0.17608   0.94216   0.46475   0.00000  Uiso   1.00
C43    C     0.18249   0.86954   0.49926   0.00000  Uiso   1.00
C44    C     0.24132   0.92145   0.40308   0.00000  Uiso   1.00
C45    C     0.31449   0.06276   0.40395   0.00000  Uiso   1.00
C46    C     0.31800   0.13178   0.50005   0.00000  Uiso   1.00
C47    C     0.29675   0.06778   0.63111   0.00000  Uiso   1.00
C48    C     0.22385   0.92632   0.63054   0.00000  Uiso   1.00
H25    H     0.24349   0.12390   0.53786   0.00000  Uiso   1.00
H26    H     0.25924   0.12068   0.36047   0.00000  Uiso   1.00
H27    H     0.14973   0.91207   0.36153   0.00000  Uiso   1.00
H28    H     0.13648   0.91448   0.54125   0.00000  Uiso   1.00
H29    H     0.21745   0.89143   0.29759   0.00000  Uiso   1.00
H30    H     0.25669   0.88214   0.42737   0.00000  Uiso   1.00
H31    H     0.32495   0.09849   0.29865   0.00000  Uiso   1.00
H32    H     0.36209   0.08764   0.43227   0.00000  Uiso   1.00
H33    H     0.29227   0.10700   0.71032   0.00000  Uiso   1.00
H34    H     0.34199   0.08755   0.66287   0.00000  Uiso   1.00
H35    H     0.23677   0.88409   0.66124   0.00000  Uiso   1.00
H36    H     0.18720   0.90348   0.71075   0.00000  Uiso   1.00
C49    C     0.75082   0.91627   0.46321   0.00000  Uiso   1.00
C50    C     0.82393   0.05756   0.46296   0.00000  Uiso   1.00
C51    C     0.81763   0.13040   0.49685   0.00000  Uiso   1.00
C52    C     0.75874   0.07825   0.40060   0.00000  Uiso   1.00
C53    C     0.68554   0.93695   0.40198   0.00000  Uiso   1.00
C54    C     0.68204   0.86819   0.49861   0.00000  Uiso   1.00
C55    C     0.70341   0.93266   0.62932   0.00000  Uiso   1.00
C56    C     0.77636   0.07410   0.62823   0.00000  Uiso   1.00
H37    H     0.75650   0.87602   0.53696   0.00000  Uiso   1.00
H38    H     0.74063   0.87868   0.35942   0.00000  Uiso   1.00
H39    H     0.85020   0.08726   0.35972   0.00000  Uiso   1.00
H40    H     0.86357   0.08543   0.53956   0.00000  Uiso   1.00
H41    H     0.78254   0.10788   0.29506   0.00000  Uiso   1.00
H42    H     0.74345   0.11773   0.42444   0.00000  Uiso   1.00
H43    H     0.67498   0.90085   0.29689   0.00000  Uiso   1.00
H44    H     0.63799   0.91226   0.43011   0.00000  Uiso   1.00
H45    H     0.70791   0.89365   0.70888   0.00000  Uiso   1.00
H46    H     0.65823   0.91309   0.66088   0.00000  Uiso   1.00
H47    H     0.76351   0.11652   0.65849   0.00000  Uiso   1.00
H48    H     0.81304   0.09715   0.70856   0.00000  Uiso   1.00
