# Generated by REPEAT Assigner based on pymatgen
data_DB1-Cu2N8-BDC_B-DPAC_B_No577
_audit_creation_date              2022-05-24
_audit_creation_method            REPEAT_Assigner
_cell_length_a                    19.472700
_cell_length_b                    7.052800
_cell_length_c                    13.442900
_cell_angle_alpha                 74.792000
_cell_angle_beta                  107.977000
_cell_angle_gamma                 111.232000
_cell_volume                      1613.106099
_symmetry_space_group_name_H-M    P1
_symmetry_Int_Tables_number       1
loop_
    _symmetry_equiv_pos_site_id
    _symmetry_equiv_pos_as_xyz
    1  x,y,z
loop_
    _atom_site_type_symbol
    _atom_site_label
    _atom_site_fract_x
    _atom_site_fract_y
    _atom_site_fract_z
    _atom_type_partial_charge
    Cu  Cu1  0.500000  0.000000  0.500000  0.284265
    Cu  Cu2  0.500000  0.500000  0.500000  0.286764
    N   N1   0.585200  0.199270  0.584240  0.111624
    N   N2   0.647790  0.166580  0.648200  -0.538497
    N   N3   0.500660  0.408650  0.371620  0.020902
    N   N4   0.499780  0.518910  0.275940  -0.406297
    N   N5   0.414800  0.613130  0.415760  0.089782
    N   N6   0.352210  0.519230  0.351800  -0.522741
    N   N7   0.499340  0.778950  0.628380  0.010989
    N   N8   0.500220  0.795290  0.724060  -0.403100
    N   N9   0.414800  0.800730  0.415760  0.104584
    N   N10  0.352210  0.833430  0.351800  -0.535331
    N   N11  0.499340  0.591350  0.628380  0.088959
    N   N12  0.500220  0.481090  0.724060  -0.498143
    N   N13  0.585200  0.386870  0.584240  0.082751
    N   N14  0.647790  0.480780  0.648200  -0.519767
    N   N15  0.500660  0.221050  0.371620  0.078825
    N   N16  0.499780  0.204710  0.275940  -0.495385
    C   C1   0.685390  0.342500  0.685750  0.774039
    C   C2   0.499820  0.390310  0.219040  0.827882
    C   C3   0.314610  0.657500  0.314250  0.773322
    C   C4   0.500180  0.609700  0.780960  0.826653
    C   C5   0.500090  0.554060  0.892050  -0.493617
    C   C6   0.499910  0.445940  0.107950  -0.497103
    C   C7   0.500040  0.356780  0.946400  0.253136
    C   C8   0.499960  0.643220  0.053600  0.220464
    C   C9   0.499960  0.303100  0.053600  0.254339
    C   C10  0.500040  0.696910  0.946400  0.213703
    C   C11  0.242450  0.621380  0.242160  -0.230108
    C   C12  0.204950  0.430540  0.204730  0.048492
    C   C13  0.133240  0.394130  0.133100  -0.506898
    C   C14  0.096910  0.548510  0.096770  0.368251
    C   C15  0.133240  0.739270  0.133040  -0.035981
    C   C16  0.204950  0.774660  0.204670  -0.072650
    C   C17  0.030450  0.515220  0.030390  -0.138391
    C   C18  0.969560  0.484730  0.969570  -0.142496
    C   C19  0.903110  0.451470  0.903190  0.371951
    C   C20  0.866770  0.260740  0.866890  -0.037179
    C   C21  0.795060  0.225350  0.795270  -0.071721
    C   C22  0.757560  0.378620  0.757820  -0.231763
    C   C23  0.795060  0.569430  0.795270  0.050330
    C   C24  0.866770  0.605840  0.866900  -0.509700
    H   H1   0.229830  0.315440  0.229610  0.070960
    H   H2   0.108080  0.254200  0.107990  0.370853
    H   H3   0.229840  0.914680  0.229510  0.126884
    H   H4   0.770180  0.085360  0.770410  0.129956
    H   H5   0.770170  0.684520  0.770420  0.067450
    H   H6   0.891930  0.745750  0.892030  0.371944
    H   H7   0.537360  0.247330  0.832360  0.362269
    H   H8   0.462860  0.038770  0.901310  0.311806
    N   N17  0.500090  0.200490  0.888220  -0.643173
    H   H9   0.537070  0.814660  0.192480  0.222538
    H   H10  0.462720  0.899240  0.073840  0.208011
    N   N18  0.499910  0.799510  0.111780  -0.496026
    H   H11  0.462640  0.004990  0.167630  0.363635
    H   H12  0.537140  0.014360  0.098690  0.311726
    N   N19  0.499910  0.088540  0.111780  -0.643945
    H   H13  0.462930  0.933010  0.807520  0.222102
    H   H14  0.537280  0.047640  0.926150  0.208812
    N   N20  0.500090  0.911470  0.888220  -0.493371
    Br  Br1  0.082260  0.971800  0.082060  -0.163753
    Br  Br2  0.917770  0.028240  0.917820  -0.163820
