data_DB1-Cu2O8N2-ADC_A-BDC_A_No636_repeat
_audit_creation_date              2024-02-20
_audit_creation_method            'Materials Studio'
_symmetry_space_group_name_H-M    'P1'
_symmetry_Int_Tables_number       1
_symmetry_cell_setting            triclinic
loop_
_symmetry_equiv_pos_as_xyz
  x,y,z
_cell_length_a                    15.8494
_cell_length_b                    17.5218
_cell_length_c                    10.7003
_cell_angle_alpha                 89.9218
_cell_angle_beta                  87.6748
_cell_angle_gamma                 95.2900
loop_
_atom_site_label
_atom_site_type_symbol
_atom_site_fract_x
_atom_site_fract_y
_atom_site_fract_z
_atom_site_U_iso_or_equiv
_atom_site_adp_type
_atom_site_occupancy
Cu1    Cu    0.41940   0.49703   0.50485   0.00000  Uiso   1.00
Cu2    Cu    0.58060   0.50296   0.49516   0.00000  Uiso   1.00
O1     O     0.42483   0.49729   0.66702   0.00000  Uiso   1.00
O2     O     0.42485   0.49740   0.34170   0.00000  Uiso   1.00
O3     O     0.43056   0.59702   0.50387   0.00000  Uiso   1.00
O4     O     0.41912   0.39767   0.50485   0.00000  Uiso   1.00
O5     O     0.56943   0.40297   0.49610   0.00000  Uiso   1.00
O6     O     0.58087   0.60232   0.49521   0.00000  Uiso   1.00
O7     O     0.57517   0.50281   0.33286   0.00000  Uiso   1.00
O8     O     0.57514   0.50256   0.65832   0.00000  Uiso   1.00
C1     C     0.49999   0.49994   0.73439   0.00000  Uiso   1.00
C2     C     0.50001   0.50005   0.26562   0.00000  Uiso   1.00
C3     C     0.50824   0.64363   0.49941   0.00000  Uiso   1.00
C4     C     0.49176   0.35636   0.50061   0.00000  Uiso   1.00
N1     N     0.29962   0.49263   0.51205   0.00000  Uiso   1.00
C5     C     0.25676   0.53995   0.43466   0.00000  Uiso   1.00
C6     C     0.16805   0.53676   0.43988   0.00000  Uiso   1.00
C7     C     0.11957   0.48593   0.52302   0.00000  Uiso   1.00
C8     C     0.16257   0.43873   0.60020   0.00000  Uiso   1.00
C9     C     0.25120   0.44196   0.59493   0.00000  Uiso   1.00
C10    C     0.02495   0.47942   0.53366   0.00000  Uiso   1.00
C11    C     0.97505   0.52058   0.46634   0.00000  Uiso   1.00
C12    C     0.83742   0.56126   0.39981   0.00000  Uiso   1.00
C13    C     0.88043   0.51407   0.47698   0.00000  Uiso   1.00
C14    C     0.83196   0.46324   0.56013   0.00000  Uiso   1.00
C15    C     0.74324   0.46004   0.56535   0.00000  Uiso   1.00
N2     N     0.70038   0.50736   0.48796   0.00000  Uiso   1.00
C16    C     0.74879   0.55804   0.40508   0.00000  Uiso   1.00
H1     H     0.29241   0.57948   0.37001   0.00000  Uiso   1.00
H2     H     0.13885   0.57438   0.37835   0.00000  Uiso   1.00
H3     H     0.12741   0.39904   0.66512   0.00000  Uiso   1.00
H4     H     0.87258   0.60096   0.33488   0.00000  Uiso   1.00
H5     H     0.86115   0.42561   0.62166   0.00000  Uiso   1.00
H6     H     0.70759   0.42051   0.63001   0.00000  Uiso   1.00
H7     H     0.99622   0.43818   0.60111   0.00000  Uiso   1.00
H8     H     0.00378   0.56183   0.39888   0.00000  Uiso   1.00
C17    C     0.48685   0.27084   0.50086   0.00000  Uiso   1.00
C18    C     0.56106   0.23234   0.49657   0.00000  Uiso   1.00
C19    C     0.55656   0.15212   0.49680   0.00000  Uiso   1.00
C20    C     0.47736   0.10802   0.50135   0.00000  Uiso   1.00
C21    C     0.40335   0.14664   0.50563   0.00000  Uiso   1.00
C22    C     0.40790   0.22679   0.50540   0.00000  Uiso   1.00
C23    C     0.46771   0.02245   0.50188   0.00000  Uiso   1.00
C24    C     0.53232   0.97755   0.49814   0.00000  Uiso   1.00
C25    C     0.59667   0.85334   0.49439   0.00000  Uiso   1.00
C26    C     0.52267   0.89197   0.49867   0.00000  Uiso   1.00
C27    C     0.44346   0.84787   0.50322   0.00000  Uiso   1.00
C28    C     0.43895   0.76765   0.50345   0.00000  Uiso   1.00
C29    C     0.51316   0.72915   0.49916   0.00000  Uiso   1.00
C30    C     0.59211   0.77320   0.49462   0.00000  Uiso   1.00
H9     H     0.62266   0.26479   0.49303   0.00000  Uiso   1.00
H10    H     0.61553   0.12593   0.49339   0.00000  Uiso   1.00
H11    H     0.34149   0.11464   0.50919   0.00000  Uiso   1.00
H12    H     0.65854   0.88534   0.49083   0.00000  Uiso   1.00
H13    H     0.38449   0.87406   0.50662   0.00000  Uiso   1.00
H14    H     0.37735   0.73521   0.50699   0.00000  Uiso   1.00
H15    H     0.40339   0.99625   0.50558   0.00000  Uiso   1.00
H16    H     0.59665   0.00374   0.49444   0.00000  Uiso   1.00
C31    C     0.50000   0.49997   0.86911   0.00000  Uiso   1.00
C32    C     0.50001   0.50002   0.13091   0.00000  Uiso   1.00
C33    C     0.57595   0.50265   0.93044   0.00000  Uiso   1.00
C34    C     0.42405   0.49734   0.06958   0.00000  Uiso   1.00
C35    C     0.57596   0.50267   0.06043   0.00000  Uiso   1.00
C36    C     0.42405   0.49732   0.93958   0.00000  Uiso   1.00
O9     O     0.28858   0.39748   0.66766   0.00000  Uiso   1.00
Li1    Li    0.25154   0.33027   0.77758   0.00000  Uiso   1.00
O10    O     0.71141   0.60251   0.33235   0.00000  Uiso   1.00
Li2    Li    0.74844   0.66972   0.22243   0.00000  Uiso   1.00
O11    O     0.33817   0.26034   0.50943   0.00000  Uiso   1.00
Li3    Li    0.23331   0.22649   0.51546   0.00000  Uiso   1.00
O12    O     0.66184   0.73964   0.49059   0.00000  Uiso   1.00
Li4    Li    0.76670   0.77348   0.48456   0.00000  Uiso   1.00
C37    C     0.66109   0.50562   0.85278   0.00000  Uiso   1.00
H17    H     0.69024   0.46179   0.87268   0.00000  Uiso   1.00
H18    H     0.64999   0.50533   0.76524   0.00000  Uiso   1.00
H19    H     0.69569   0.55158   0.87239   0.00000  Uiso   1.00
C38    C     0.33891   0.49437   0.14724   0.00000  Uiso   1.00
H20    H     0.30442   0.44830   0.12790   0.00000  Uiso   1.00
H21    H     0.35002   0.49490   0.23478   0.00000  Uiso   1.00
H22    H     0.30964   0.53808   0.12706   0.00000  Uiso   1.00
C39    C     0.66110   0.50568   0.12783   0.00000  Uiso   1.00
H23    H     0.69559   0.55174   0.10409   0.00000  Uiso   1.00
H24    H     0.64999   0.50519   0.21671   0.00000  Uiso   1.00
H25    H     0.69037   0.46196   0.10438   0.00000  Uiso   1.00
C40    C     0.33890   0.49432   0.87218   0.00000  Uiso   1.00
H26    H     0.30975   0.53816   0.89535   0.00000  Uiso   1.00
H27    H     0.34999   0.49457   0.78331   0.00000  Uiso   1.00
H28    H     0.30431   0.44837   0.89621   0.00000  Uiso   1.00
