data_DB1-Cu2O8N2-DPAC_A-irmof10_A_No449_repeat
_audit_creation_date              2024-02-23
_audit_creation_method            'Materials Studio'
_symmetry_space_group_name_H-M    'P1'
_symmetry_Int_Tables_number       1
_symmetry_cell_setting            triclinic
loop_
_symmetry_equiv_pos_as_xyz
  x,y,z
_cell_length_a                    32.3179
_cell_length_b                    17.3722
_cell_length_c                    15.8500
_cell_angle_alpha                 89.9944
_cell_angle_beta                  89.9927
_cell_angle_gamma                 89.8696
loop_
_atom_site_label
_atom_site_type_symbol
_atom_site_fract_x
_atom_site_fract_y
_atom_site_fract_z
_atom_site_U_iso_or_equiv
_atom_site_adp_type
_atom_site_occupancy
Cu1    Cu    0.50001   0.50000   0.41971   0.00000  Uiso   1.00
Cu2    Cu    0.50000   0.49999   0.58029   0.00000  Uiso   1.00
O1     O     0.55381   0.49998   0.42512   0.00000  Uiso   1.00
O2     O     0.44610   0.50024   0.42513   0.00000  Uiso   1.00
O3     O     0.49989   0.60030   0.42512   0.00000  Uiso   1.00
O4     O     0.50001   0.39992   0.42513   0.00000  Uiso   1.00
O5     O     0.50010   0.39969   0.57488   0.00000  Uiso   1.00
O6     O     0.50001   0.60007   0.57487   0.00000  Uiso   1.00
O7     O     0.44615   0.50012   0.57488   0.00000  Uiso   1.00
O8     O     0.55391   0.49972   0.57487   0.00000  Uiso   1.00
C1     C     0.57761   0.49983   0.50000   0.00000  Uiso   1.00
C2     C     0.42240   0.50016   0.50001   0.00000  Uiso   1.00
C3     C     0.49996   0.64436   0.49999   0.00000  Uiso   1.00
C4     C     0.50005   0.35563   0.50001   0.00000  Uiso   1.00
Cu3    Cu    0.96246   0.49938   0.58031   0.00000  Uiso   1.00
Cu4    Cu    0.96247   0.49993   0.41973   0.00000  Uiso   1.00
O9     O     0.90866   0.49946   0.57490   0.00000  Uiso   1.00
O10    O     0.01637   0.49956   0.57489   0.00000  Uiso   1.00
O11    O     0.96237   0.59970   0.57529   0.00000  Uiso   1.00
O12    O     0.96266   0.39932   0.57450   0.00000  Uiso   1.00
O13    O     0.96257   0.39960   0.42474   0.00000  Uiso   1.00
O14    O     0.96225   0.59998   0.42554   0.00000  Uiso   1.00
O15    O     0.01631   0.49995   0.42514   0.00000  Uiso   1.00
O16    O     0.90856   0.49972   0.42515   0.00000  Uiso   1.00
C5     C     0.88486   0.49961   0.50002   0.00000  Uiso   1.00
C6     C     0.04007   0.49970   0.50001   0.00000  Uiso   1.00
C7     C     0.96222   0.64402   0.50059   0.00000  Uiso   1.00
C8     C     0.96271   0.35528   0.49944   0.00000  Uiso   1.00
N1     N     0.50001   0.50000   0.30038   0.00000  Uiso   1.00
C9     C     0.47344   0.54947   0.25392   0.00000  Uiso   1.00
C10    C     0.47336   0.54962   0.16508   0.00000  Uiso   1.00
C11    C     0.50000   0.50000   0.12006   0.00000  Uiso   1.00
C12    C     0.52664   0.45037   0.16507   0.00000  Uiso   1.00
C13    C     0.52657   0.45052   0.25391   0.00000  Uiso   1.00
C14    C     0.50000   0.50000   0.03772   0.00000  Uiso   1.00
C15    C     0.49999   0.50000   0.96228   0.00000  Uiso   1.00
C16    C     0.49999   0.49999   0.87995   0.00000  Uiso   1.00
C17    C     0.47334   0.54959   0.83493   0.00000  Uiso   1.00
C18    C     0.47342   0.54945   0.74608   0.00000  Uiso   1.00
N2     N     0.49999   0.49999   0.69962   0.00000  Uiso   1.00
C19    C     0.52657   0.45053   0.74608   0.00000  Uiso   1.00
C20    C     0.52664   0.45039   0.83493   0.00000  Uiso   1.00
H1     H     0.45375   0.58615   0.28476   0.00000  Uiso   1.00
H2     H     0.45370   0.58623   0.13391   0.00000  Uiso   1.00
H3     H     0.54626   0.41385   0.28474   0.00000  Uiso   1.00
H4     H     0.45372   0.58611   0.71525   0.00000  Uiso   1.00
H5     H     0.54626   0.41386   0.71525   0.00000  Uiso   1.00
H6     H     0.54631   0.41379   0.86610   0.00000  Uiso   1.00
C21    C     0.50004   0.27406   0.50001   0.00000  Uiso   1.00
C22    C     0.49998   0.23168   0.42345   0.00000  Uiso   1.00
C23    C     0.49997   0.15062   0.42322   0.00000  Uiso   1.00
C24    C     0.50001   0.10953   0.49999   0.00000  Uiso   1.00
C25    C     0.50006   0.15059   0.57678   0.00000  Uiso   1.00
C26    C     0.50008   0.23165   0.57656   0.00000  Uiso   1.00
C27    C     0.50000   0.03441   0.49999   0.00000  Uiso   1.00
C28    C     0.49999   0.96558   0.49998   0.00000  Uiso   1.00
C29    C     0.49998   0.89046   0.49998   0.00000  Uiso   1.00
C30    C     0.49991   0.84939   0.42320   0.00000  Uiso   1.00
C31    C     0.49990   0.76833   0.42343   0.00000  Uiso   1.00
C32    C     0.49996   0.72593   0.49999   0.00000  Uiso   1.00
C33    C     0.50003   0.76832   0.57654   0.00000  Uiso   1.00
C34    C     0.50004   0.84938   0.57677   0.00000  Uiso   1.00
H7     H     0.49995   0.25981   0.36670   0.00000  Uiso   1.00
H8     H     0.49993   0.12219   0.36656   0.00000  Uiso   1.00
H9     H     0.50012   0.25977   0.63331   0.00000  Uiso   1.00
H10    H     0.49986   0.74021   0.36668   0.00000  Uiso   1.00
H11    H     0.50007   0.74019   0.63329   0.00000  Uiso   1.00
H12    H     0.50008   0.87782   0.63342   0.00000  Uiso   1.00
C35    C     0.62221   0.49980   0.50000   0.00000  Uiso   1.00
C36    C     0.84026   0.49964   0.50002   0.00000  Uiso   1.00
C37    C     0.64404   0.49991   0.42433   0.00000  Uiso   1.00
C38    C     0.68743   0.49988   0.42363   0.00000  Uiso   1.00
C39    C     0.81843   0.49952   0.57569   0.00000  Uiso   1.00
C40    C     0.77504   0.49956   0.57639   0.00000  Uiso   1.00
C41    C     0.81844   0.49978   0.42434   0.00000  Uiso   1.00
C42    C     0.77505   0.49982   0.42364   0.00000  Uiso   1.00
C43    C     0.64402   0.49965   0.57567   0.00000  Uiso   1.00
C44    C     0.68742   0.49962   0.57638   0.00000  Uiso   1.00
C45    C     0.70937   0.49974   0.50001   0.00000  Uiso   1.00
C46    C     0.75310   0.49970   0.50001   0.00000  Uiso   1.00
H13    H     0.70211   0.49996   0.37096   0.00000  Uiso   1.00
H14    H     0.76036   0.49948   0.62906   0.00000  Uiso   1.00
H15    H     0.83330   0.49986   0.37189   0.00000  Uiso   1.00
H16    H     0.76038   0.49992   0.37097   0.00000  Uiso   1.00
H17    H     0.62917   0.49958   0.62813   0.00000  Uiso   1.00
H18    H     0.70208   0.49952   0.62905   0.00000  Uiso   1.00
C47    C     0.08391   0.49976   0.50001   0.00000  Uiso   1.00
C48    C     0.10670   0.49971   0.57657   0.00000  Uiso   1.00
C49    C     0.15027   0.49976   0.57680   0.00000  Uiso   1.00
C50    C     0.17235   0.49987   0.50002   0.00000  Uiso   1.00
C51    C     0.15028   0.49993   0.42324   0.00000  Uiso   1.00
C52    C     0.10671   0.49987   0.42346   0.00000  Uiso   1.00
C53    C     0.21273   0.49992   0.50002   0.00000  Uiso   1.00
C54    C     0.24973   0.49997   0.50003   0.00000  Uiso   1.00
C55    C     0.29011   0.50002   0.50002   0.00000  Uiso   1.00
C56    C     0.31219   0.49998   0.57680   0.00000  Uiso   1.00
C57    C     0.35576   0.50003   0.57657   0.00000  Uiso   1.00
C58    C     0.37855   0.50011   0.50001   0.00000  Uiso   1.00
C59    C     0.35577   0.50015   0.42346   0.00000  Uiso   1.00
C60    C     0.31219   0.50010   0.42324   0.00000  Uiso   1.00
H19    H     0.09157   0.49962   0.63332   0.00000  Uiso   1.00
H20    H     0.16555   0.49972   0.63345   0.00000  Uiso   1.00
H21    H     0.09159   0.49992   0.36671   0.00000  Uiso   1.00
H22    H     0.37088   0.50000   0.63332   0.00000  Uiso   1.00
H23    H     0.37089   0.50021   0.36671   0.00000  Uiso   1.00
H24    H     0.29691   0.50013   0.36659   0.00000  Uiso   1.00
N3     N     0.96245   0.50241   0.69964   0.00000  Uiso   1.00
C61    C     0.98892   0.55168   0.74629   0.00000  Uiso   1.00
C62    C     0.98900   0.55152   0.83514   0.00000  Uiso   1.00
C63    C     0.96246   0.50178   0.87997   0.00000  Uiso   1.00
C64    C     0.93592   0.45236   0.83476   0.00000  Uiso   1.00
C65    C     0.93599   0.45281   0.74592   0.00000  Uiso   1.00
C66    C     0.96247   0.50150   0.96230   0.00000  Uiso   1.00
C67    C     0.96247   0.50125   0.03774   0.00000  Uiso   1.00
C68    C     0.96247   0.50096   0.12008   0.00000  Uiso   1.00
C69    C     0.98902   0.55036   0.16529   0.00000  Uiso   1.00
C70    C     0.98894   0.54991   0.25413   0.00000  Uiso   1.00
N4     N     0.96247   0.50033   0.30040   0.00000  Uiso   1.00
C71    C     0.93600   0.45107   0.25374   0.00000  Uiso   1.00
C72    C     0.93592   0.45123   0.16490   0.00000  Uiso   1.00
H25    H     0.00854   0.58844   0.71560   0.00000  Uiso   1.00
H26    H     0.00859   0.58800   0.86645   0.00000  Uiso   1.00
H27    H     0.91637   0.41627   0.71495   0.00000  Uiso   1.00
H28    H     0.00857   0.58644   0.28511   0.00000  Uiso   1.00
H29    H     0.91637   0.41433   0.28443   0.00000  Uiso   1.00
H30    H     0.91633   0.41477   0.13358   0.00000  Uiso   1.00
C73    C     0.96087   0.27371   0.50304   0.00000  Uiso   1.00
C74    C     0.96101   0.23107   0.57943   0.00000  Uiso   1.00
C75    C     0.96119   0.15001   0.57935   0.00000  Uiso   1.00
C76    C     0.96123   0.10919   0.50241   0.00000  Uiso   1.00
C77    C     0.96109   0.15051   0.42579   0.00000  Uiso   1.00
C78    C     0.96091   0.23157   0.42633   0.00000  Uiso   1.00
C79    C     0.96139   0.03406   0.50212   0.00000  Uiso   1.00
C80    C     0.96154   0.96524   0.50186   0.00000  Uiso   1.00
C81    C     0.96170   0.89011   0.50156   0.00000  Uiso   1.00
C82    C     0.96185   0.84878   0.57818   0.00000  Uiso   1.00
C83    C     0.96202   0.76772   0.57764   0.00000  Uiso   1.00
C84    C     0.96205   0.72559   0.50092   0.00000  Uiso   1.00
C85    C     0.96190   0.76824   0.42453   0.00000  Uiso   1.00
C86    C     0.96173   0.84930   0.42462   0.00000  Uiso   1.00
H31    H     0.96098   0.25901   0.63629   0.00000  Uiso   1.00
H32    H     0.96128   0.12138   0.63589   0.00000  Uiso   1.00
H33    H     0.96081   0.25989   0.36968   0.00000  Uiso   1.00
H34    H     0.96213   0.73940   0.63428   0.00000  Uiso   1.00
H35    H     0.96191   0.74030   0.36767   0.00000  Uiso   1.00
H36    H     0.96162   0.87793   0.36808   0.00000  Uiso   1.00
O17    O     0.55154   0.40401   0.12558   0.00000  Uiso   1.00
Li1    Li    0.56071   0.38691   0.02092   0.00000  Uiso   1.00
O18    O     0.44844   0.59595   0.87440   0.00000  Uiso   1.00
Li2    Li    0.43926   0.61303   0.97907   0.00000  Uiso   1.00
O19    O     0.50010   0.11456   0.64852   0.00000  Uiso   1.00
Li3    Li    0.50010   0.01907   0.67496   0.00000  Uiso   1.00
O20    O     0.49986   0.88542   0.35146   0.00000  Uiso   1.00
Li4    Li    0.49985   0.98091   0.32501   0.00000  Uiso   1.00
O21    O     0.16965   0.50003   0.35149   0.00000  Uiso   1.00
Li5    Li    0.22098   0.50013   0.32505   0.00000  Uiso   1.00
O22    O     0.29282   0.49991   0.64855   0.00000  Uiso   1.00
Li6    Li    0.24149   0.49983   0.67500   0.00000  Uiso   1.00
O23    O     0.91112   0.40589   0.87406   0.00000  Uiso   1.00
Li7    Li    0.90199   0.38845   0.97866   0.00000  Uiso   1.00
O24    O     0.01383   0.59682   0.12599   0.00000  Uiso   1.00
Li8    Li    0.02298   0.61425   0.02140   0.00000  Uiso   1.00
O25    O     0.96112   0.11473   0.35390   0.00000  Uiso   1.00
Li9    Li    0.96131   0.01932   0.32709   0.00000  Uiso   1.00
O26    O     0.96183   0.88456   0.65007   0.00000  Uiso   1.00
Li10   Li    0.96165   0.97996   0.67689   0.00000  Uiso   1.00
O27    O     0.58409   0.55045   0.33104   0.00000  Uiso   1.00
O28    O     0.63440   0.44986   0.27176   0.00000  Uiso   1.00
N5     N     0.62066   0.50007   0.34172   0.00000  Uiso   1.00
O29    O     0.87828   0.54965   0.66917   0.00000  Uiso   1.00
O30    O     0.82816   0.44893   0.72806   0.00000  Uiso   1.00
N6     N     0.84181   0.49936   0.65829   0.00000  Uiso   1.00
