# Generated by REPEAT Assigner based on pymatgen
data_DB1-Zn4O13-irmof6_A-irmof8_A_No125
_audit_creation_date              2022-05-24
_audit_creation_method            REPEAT_Assigner
_cell_length_a                    19.926100
_cell_length_b                    21.411500
_cell_length_c                    33.611700
_cell_angle_alpha                 90.000000
_cell_angle_beta                  80.857400
_cell_angle_gamma                 57.501800
_cell_volume                      11878.201830
_symmetry_space_group_name_H-M    P1
_symmetry_Int_Tables_number       1
loop_
    _symmetry_equiv_pos_site_id
    _symmetry_equiv_pos_as_xyz
    1  x,y,z
loop_
    _atom_site_type_symbol
    _atom_site_label
    _atom_site_fract_x
    _atom_site_fract_y
    _atom_site_fract_z
    _atom_type_partial_charge
    Zn  Zn1   0.543270  0.404330  0.521630  1.312585
    Zn  Zn2   0.530780  0.484610  0.441350  1.305078
    Zn  Zn3   0.382690  0.558660  0.515390  1.316418
    Zn  Zn4   0.543270  0.552410  0.521630  1.326503
    O   O1    0.500000  0.500000  0.500000  -1.578889
    O   O2    0.603570  0.322030  0.480020  -0.585622
    O   O3    0.438750  0.530620  0.414950  -0.532238
    O   O4    0.342010  0.507230  0.547190  -0.561860
    O   O5    0.594380  0.381050  0.421000  -0.554180
    O   O6    0.460040  0.393790  0.551780  -0.589378
    O   O7    0.329900  0.585050  0.469370  -0.594312
    O   O8    0.342010  0.650760  0.547190  -0.609684
    O   O9    0.615670  0.496590  0.557840  -0.586117
    O   O10   0.460040  0.646170  0.551780  -0.594978
    O   O11   0.615670  0.387740  0.557840  -0.536882
    O   O12   0.594380  0.524570  0.421000  -0.586486
    O   O13   0.603570  0.574410  0.480020  -0.610585
    C   C1    0.618330  0.322510  0.440840  0.379978
    C   C2    0.361710  0.569150  0.430850  0.356024
    C   C3    0.381670  0.440840  0.559160  0.412322
    C   C4    0.381670  0.677490  0.559160  0.460372
    C   C5    0.638290  0.430860  0.569150  0.374431
    C   C6    0.618330  0.559160  0.440840  0.432934
    Zn  Zn5   0.956730  0.345670  0.728370  1.331096
    Zn  Zn6   0.117310  0.191350  0.734610  1.320971
    Zn  Zn7   0.969220  0.265390  0.808650  1.320807
    Zn  Zn8   0.956730  0.197590  0.728370  1.308555
    O   O14   -0.000000  0.250000  0.750000  -1.587890
    O   O15   0.039960  0.356210  0.698220  -0.613541
    O   O16   0.170100  0.164950  0.780620  -0.523775
    O   O17   0.905620  0.368950  0.828990  -0.583392
    O   O18   0.157990  0.242770  0.702810  -0.588360
    O   O19   0.896440  0.427970  0.769980  -0.609756
    O   O20   0.061250  0.219380  0.835050  -0.600679
    O   O21   0.905620  0.225430  0.828990  -0.605173
    O   O22   0.884330  0.253410  0.692160  -0.582433
    O   O23   0.896430  0.175600  0.769980  -0.563474
    O   O24   0.884330  0.362260  0.692160  -0.601606
    O   O25   0.157990  0.099240  0.702810  -0.596605
    O   O26   0.039960  0.103830  0.698220  -0.575429
    C   C7    0.118330  0.309160  0.690840  0.428751
    C   C8    0.138290  0.180850  0.819140  0.364141
    C   C9    0.881670  0.427490  0.809160  0.465678
    C   C10   0.881670  0.190840  0.809160  0.441339
    C   C11   0.861710  0.319150  0.680850  0.462663
    C   C12   0.118330  0.072510  0.690840  0.405974
    Zn  Zn9   0.969230  0.765390  0.308650  1.314808
    Zn  Zn10  0.956730  0.697590  0.228370  1.308874
    Zn  Zn11  0.956740  0.845680  0.228370  1.332976
    Zn  Zn12  0.117310  0.691350  0.234610  1.326455
    O   O27   0.000000  0.750000  0.250000  -1.588340
    O   O28   0.905620  0.725430  0.328990  -0.559950
    O   O29   0.884330  0.753410  0.192160  -0.543338
    O   O30   0.896440  0.927970  0.269980  -0.610112
    O   O31   0.896430  0.675600  0.269980  -0.572162
    O   O32   0.905620  0.868960  0.328990  -0.602588
    O   O33   0.884330  0.862260  0.192160  -0.589823
    O   O34   0.039960  0.856210  0.198220  -0.620219
    O   O35   0.170100  0.664950  0.280620  -0.569366
    O   O36   0.157990  0.742770  0.202810  -0.598074
    O   O37   0.061250  0.719380  0.335050  -0.598968
    O   O38   0.039960  0.603840  0.198220  -0.572759
    O   O39   0.157990  0.599240  0.202810  -0.603888
    C   C13   0.881670  0.690840  0.309160  0.401863
    C   C14   0.861710  0.819150  0.180850  0.365609
    C   C15   0.881670  0.927490  0.309160  0.473463
    C   C16   0.118330  0.809170  0.190840  0.454182
    C   C17   0.138290  0.680860  0.319140  0.449160
    C   C18   0.118330  0.572510  0.190840  0.416062
    Zn  Zn13  0.382690  0.058650  0.015390  1.309831
    Zn  Zn14  0.543270  0.052410  0.021630  1.311476
    Zn  Zn15  0.543270  0.904330  0.021630  1.319202
    Zn  Zn16  0.530780  0.984610  0.941340  1.310312
    O   O40   0.500000  0.000000  0.000000  -1.572076
    O   O41   0.342010  0.150760  0.047190  -0.599198
    O   O42   0.615670  0.996590  0.057840  -0.600603
    O   O43   0.460040  0.893790  0.051780  -0.598351
    O   O44   0.460040  0.146170  0.051780  -0.568419
    O   O45   0.342010  0.007230  0.047190  -0.569855
    O   O46   0.615670  0.887740  0.057840  -0.583319
    O   O47   0.603570  0.822030  0.980020  -0.605420
    O   O48   0.438750  0.030620  0.914950  -0.568133
    O   O49   0.594380  0.881050  0.921000  -0.581970
    O   O50   0.329900  0.085050  0.969370  -0.602573
    O   O51   0.603570  0.074400  0.980020  -0.580361
    O   O52   0.594380  0.024570  0.921000  -0.601575
    C   C19   0.381670  0.177490  0.059160  0.437055
    C   C20   0.638290  0.930860  0.069140  0.456672
    C   C21   0.381670  0.940840  0.059160  0.435557
    C   C22   0.618330  0.822510  0.940840  0.430456
    C   C23   0.361710  0.069140  0.930850  0.450018
    C   C24   0.618330  0.059160  0.940840  0.429235
    C   C25   0.806350  0.346820  0.653180  0.198960
    C   C26   0.693650  0.403180  0.596820  0.354116
    C   C27   0.778130  0.410270  0.639060  -0.018875
    C   C28   0.721870  0.339740  0.610940  -0.130173
    C   C29   0.721870  0.438390  0.610940  -0.144863
    C   C30   0.778130  0.311610  0.639060  -0.200135
    C   C31   0.776930  0.481020  0.638460  -0.065609
    C   C32   0.723070  0.507950  0.611530  0.031041
    H   H1    0.795780  0.256720  0.647860  0.124628
    H   H2    0.836930  0.471650  0.627490  0.055038
    H   H3    0.755270  0.512100  0.668580  0.052265
    H   H4    0.663070  0.558580  0.622510  0.047637
    H   H5    0.744740  0.517360  0.581420  0.030128
    C   C33   0.193650  0.653180  0.346820  0.210661
    C   C34   0.306350  0.596820  0.403180  0.389704
    C   C35   0.172550  0.663730  0.385600  -0.044936
    C   C36   0.327460  0.586270  0.364400  -0.163846
    C   C37   0.228800  0.635600  0.413730  -0.140793
    C   C38   0.271200  0.614400  0.336270  -0.184003
    C   C39   0.103590  0.698210  0.421270  0.012896
    C   C40   0.157450  0.671280  0.448200  -0.070128
    H   H6    0.299630  0.600160  0.304430  0.116235
    H   H7    0.063930  0.677060  0.422080  0.047192
    H   H8    0.064050  0.758920  0.421760  0.037366
    H   H9    0.155850  0.713050  0.468030  0.068317
    H   H10   0.156480  0.630810  0.467970  0.066186
    C   C41   0.147460  0.396160  0.649550  -0.425367
    C   C42   0.249500  0.273990  0.662410  -0.268607
    C   C43   0.312640  0.278790  0.640720  -0.192201
    C   C44   0.291220  0.345540  0.622850  0.183096
    C   C45   0.352540  0.353840  0.600440  -0.412174
    C   C46   0.250500  0.476020  0.587580  -0.163492
    C   C47   0.187360  0.471210  0.609280  -0.266756
    C   C48   0.208780  0.404460  0.627140  0.199227
    C   C49   0.167220  0.333610  0.666390  0.335283
    C   C50   0.332780  0.416390  0.583610  0.299175
    H   H11   0.084130  0.441930  0.652650  0.231292
    H   H12   0.263570  0.223930  0.676430  0.229874
    H   H13   0.415870  0.308080  0.597350  0.237305
    H   H14   0.236450  0.526070  0.573560  0.171364
    C   C51   0.799110  0.630560  0.323730  -0.414075
    C   C52   0.824830  0.688850  0.374750  -0.174364
    C   C53   0.781440  0.674180  0.406320  -0.233043
    C   C54   0.745710  0.635990  0.395610  0.172761
    C   C55   0.700890  0.619450  0.426270  -0.395827
    C   C56   0.675170  0.561150  0.375250  -0.271160
    C   C57   0.718560  0.575830  0.343680  -0.173244
    C   C58   0.754290  0.614010  0.354390  0.186201
    C   C59   0.832780  0.666390  0.333610  0.295224
    C   C60   0.667220  0.583610  0.416390  0.321572
    H   H15   0.805310  0.613360  0.292070  0.238526
    H   H16   0.852870  0.717860  0.381780  0.179923
    H   H17   0.694690  0.636640  0.457930  0.219475
    H   H18   0.647120  0.532150  0.368220  0.224874
    C   C61   0.799110  0.070330  0.323730  -0.342151
    C   C62   0.824830  0.986320  0.374750  -0.189956
    C   C63   0.781430  0.044390  0.406320  -0.241661
    C   C64   0.745710  0.118300  0.395610  0.227869
    C   C65   0.700890  0.179670  0.426270  -0.453447
    C   C66   0.675170  0.263680  0.375250  -0.261324
    C   C67   0.718560  0.205610  0.343680  -0.180739
    C   C68   0.754290  0.131700  0.354390  0.129160
    C   C69   0.832780  0.000830  0.333610  0.249967
    C   C70   0.667220  0.249170  0.416390  0.362193
    H   H19   0.805330  0.081340  0.292070  0.201862
    H   H20   0.852880  0.929270  0.381780  0.197218
    H   H21   0.694670  0.168670  0.457930  0.243714
    H   H22   0.647120  0.320730  0.368220  0.217663
    C   C71   0.246600  0.952520  0.653410  -0.438074
    C   C72   0.111570  0.981880  0.657050  -0.205287
    C   C73   0.138070  0.915360  0.633930  -0.217335
    C   C74   0.222690  0.865900  0.620190  0.162448
    C   C75   0.253400  0.797480  0.596590  -0.368946
    C   C76   0.388430  0.768120  0.592950  -0.178236
    C   C77   0.361930  0.834640  0.616070  -0.239416
    C   C78   0.277310  0.884100  0.629810  0.209266
    C   C79   0.167220  0.999170  0.666390  0.328716
    C   C80   0.332780  0.750830  0.583610  0.259396
    H   H23   0.289270  0.965960  0.660630  0.243444
    H   H24   0.047490  0.020910  0.668030  0.189581
    H   H25   0.210730  0.784040  0.589370  0.225942
    H   H26   0.452510  0.729080  0.581960  0.189413
    C   C81   0.306350  0.096820  0.903180  0.215049
    C   C82   0.193650  0.153180  0.846820  0.358303
    C   C83   0.228800  0.135600  0.913730  -0.040358
    C   C84   0.271200  0.114400  0.836270  -0.141120
    C   C85   0.172550  0.163730  0.885600  -0.121950
    C   C86   0.327460  0.086270  0.864400  -0.190335
    C   C87   0.157450  0.171270  0.948200  -0.070026
    C   C88   0.103590  0.198200  0.921270  -0.028742
    H   H27   0.391150  0.054450  0.850180  0.117245
    H   H28   0.155840  0.213050  0.968030  0.070097
    H   H29   0.156480  0.130810  0.967970  0.057122
    H   H30   0.063930  0.177060  0.922080  0.064402
    H   H31   0.064060  0.258920  0.921760  0.053622
    C   C89   0.700890  0.679670  0.926270  -0.403286
    C   C90   0.675170  0.763680  0.875250  -0.206583
    C   C91   0.718560  0.705610  0.843680  -0.228435
    C   C92   0.754290  0.631700  0.854390  0.156219
    C   C93   0.799110  0.570330  0.823730  -0.348381
    C   C94   0.824830  0.486320  0.874750  -0.166303
    C   C95   0.781440  0.544390  0.906320  -0.257866
    C   C96   0.745710  0.618300  0.895610  0.197225
    C   C97   0.667220  0.749170  0.916390  0.301778
    C   C98   0.832780  0.500830  0.833610  0.249775
    H   H32   0.694690  0.668660  0.957930  0.233162
    H   H33   0.647130  0.820730  0.868220  0.200043
    H   H34   0.805310  0.581340  0.792070  0.210813
    H   H35   0.852880  0.429270  0.881780  0.178590
    C   C99   0.693180  0.077590  0.876700  -0.386341
    C   C100  0.685900  0.119390  0.944210  -0.194855
    C   C101  0.732150  0.149530  0.930960  -0.240087
    C   C102  0.759620  0.142950  0.888650  0.192497
    C   C103  0.806820  0.172410  0.873300  -0.388463
    C   C104  0.814100  0.130610  0.805780  -0.200428
    C   C105  0.767860  0.100470  0.819030  -0.209790
    C   C106  0.740380  0.107050  0.861340  0.161633
    C   C107  0.667220  0.083610  0.916390  0.294483
    C   C108  0.832780  0.166390  0.833610  0.277528
    H   H36   0.678740  0.050030  0.855360  0.225404
    H   H37   0.663940  0.123370  0.976250  0.187528
    H   H38   0.821260  0.199970  0.894630  0.228896
    H   H39   0.836070  0.126630  0.773750  0.192022
    C   C109  0.693650  0.903180  0.096820  0.224289
    C   C110  0.806350  0.846820  0.153180  0.365767
    C   C111  0.721870  0.938390  0.110940  -0.070433
    C   C112  0.778130  0.811610  0.139060  -0.144920
    C   C113  0.778130  0.910270  0.139060  -0.114297
    C   C114  0.721870  0.839740  0.110940  -0.198513
    C   C115  0.723070  0.007940  0.111530  0.028407
    C   C116  0.776930  0.981020  0.138460  -0.068777
    H   H40   0.704220  0.802500  0.102130  0.117330
    H   H41   0.663070  0.058580  0.122510  0.049535
    H   H42   0.744730  0.017370  0.081420  0.031981
    H   H43   0.836930  0.971650  0.127490  0.062116
    H   H44   0.755260  0.012100  0.168580  0.060307
    C   C117  0.253400  0.297480  0.096590  -0.377114
    C   C118  0.388430  0.268120  0.092950  -0.179885
    C   C119  0.361930  0.334640  0.116070  -0.232762
    C   C120  0.277310  0.384100  0.129810  0.185247
    C   C121  0.246600  0.452520  0.153410  -0.400467
    C   C122  0.111570  0.481880  0.157050  -0.249749
    C   C123  0.138070  0.415360  0.133930  -0.201073
    C   C124  0.222690  0.365900  0.120190  0.171600
    C   C125  0.332780  0.250830  0.083610  0.272165
    C   C126  0.167220  0.499170  0.166390  0.331194
    H   H45   0.210730  0.284050  0.089350  0.225385
    H   H46   0.452510  0.229090  0.081960  0.182414
    H   H47   0.289270  0.465950  0.160650  0.224819
    H   H48   0.047500  0.520910  0.168040  0.208837
    C   C127  0.352540  0.853840  0.100440  -0.379903
    C   C128  0.250500  0.976020  0.087590  -0.169566
    C   C129  0.187360  0.971210  0.109280  -0.258921
    C   C130  0.208780  0.904460  0.127150  0.192169
    C   C131  0.147460  0.896160  0.149550  -0.404151
    C   C132  0.249500  0.773990  0.162410  -0.191912
    C   C133  0.312640  0.778790  0.140720  -0.245546
    C   C134  0.291220  0.845550  0.122850  0.181870
    C   C135  0.332780  0.916390  0.083610  0.278958
    C   C136  0.167220  0.833610  0.166390  0.288667
    H   H49   0.415870  0.808070  0.097330  0.219262
    H   H50   0.236430  0.026070  0.073560  0.174839
    H   H51   0.084140  0.941940  0.152670  0.235724
    H   H52   0.263550  0.723940  0.176440  0.199305
    Cl  Cl1   0.693310  0.279430  0.596670  -0.049549
    Cl  Cl2   0.430590  0.534720  0.341380  -0.031881
    Cl  Cl3   0.317230  0.091370  0.784700  -0.042017
    Cl  Cl4   0.806690  0.722740  0.153330  -0.042176
    C   C137  0.099120  0.534460  0.613800  0.746041
    O   O53   0.042090  0.519370  0.617240  -0.485288
    O   O54   0.081030  0.599190  0.613210  -0.491965
    H   H53   0.067650  0.464980  0.621940  0.293661
    C   C138  0.400880  0.215540  0.636190  0.675526
    O   O55   0.453300  0.205630  0.603170  -0.448427
    O   O56   0.422990  0.172620  0.662620  -0.466596
    H   H54   0.426080  0.250980  0.587750  0.275240
    C   C139  0.727600  0.552180  0.299560  0.649202
    O   O57   0.734470  0.592350  0.271050  -0.443530
    O   O58   0.726420  0.497090  0.290510  -0.449946
    H   H55   0.743890  0.629250  0.283830  0.276760
    C   C140  0.772390  0.697830  0.450440  0.709243
    O   O59   0.706350  0.714540  0.476650  -0.463761
    O   O60   0.825240  0.703270  0.461490  -0.481543
    H   H56   0.675510  0.698230  0.463040  0.285642
    C   C141  0.727610  0.220220  0.299560  0.694847
    O   O61   0.793650  0.170880  0.273350  -0.471745
    O   O62   0.674760  0.278500  0.288500  -0.467891
    H   H57   0.824490  0.123730  0.286960  0.292037
    C   C142  0.772410  0.029780  0.450440  0.701331
    O   O63   0.765540  0.076810  0.478950  -0.458858
    O   O64   0.773590  0.973500  0.459480  -0.478258
    H   H58   0.756130  0.123130  0.466170  0.279953
    C   C143  0.420660  0.853920  0.626310  0.695544
    O   O65   0.397530  0.924710  0.631060  -0.445988
    O   O66   0.490000  0.803880  0.629120  -0.480829
    H   H59   0.336770  0.956900  0.632410  0.275685
    C   C144  0.079340  0.896100  0.623690  0.689234
    O   O67   0.097860  0.854890  0.589350  -0.461807
    O   O68   0.014010  0.920310  0.646710  -0.463810
    H   H60   0.156950  0.833410  0.577280  0.280762
    C   C145  0.772400  0.529780  0.950440  0.742503
    O   O69   0.765530  0.576820  0.978950  -0.481314
    O   O70   0.773580  0.473510  0.959490  -0.493174
    H   H61   0.756110  0.623140  0.966170  0.284754
    C   C146  0.727610  0.720220  0.799560  0.735577
    O   O71   0.793660  0.670890  0.773350  -0.477163
    O   O72   0.674760  0.778510  0.788500  -0.490580
    H   H62   0.824490  0.623740  0.786960  0.285036
    C   C147  0.747390  0.062070  0.789670  0.700321
    O   O73   0.737880  0.007580  0.801230  -0.455160
    O   O74   0.741770  0.080240  0.755000  -0.475933
    H   H63   0.735180  0.007130  0.831610  0.279207
    C   C148  0.752620  0.187920  0.960330  0.714253
    O   O75   0.821310  0.185530  0.951070  -0.476974
    O   O76   0.706580  0.219400  0.992990  -0.473962
    H   H64   0.845430  0.165400  0.921520  0.286799
    C   C149  0.079340  0.396090  0.123690  0.691730
    O   O77   0.097870  0.354880  0.089350  -0.466529
    O   O78   0.014020  0.420300  0.146710  -0.467101
    H   H65   0.156960  0.333400  0.077290  0.279509
    C   C150  0.420660  0.353910  0.126300  0.704505
    O   O79   0.397540  0.424710  0.131050  -0.451140
    O   O80   0.490000  0.303870  0.129110  -0.478562
    H   H66   0.336780  0.456900  0.132400  0.275918
    C   C151  0.400880  0.715540  0.136200  0.729007
    O   O81   0.453310  0.705650  0.103170  -0.469093
    O   O82   0.422990  0.672620  0.162620  -0.486768
    H   H67   0.426080  0.750990  0.087760  0.280753
    C   C152  0.099120  0.034460  0.113800  0.737299
    O   O83   0.042090  0.019370  0.117230  -0.480348
    O   O84   0.081030  0.099190  0.113200  -0.488538
    H   H68   0.067650  0.964990  0.121940  0.285763
