# Generated by REPEAT Assigner based on pymatgen
data_DB1-Cu2O8N2-ADC_A-BDC_A_No850
_audit_creation_date              2022-05-24
_audit_creation_method            REPEAT_Assigner
_cell_length_a                    15.849400
_cell_length_b                    17.521800
_cell_length_c                    10.700300
_cell_angle_alpha                 89.921800
_cell_angle_beta                  87.674800
_cell_angle_gamma                 95.290000
_cell_volume                      2956.448790
_symmetry_space_group_name_H-M    P1
_symmetry_Int_Tables_number       1
loop_
    _symmetry_equiv_pos_site_id
    _symmetry_equiv_pos_as_xyz
    1  x,y,z
loop_
    _atom_site_type_symbol
    _atom_site_label
    _atom_site_fract_x
    _atom_site_fract_y
    _atom_site_fract_z
    _atom_type_partial_charge
    Cu  Cu1  0.419400  0.497030  0.504850  0.994883
    Cu  Cu2  0.580600  0.502960  0.495160  0.989803
    O   O1   0.424830  0.497290  0.667020  -0.533229
    O   O2   0.424850  0.497400  0.341700  -0.528082
    O   O3   0.430560  0.597020  0.503870  -0.608821
    O   O4   0.419120  0.397670  0.504850  -0.611706
    O   O5   0.569430  0.402970  0.496100  -0.611152
    O   O6   0.580870  0.602320  0.495210  -0.612258
    O   O7   0.575170  0.502810  0.332860  -0.524389
    O   O8   0.575140  0.502560  0.658320  -0.514665
    C   C1   0.499990  0.499940  0.734390  0.733945
    C   C2   0.500010  0.500050  0.265620  0.729375
    C   C3   0.508240  0.643630  0.499410  0.510650
    C   C4   0.491760  0.356360  0.500610  0.509237
    N   N1   0.299620  0.492630  0.512050  -0.168957
    C   C5   0.256760  0.539950  0.434660  0.142942
    C   C6   0.168050  0.536760  0.439880  -0.355661
    C   C7   0.119570  0.485930  0.523020  0.243764
    C   C8   0.162570  0.438730  0.600200  -0.244472
    C   C9   0.251200  0.441960  0.594930  0.102237
    C   C10  0.024950  0.479420  0.533660  0.158911
    C   C11  0.975050  0.520580  0.466340  0.170071
    C   C12  0.837420  0.561260  0.399810  -0.234356
    C   C13  0.880430  0.514070  0.476980  0.227052
    C   C14  0.831960  0.463240  0.560130  -0.346047
    C   C15  0.743240  0.460040  0.565350  0.153183
    N   N2   0.700380  0.507360  0.487960  -0.176078
    C   C16  0.748790  0.558040  0.405080  0.103788
    H   H1   0.292410  0.579480  0.370010  0.088039
    H   H2   0.138850  0.574380  0.378350  0.185410
    H   H3   0.127410  0.399040  0.665120  0.122319
    H   H4   0.282380  0.404860  0.655600  0.104717
    H   H5   0.872580  0.600960  0.334880  0.111792
    H   H6   0.861150  0.425610  0.621660  0.161023
    H   H7   0.707590  0.420510  0.630010  0.093277
    H   H8   0.717610  0.595130  0.344410  0.106962
    C   C17  0.486850  0.270840  0.500860  0.015605
    C   C18  0.561060  0.232340  0.496570  -0.071472
    C   C19  0.556560  0.152120  0.496800  -0.272960
    C   C20  0.477360  0.108020  0.501350  0.209215
    C   C21  0.403350  0.146640  0.505630  -0.170278
    C   C22  0.407900  0.226790  0.505400  -0.102165
    C   C23  0.467710  0.022450  0.501880  0.150791
    C   C24  0.532320  0.977550  0.498140  0.164180
    C   C25  0.596670  0.853340  0.494390  -0.166063
    C   C26  0.522670  0.891970  0.498670  0.204854
    C   C27  0.443460  0.847870  0.503220  -0.277782
    C   C28  0.438950  0.767650  0.503450  -0.065336
    C   C29  0.513160  0.729150  0.499160  0.012339
    C   C30  0.592110  0.773200  0.494620  -0.100964
    H   H9   0.622660  0.264790  0.493030  0.102362
    H   H10  0.615530  0.125930  0.493390  0.171144
    H   H11  0.341490  0.114640  0.509190  0.112040
    H   H12  0.349740  0.254780  0.508760  0.112979
    H   H13  0.658540  0.885340  0.490830  0.109875
    H   H14  0.384490  0.874060  0.506620  0.174147
    H   H15  0.377350  0.735210  0.506990  0.098325
    H   H16  0.650270  0.745200  0.491260  0.112641
    C   C31  0.500000  0.499970  0.869110  -0.489193
    C   C32  0.500010  0.500020  0.130910  -0.474180
    C   C33  0.575950  0.502650  0.930440  0.310728
    C   C34  0.424050  0.497340  0.069580  0.292573
    C   C35  0.575960  0.502670  0.060430  0.289170
    C   C36  0.424050  0.497320  0.939580  0.306117
    H   H17  0.008780  0.364340  0.635200  0.359044
    H   H18  0.931040  0.436470  0.690570  0.357056
    N   N3   0.984700  0.421640  0.628150  -0.855704
    H   H19  0.988160  0.582560  0.278320  0.375764
    H   H20  0.072000  0.616650  0.395890  0.326657
    N   N4   0.015290  0.578360  0.371840  -0.854771
    H   H21  0.329330  0.008660  0.571170  0.361835
    H   H22  0.359650  0.935850  0.446760  0.333629
    N   N5   0.377600  0.985750  0.507060  -0.859748
    H   H23  0.670550  0.991190  0.551490  0.368031
    H   H24  0.640540  0.064270  0.430620  0.340526
    N   N6   0.622430  0.014240  0.492960  -0.876167
    O   O9   0.658760  0.505540  0.854900  -0.542297
    H   H25  0.645910  0.505070  0.753690  0.327885
    O   O10  0.341240  0.494450  0.145110  -0.539828
    H   H26  0.354090  0.494930  0.246320  0.345160
    O   O11  0.658770  0.505590  0.125990  -0.535817
    H   H27  0.645930  0.505160  0.228740  0.335030
    O   O12  0.341230  0.494400  0.874030  -0.539112
    H   H28  0.354070  0.494830  0.771270  0.340628
