# Generated by REPEAT Assigner based on pymatgen
data_DB1-Cu2O8-irmof16_A-mofHTB_No51
_audit_creation_date              2022-05-24
_audit_creation_method            REPEAT_Assigner
_cell_length_a                    38.866300
_cell_length_b                    38.866300
_cell_length_c                    39.013000
_cell_angle_alpha                 59.874500
_cell_angle_beta                  59.778300
_cell_angle_gamma                 59.033100
_cell_volume                      41251.301303
_symmetry_space_group_name_H-M    P1
_symmetry_Int_Tables_number       1
loop_
    _symmetry_equiv_pos_site_id
    _symmetry_equiv_pos_as_xyz
    1  x,y,z
loop_
    _atom_site_type_symbol
    _atom_site_label
    _atom_site_fract_x
    _atom_site_fract_y
    _atom_site_fract_z
    _atom_type_partial_charge
    C   C1    0.467830  0.467870  0.577610  0.324857
    C   C2    0.555040  0.872470  0.517230  0.290169
    C   C3    0.597180  0.848780  0.517770  -0.167015
    C   C4    0.680580  0.677820  0.521070  0.902605
    C   C5    0.532170  0.532130  0.422400  0.325679
    C   C6    0.618170  0.677530  0.520910  0.890523
    C   C7    0.616870  0.739670  0.520870  0.744949
    C   C8    0.743640  0.616520  0.520600  0.748019
    C   C9    0.682450  0.614340  0.520740  0.885729
    C   C10   0.621030  0.614240  0.520340  0.700020
    C   C11   0.467920  0.467880  0.486670  0.359059
    C   C12   0.194050  0.383140  0.480740  0.044476
    C   C13   0.214840  0.404800  0.479720  -0.170204
    C   C14   0.385510  0.444220  0.481160  0.059038
    C   C15   0.407250  0.402050  0.480360  -0.159968
    C   C16   0.405670  0.210550  0.480100  -0.170750
    C   C17   0.447710  0.187250  0.480690  0.103080
    C   C18   0.449490  0.382430  0.480570  0.056956
    C   C19   0.468930  0.403830  0.481960  -0.128720
    C   C20   0.447100  0.445890  0.483220  0.236679
    C   C21   0.532080  0.532120  0.513340  0.357764
    C   C22   0.404960  0.465680  0.482560  -0.126878
    C   C23   0.467780  0.144420  0.482140  -0.202736
    C   C24   0.446580  0.123040  0.483130  0.289851
    C   C25   0.404650  0.146600  0.482060  -0.165460
    C   C26   0.384660  0.189400  0.480560  0.036332
    C   C27   0.191380  0.447050  0.479700  0.099707
    C   C28   0.148690  0.466680  0.481180  -0.200645
    C   C29   0.127580  0.444910  0.482790  0.289065
    C   C30   0.151270  0.402770  0.482250  -0.167966
    C   C31   0.322230  0.319350  0.478960  0.904338
    C   C32   0.322520  0.381770  0.479110  0.890802
    C   C33   0.260380  0.383060  0.479150  0.746064
    C   C34   0.383520  0.256290  0.479440  0.747258
    C   C35   0.385710  0.317480  0.479290  0.886838
    C   C36   0.385810  0.378900  0.479680  0.701451
    C   C37   0.383050  0.193900  0.942320  0.091735
    C   C38   0.404730  0.214710  0.900860  -0.186616
    C   C39   0.444150  0.385430  0.689240  0.095738
    C   C40   0.401920  0.407100  0.710540  -0.193450
    C   C41   0.210180  0.405240  0.904190  -0.197713
    C   C42   0.186840  0.447240  0.884900  0.103165
    C   C43   0.382260  0.449300  0.687750  0.094903
    C   C44   0.403690  0.468770  0.645480  -0.207630
    C   C45   0.445810  0.447020  0.623910  0.340166
    C   C46   0.465630  0.404900  0.646900  -0.207439
    C   C47   0.143950  0.467250  0.906280  -0.218095
    C   C48   0.122550  0.446020  0.947890  0.359454
    C   C49   0.146150  0.404130  0.967300  -0.214864
    C   C50   0.189010  0.384200  0.945940  0.095879
    C   C51   0.447040  0.191320  0.882010  0.090663
    C   C52   0.466710  0.148660  0.903570  -0.197519
    C   C53   0.444920  0.127520  0.944880  0.318164
    C   C54   0.402710  0.151140  0.963950  -0.197397
    C   C55   0.319140  0.321970  0.879810  0.835263
    C   C56   0.381640  0.322350  0.816850  0.838498
    C   C57   0.382950  0.260220  0.877650  0.692231
    C   C58   0.255980  0.383160  0.881200  0.697814
    C   C59   0.317250  0.385440  0.817860  0.839150
    C   C60   0.378750  0.385630  0.755850  0.697406
    C   C61   0.806560  0.617260  0.057530  0.092491
    C   C62   0.785740  0.595570  0.098960  -0.189667
    C   C63   0.614750  0.555910  0.310710  0.094946
    C   C64   0.593000  0.598050  0.289510  -0.193864
    C   C65   0.594670  0.789590  0.096200  -0.194236
    C   C66   0.552570  0.812830  0.115580  0.101242
    C   C67   0.550710  0.617620  0.312390  0.095274
    C   C68   0.531220  0.596190  0.354640  -0.207995
    C   C69   0.553050  0.554150  0.376110  0.338942
    C   C70   0.595260  0.534420  0.353030  -0.205308
    C   C71   0.532480  0.855640  0.094300  -0.215223
    C   C72   0.553720  0.877060  0.052700  0.350539
    C   C73   0.595710  0.853540  0.033210  -0.211304
    C   C74   0.615730  0.810770  0.054470  0.093605
    C   C75   0.809210  0.553340  0.117710  0.092494
    C   C76   0.851960  0.533770  0.096070  -0.207949
    C   C77   0.873110  0.555570  0.054780  0.348247
    C   C78   0.849400  0.597690  0.035810  -0.207042
    C   C79   0.678200  0.680880  0.120290  0.832936
    C   C80   0.677890  0.618450  0.183140  0.834089
    C   C81   0.740130  0.617240  0.122260  0.693264
    C   C82   0.616840  0.743870  0.119090  0.695486
    C   C83   0.614620  0.682660  0.182310  0.836807
    C   C84   0.614490  0.621230  0.244220  0.697861
    C   C85   0.983990  0.380580  0.942120  0.068707
    C   C86   0.982730  0.402360  0.900670  -0.174562
    C   C87   0.983830  0.442840  0.689120  0.101472
    C   C88   0.983490  0.400880  0.710410  -0.164786
    C   C89   0.985310  0.209640  0.904030  -0.166277
    C   C90   0.986170  0.186650  0.884750  0.047388
    C   C91   0.983930  0.381570  0.687630  0.037872
    C   C92   0.985110  0.403050  0.645370  -0.168404
    C   C93   0.989170  0.466960  0.577510  0.393416
    C   C94   0.985920  0.444890  0.623800  0.292331
    C   C95   0.985020  0.464380  0.646790  -0.204760
    C   C96   0.988100  0.144000  0.906120  -0.171089
    C   C97   0.989330  0.122490  0.947730  0.293250
    C   C98   0.987980  0.145760  0.967120  -0.201355
    C   C99   0.985990  0.188380  0.945760  0.092815
    C   C100  0.982240  0.444400  0.881820  0.065991
    C   C101  0.983510  0.463690  0.903370  -0.128535
    C   C102  0.985350  0.441800  0.944670  0.221863
    C   C103  0.985280  0.399870  0.963730  -0.125049
    C   C104  0.015420  0.531250  0.422320  0.395422
    C   C105  0.982930  0.317750  0.879640  0.895472
    C   C106  0.982410  0.380080  0.816690  0.888452
    C   C107  0.080930  0.465930  0.486520  0.391875
    C   C108  0.982410  0.380960  0.877480  0.709587
    C   C109  0.984130  0.255180  0.881030  0.741173
    C   C110  0.983320  0.316300  0.817710  0.901718
    C   C111  0.983040  0.377640  0.755710  0.742115
    C   C112  0.018150  0.805420  0.057530  0.094772
    C   C113  0.923650  0.532280  0.513310  0.396434
    C   C114  0.019440  0.784490  0.098960  -0.167190
    C   C115  0.020000  0.613710  0.310650  0.045901
    C   C116  0.021020  0.592290  0.289470  -0.172023
    C   C117  0.021100  0.595290  0.096220  -0.143850
    C   C118  0.020980  0.553470  0.115600  0.047095
    C   C119  0.021280  0.550250  0.312340  0.097211
    C   C120  0.020120  0.530680  0.354580  -0.197079
    C   C121  0.018630  0.552180  0.376050  0.287666
    C   C122  0.018830  0.594130  0.352970  -0.169026
    C   C123  0.019710  0.533750  0.094340  -0.094578
    C   C124  0.018440  0.555090  0.052750  0.148745
    C   C125  0.019060  0.596800  0.033250  -0.082699
    C   C126  0.020380  0.616440  0.054500  0.040549
    C   C127  0.019230  0.807610  0.117690  0.042118
    C   C128  0.017250  0.850130  0.096050  -0.153471
    C   C129  0.015370  0.871390  0.054770  0.233169
    C   C130  0.016160  0.848030  0.035820  -0.172927
    C   C131  0.021380  0.677830  0.120290  0.886099
    C   C132  0.021280  0.677080  0.183120  0.900991
    C   C133  0.020530  0.739150  0.122250  0.740395
    C   C134  0.021550  0.617070  0.119100  0.698859
    C   C135  0.021780  0.614430  0.182300  0.890902
    C   C136  0.021440  0.613880  0.244180  0.747884
    C   C137  0.192590  0.982420  0.942430  0.092384
    C   C138  0.213730  0.981060  0.900980  -0.150438
    C   C139  0.385420  0.980320  0.689360  0.046107
    C   C140  0.406640  0.979430  0.710620  -0.172152
    C   C141  0.402410  0.979960  0.904180  -0.152775
    C   C142  0.444240  0.980140  0.884870  0.054887
    C   C143  0.448720  0.979220  0.687820  0.096718
    C   C144  0.468510  0.980300  0.645550  -0.197067
    C   C145  0.447200  0.981660  0.624010  0.284724
    C   C146  0.405210  0.981410  0.647020  -0.168088
    C   C147  0.463760  0.981530  0.906220  -0.108106
    C   C148  0.442200  0.982870  0.947830  0.173648
    C   C149  0.400490  0.982200  0.967250  -0.095455
    C   C150  0.381040  0.980750  0.945920  0.045502
    C   C151  0.190800  0.981140  0.882160  0.031611
    C   C152  0.148250  0.983070  0.903740  -0.174893
    C   C153  0.126770  0.985020  0.945040  0.327288
    C   C154  0.149940  0.984360  0.964080  -0.210331
    C   C155  0.320250  0.979360  0.879870  0.882051
    C   C156  0.321400  0.979250  0.816940  0.896942
    C   C157  0.259110  0.980030  0.877760  0.731391
    C   C158  0.380840  0.979370  0.881210  0.701611
    C   C159  0.383880  0.978950  0.817910  0.892357
    C   C160  0.384820  0.979090  0.755930  0.748136
    C   C161  0.622140  0.014160  0.057770  0.069900
    C   C162  0.600130  0.015570  0.099210  -0.183123
    C   C163  0.558240  0.015450  0.310860  0.102484
    C   C164  0.600240  0.015790  0.289650  -0.167495
    C   C165  0.792350  0.013530  0.096310  -0.177261
    C   C166  0.815140  0.012840  0.115660  0.054051
    C   C167  0.619340  0.015530  0.312500  0.040503
    C   C168  0.597620  0.014510  0.354750  -0.168803
    C   C169  0.555740  0.013680  0.376240  0.291736
    C   C170  0.536460  0.014410  0.353190  -0.204406
    C   C171  0.857840  0.010910  0.094370  -0.163130
    C   C172  0.879590  0.009530  0.052770  0.251314
    C   C173  0.856520  0.010710  0.033300  -0.180582
    C   C174  0.813860  0.012700  0.054580  0.094198
    C   C175  0.558060  0.016040  0.117970  0.071429
    C   C176  0.538980  0.014600  0.096360  -0.130021
    C   C177  0.561120  0.012600  0.055070  0.220147
    C   C178  0.603060  0.012700  0.036090  -0.120247
    C   C179  0.684350  0.015720  0.120460  0.900361
    C   C180  0.621740  0.016390  0.183320  0.890480
    C   C181  0.621300  0.016070  0.122470  0.715170
    C   C182  0.746770  0.014700  0.119210  0.748559
    C   C183  0.685350  0.015660  0.182450  0.904505
    C   C184  0.623740  0.016080  0.244360  0.743932
    C   C185  0.468360  0.984790  0.577720  0.398403
    C   C186  0.533420  0.010610  0.422520  0.395767
    C   C187  0.467740  0.076290  0.486740  0.393292
    C   C188  0.534040  0.919100  0.513490  0.391602
    C   C189  0.009840  0.532450  0.034510  0.422801
    C   C190  0.984250  0.467830  0.969720  0.373924
    C   C191  0.918360  0.533170  0.034290  0.322219
    C   C192  0.075740  0.467110  0.969940  0.293988
    C   C193  0.531480  0.015450  0.030960  0.366743
    C   C194  0.467030  0.989240  0.966550  0.407060
    C   C195  0.532530  0.923780  0.030760  0.303915
    C   C196  0.465980  0.080910  0.966750  0.345433
    C   C197  0.929470  0.011440  0.034380  0.396185
    C   C198  0.086300  0.983550  0.969480  0.378512
    C   C199  0.022280  0.919070  0.034090  0.415544
    C   C200  0.993490  0.075920  0.969770  0.390052
    C   C201  0.616800  0.805990  0.519280  0.044496
    C   C202  0.595140  0.785210  0.520300  -0.170162
    C   C203  0.555720  0.614540  0.518850  0.057895
    C   C204  0.597890  0.592800  0.519660  -0.159079
    C   C205  0.789380  0.594370  0.519940  -0.171671
    C   C206  0.812680  0.552330  0.519360  0.101779
    C   C207  0.617510  0.550560  0.519450  0.057609
    C   C208  0.596110  0.531120  0.518060  -0.130736
    C   C209  0.554060  0.552940  0.516790  0.238864
    C   C210  0.534270  0.595090  0.517450  -0.127206
    C   C211  0.855510  0.532260  0.517910  -0.200985
    C   C212  0.876900  0.553450  0.516920  0.286557
    C   C213  0.853330  0.595380  0.517990  -0.163689
    C   C214  0.810530  0.615380  0.519490  0.036957
    C   C215  0.552890  0.808670  0.520320  0.098920
    C   C216  0.533270  0.851360  0.518830  -0.201432
    Cl  Cl1   0.480710  0.879020  0.518090  0.009939
    Cl  Cl2   0.626160  0.873150  0.515650  0.001964
    Cl  Cl3   0.877860  0.623740  0.516630  0.000584
    Cl  Cl4   0.882970  0.479940  0.516480  0.011415
    Cl  Cl5   0.623000  0.478640  0.517120  -0.023809
    Cl  Cl6   0.482100  0.624410  0.515730  -0.018199
    Cl  Cl7   0.121030  0.519240  0.481910  0.010444
    Cl  Cl8   0.126890  0.373800  0.484370  0.002211
    Cl  Cl9   0.376290  0.122080  0.483420  0.001108
    Cl  Cl10  0.520090  0.116960  0.483570  0.012242
    Cl  Cl11  0.521410  0.376940  0.482900  -0.024353
    Cl  Cl12  0.375640  0.517860  0.484280  -0.018258
    Cl  Cl13  0.519350  0.121080  0.877860  -0.002279
    Cl  Cl14  0.373720  0.126730  0.015220  0.002836
    Cl  Cl15  0.121610  0.375740  0.018860  0.004856
    Cl  Cl16  0.116440  0.519510  0.880030  0.003160
    Cl  Cl17  0.376750  0.521220  0.618970  0.000664
    Cl  Cl18  0.517890  0.375660  0.622240  0.004754
    Cl  Cl19  0.879640  0.481240  0.121660  -0.002530
    Cl  Cl20  0.873830  0.626700  0.984570  0.004007
    Cl  Cl21  0.624120  0.878110  0.981660  0.004102
    Cl  Cl22  0.480090  0.883030  0.120660  0.002683
    Cl  Cl23  0.478650  0.623010  0.381250  0.000878
    Cl  Cl24  0.624600  0.482270  0.377570  0.004208
    Cl  Cl25  0.983660  0.515990  0.877660  -0.025413
    Cl  Cl26  0.987720  0.370760  0.014990  -0.017873
    Cl  Cl27  0.989600  0.121070  0.018670  0.014799
    Cl  Cl28  0.989870  0.116910  0.879880  -0.000958
    Cl  Cl29  0.986370  0.376540  0.618880  -0.001177
    Cl  Cl30  0.986170  0.516280  0.622120  0.016289
    Cl  Cl31  0.016240  0.877380  0.121630  -0.011197
    Cl  Cl32  0.013710  0.872620  0.984590  0.014155
    Cl  Cl33  0.017340  0.625320  0.981720  -0.022390
    Cl  Cl34  0.018850  0.481700  0.120700  -0.027890
    Cl  Cl35  0.019760  0.478460  0.381200  0.009992
    Cl  Cl36  0.016800  0.623050  0.377500  0.002597
    Cl  Cl37  0.121230  0.983920  0.878060  0.000340
    Cl  Cl38  0.125080  0.986910  0.015340  0.012308
    Cl  Cl39  0.371700  0.984000  0.018810  -0.021045
    Cl  Cl40  0.515830  0.982460  0.879940  -0.028082
    Cl  Cl41  0.520760  0.980730  0.619030  0.010139
    Cl  Cl42  0.376520  0.983280  0.622390  0.002101
    Cl  Cl43  0.486640  0.014430  0.121970  -0.027278
    Cl  Cl44  0.632470  0.010070  0.984850  -0.018394
    Cl  Cl45  0.881520  0.008890  0.981760  0.016945
    Cl  Cl46  0.884670  0.009360  0.120690  -0.010128
    Cl  Cl47  0.623870  0.013460  0.381330  -0.001172
    Cl  Cl48  0.484530  0.013230  0.377750  0.016565
    Cu  Cu1   0.466750  0.533210  0.500060  1.169260
    Cu  Cu2   0.533250  0.466790  0.499950  1.165773
    Cu  Cu3   0.002600  0.466170  0.499980  1.125931
    Cu  Cu4   0.001980  0.532030  0.499860  1.124781
    Cu  Cu5   0.533780  0.997370  0.500150  1.125839
    Cu  Cu6   0.468000  0.998020  0.500080  1.124570
    Cu  Cu7   0.996730  0.533070  0.969550  1.177109
    Cu  Cu8   0.997370  0.467210  0.034680  1.171640
    Cu  Cu9   0.466320  0.002620  0.031410  1.175494
    Cu  Cu10  0.532190  0.002070  0.966100  1.174250
    Cu  Cu11  0.007840  0.997400  0.969380  1.128180
    Cu  Cu12  0.007930  0.997590  0.034480  1.095282
    H   H1    0.649300  0.789000  0.519250  0.084632
    H   H2    0.539400  0.646980  0.518990  0.096062
    H   H3    0.797640  0.535170  0.519680  0.058930
    H   H4    0.649760  0.532570  0.520060  0.095513
    H   H5    0.793910  0.647720  0.519930  0.087540
    H   H6    0.535100  0.793960  0.521120  0.058623
    H   H7    0.211050  0.350640  0.480780  0.084790
    H   H8    0.353080  0.460540  0.481020  0.096109
    H   H9    0.464880  0.202290  0.480360  0.058213
    H   H10   0.467480  0.350170  0.479960  0.096445
    H   H11   0.352330  0.206020  0.480110  0.088082
    H   H12   0.206090  0.464840  0.478890  0.058093
    H   H13   0.350500  0.210840  0.957840  0.069081
    H   H14   0.460510  0.353020  0.705460  0.069401
    H   H15   0.201890  0.464430  0.853000  0.067679
    H   H16   0.349960  0.467250  0.702670  0.069179
    H   H17   0.205660  0.351890  0.962070  0.069060
    H   H18   0.464850  0.206050  0.850300  0.069183
    H   H19   0.789550  0.649740  0.042080  0.070267
    H   H20   0.647240  0.539620  0.294420  0.069214
    H   H21   0.535370  0.797770  0.147480  0.068177
    H   H22   0.532700  0.649850  0.297540  0.069039
    H   H23   0.648110  0.794190  0.038270  0.069441
    H   H24   0.794470  0.535530  0.149410  0.067930
    H   H25   0.984380  0.348240  0.957640  0.096835
    H   H26   0.983500  0.458930  0.705330  0.057415
    H   H27   0.985680  0.201790  0.852850  0.083283
    H   H28   0.983680  0.349480  0.702550  0.086472
    H   H29   0.985340  0.204770  0.961890  0.059152
    H   H30   0.981240  0.462260  0.850120  0.097888
    H   H31   0.018290  0.788690  0.042090  0.061218
    H   H32   0.019770  0.645990  0.294370  0.085204
    H   H33   0.021520  0.536200  0.147490  0.097789
    H   H34   0.022070  0.532510  0.297500  0.059488
    H   H35   0.020470  0.648610  0.038300  0.098289
    H   H36   0.020230  0.792780  0.149380  0.081693
    H   H37   0.209180  0.982380  0.957930  0.052241
    H   H38   0.353120  0.980500  0.705590  0.084781
    H   H39   0.461660  0.979550  0.852970  0.097580
    H   H40   0.466320  0.978520  0.702720  0.060185
    H   H41   0.348850  0.980620  0.962060  0.100828
    H   H42   0.205800  0.980090  0.850450  0.085094
    H   H43   0.654510  0.013770  0.042310  0.098203
    H   H44   0.542310  0.015640  0.294600  0.056694
    H   H45   0.799820  0.013440  0.147550  0.081895
    H   H46   0.651440  0.015800  0.297640  0.085493
    H   H47   0.797630  0.013210  0.038400  0.064282
    H   H48   0.540010  0.017150  0.149670  0.097546
    N   N1    0.660340  0.656480  0.521070  -0.560242
    N   N2    0.597080  0.720650  0.520850  -0.686541
    N   N3    0.660320  0.716860  0.520980  -0.745564
    N   N4    0.723500  0.655700  0.520870  -0.709604
    N   N5    0.721800  0.595260  0.520520  -0.722132
    N   N6    0.599550  0.657810  0.520570  -0.743112
    N   N7    0.660500  0.593930  0.520430  -0.702695
    N   N8    0.343570  0.339590  0.478960  -0.561611
    N   N9    0.279410  0.402850  0.479170  -0.687380
    N   N10   0.283190  0.339620  0.479050  -0.746518
    N   N11   0.344350  0.276430  0.479160  -0.709531
    N   N12   0.404790  0.278130  0.479510  -0.722252
    N   N13   0.342240  0.400390  0.479450  -0.743522
    N   N14   0.406120  0.339430  0.479600  -0.704104
    N   N15   0.339400  0.343330  0.838190  -0.548370
    N   N16   0.402760  0.279270  0.838790  -0.652355
    N   N17   0.339440  0.282960  0.898470  -0.682127
    N   N18   0.276160  0.344020  0.900480  -0.647524
    N   N19   0.277840  0.404460  0.837970  -0.688713
    N   N20   0.400280  0.342090  0.778130  -0.685796
    N   N21   0.339220  0.405880  0.775150  -0.653874
    N   N22   0.656820  0.660610  0.161900  -0.544293
    N   N23   0.721060  0.597420  0.161110  -0.651043
    N   N24   0.717300  0.660660  0.101550  -0.682136
    N   N25   0.656070  0.723780  0.099730  -0.646760
    N   N26   0.595520  0.721990  0.162300  -0.687669
    N   N27   0.658130  0.599800  0.221850  -0.684680
    N   N28   0.594160  0.660680  0.225010  -0.653635
    N   N29   0.982730  0.338100  0.838030  -0.561197
    N   N30   0.982220  0.400850  0.838620  -0.708729
    N   N31   0.982790  0.337730  0.898290  -0.748506
    N   N32   0.983610  0.275030  0.900310  -0.679098
    N   N33   0.983980  0.277130  0.837820  -0.748090
    N   N34   0.982560  0.398810  0.777980  -0.716216
    N   N35   0.983400  0.338350  0.775010  -0.710854
    N   N36   0.021640  0.656360  0.161880  -0.558825
    N   N37   0.020750  0.719990  0.161090  -0.707572
    N   N38   0.020860  0.716680  0.101550  -0.715664
    N   N39   0.021400  0.656050  0.099740  -0.701576
    N   N40   0.021740  0.595660  0.162300  -0.745621
    N   N41   0.021190  0.657250  0.221810  -0.746812
    N   N42   0.021720  0.593880  0.224990  -0.686920
    N   N43   0.341930  0.979020  0.838260  -0.556296
    N   N44   0.278460  0.979740  0.838900  -0.706450
    N   N45   0.281380  0.979830  0.898540  -0.711830
    N   N46   0.341830  0.979470  0.900510  -0.701742
    N   N47   0.402470  0.979100  0.837990  -0.747386
    N   N48   0.341430  0.979290  0.778230  -0.747075
    N   N49   0.404650  0.978930  0.775200  -0.689647
    N   N50   0.663760  0.016090  0.162060  -0.564288
    N   N51   0.601180  0.016410  0.161320  -0.710980
    N   N52   0.664560  0.015710  0.101750  -0.750932
    N   N53   0.727100  0.015060  0.099880  -0.682364
    N   N54   0.724570  0.015010  0.162420  -0.750292
    N   N55   0.602790  0.016390  0.222020  -0.715964
    N   N56   0.663060  0.015730  0.225140  -0.710090
    O   O1    0.993530  0.446080  0.553760  -0.486445
    O   O2    0.011770  0.490690  0.446060  -0.514196
    O   O3    0.057230  0.445370  0.490590  -0.508721
    O   O4    0.948070  0.491400  0.509230  -0.524190
    O   O5    0.446660  0.508670  0.553850  -0.473710
    O   O6    0.947350  0.552840  0.509230  -0.497821
    O   O7    0.056510  0.506800  0.490620  -0.508424
    O   O8    0.011120  0.552120  0.446020  -0.507916
    O   O9    0.992800  0.507520  0.553780  -0.535039
    O   O10   0.491310  0.553260  0.446130  -0.472061
    O   O11   0.508990  0.988500  0.553940  -0.516796
    O   O12   0.554130  0.006440  0.446230  -0.484972
    O   O13   0.508560  0.052020  0.490780  -0.521625
    O   O14   0.554550  0.942920  0.509390  -0.511739
    O   O15   0.493220  0.943380  0.509440  -0.506736
    O   O16   0.447210  0.052480  0.490860  -0.498886
    O   O17   0.492780  0.006970  0.446240  -0.537048
    O   O18   0.447650  0.988950  0.554010  -0.506250
    O   O19   0.446730  0.508680  0.490710  -0.524870
    O   O20   0.005570  0.553270  0.994230  -0.551147
    O   O21   0.987790  0.508440  0.949270  -0.507056
    O   O22   0.942060  0.553770  0.994070  -0.497615
    O   O23   0.051290  0.507940  0.949430  -0.467297
    O   O24   0.052030  0.446510  0.010160  -0.474286
    O   O25   0.942810  0.492350  0.054800  -0.462233
    O   O26   0.491240  0.553240  0.509270  -0.526512
    O   O27   0.988460  0.447020  0.010000  -0.542321
    O   O28   0.006330  0.491840  0.054950  -0.517481
    O   O29   0.490900  0.011640  0.051560  -0.498876
    O   O30   0.446180  0.993430  0.006870  -0.551847
    O   O31   0.553270  0.491320  0.509280  -0.493443
    O   O32   0.491630  0.948010  0.051410  -0.467273
    O   O33   0.445460  0.057060  0.007010  -0.496753
    O   O34   0.506880  0.056690  0.946090  -0.472561
    O   O35   0.553050  0.947640  0.990510  -0.477976
    O   O36   0.507610  0.992990  0.945960  -0.508871
    O   O37   0.552320  0.011280  0.990640  -0.548839
    O   O38   0.508760  0.446750  0.490750  -0.496200
    O   O39   0.953490  0.007030  0.994090  -0.554328
    O   O40   0.062330  0.987650  0.949060  -0.492664
    O   O41   0.017920  0.942910  0.993880  -0.557520
    O   O42   0.997900  0.051770  0.949270  -0.482364
    O   O43   0.997860  0.052080  0.009970  -0.532366
    O   O44   0.017860  0.943230  0.054600  -0.461768
    O   O45   0.062340  0.987900  0.009770  -0.511804
    O   O46   0.953430  0.007360  0.054800  -0.444342
    O   O47   0.553330  0.491320  0.446100  -0.499791
    O   O48   0.508700  0.446750  0.553880  -0.497894
