# Generated by REPEAT Assigner based on pymatgen
data_DB1-Uio66Zr-BDC_A-irmof7_A_No332
_audit_creation_date              2022-05-24
_audit_creation_method            REPEAT_Assigner
_cell_length_a                    14.677500
_cell_length_b                    14.677500
_cell_length_c                    14.677500
_cell_angle_alpha                 90.000000
_cell_angle_beta                  120.000000
_cell_angle_gamma                 60.000000
_cell_volume                      2235.842820
_symmetry_space_group_name_H-M    P1
_symmetry_Int_Tables_number       1
loop_
    _symmetry_equiv_pos_site_id
    _symmetry_equiv_pos_as_xyz
    1  x,y,z
loop_
    _atom_site_type_symbol
    _atom_site_label
    _atom_site_fract_x
    _atom_site_fract_y
    _atom_site_fract_z
    _atom_type_partial_charge
    Zr  Zr1  0.500000  0.380440  0.380440  2.473459
    Zr  Zr2  0.500000  0.619560  0.619560  2.582373
    Zr  Zr3  0.739130  0.380440  0.619560  2.463194
    Zr  Zr4  0.260880  0.619560  0.380440  2.465770
    Zr  Zr5  0.500000  0.619560  0.380440  2.593097
    Zr  Zr6  0.500000  0.380440  0.619560  2.530165
    O   O1   0.500000  0.425040  0.234960  -0.588134
    O   O2   0.500000  0.765040  0.574970  -0.600547
    O   O3   0.500000  0.574970  0.765040  -0.630045
    O   O4   0.500000  0.234960  0.425040  -0.596659
    O   O5   0.840010  0.234960  0.574970  -0.683959
    O   O6   0.159990  0.574970  0.234960  -0.541300
    O   O7   0.159990  0.765040  0.425040  -0.650365
    O   O8   0.840010  0.425040  0.765040  -0.473033
    O   O9   0.690080  0.574970  0.425040  -0.597752
    O   O10  0.690080  0.234960  0.765040  -0.513448
    O   O11  0.309920  0.425040  0.574970  -0.582615
    O   O12  0.309920  0.765040  0.234960  -0.572062
    O   O13  0.840010  0.234960  0.765040  -0.506992
    O   O14  0.159990  0.574970  0.425040  -0.634220
    O   O15  0.159990  0.765040  0.234960  -0.669599
    O   O16  0.840010  0.425040  0.574970  -0.707728
    O   O17  0.690080  0.234960  0.425040  -0.585549
    O   O18  0.690080  0.574970  0.765040  -0.518624
    O   O19  0.309920  0.765040  0.574970  -0.537370
    O   O20  0.309920  0.425040  0.234960  -0.610331
    O   O21  0.500000  0.234960  0.574970  -0.625139
    O   O22  0.500000  0.574970  0.234960  -0.594394
    O   O23  0.500000  0.765040  0.425040  -0.564205
    O   O24  0.500000  0.425040  0.765040  -0.565708
    O   O25  0.388110  0.444050  0.444050  -1.020640
    O   O26  0.611890  0.444050  0.667840  -1.137262
    O   O27  0.388110  0.667840  0.444050  -1.115216
    O   O28  0.611890  0.444050  0.444050  -1.084417
    O   O29  0.611890  0.555950  0.555950  -1.128638
    O   O30  0.388110  0.555950  0.332160  -1.141884
    O   O31  0.388110  0.555950  0.555950  -1.130371
    O   O32  0.611890  0.332160  0.555950  -1.093380
    C   C1   0.500000  0.500000  0.193640  0.667157
    C   C2   0.500000  0.806360  0.500000  0.582473
    C   C3   0.500000  0.500000  0.806360  0.652832
    C   C4   0.500000  0.193640  0.500000  0.661410
    C   C5   0.806360  0.193640  0.500000  0.828372
    C   C6   0.193640  0.500000  0.193640  0.658053
    C   C7   0.193640  0.806360  0.500000  0.671013
    C   C8   0.806360  0.500000  0.806360  0.514100
    C   C9   0.806360  0.500000  0.500000  0.715450
    C   C10  0.806360  0.193640  0.806360  0.570658
    C   C11  0.193640  0.500000  0.500000  0.678671
    C   C12  0.193640  0.806360  0.193640  0.683670
    H   H1   0.666050  0.416980  0.416980  0.343820
    H   H2   0.333950  0.749070  0.416980  0.353035
    H   H3   0.666050  0.416980  0.749070  0.355665
    H   H4   0.333950  0.416980  0.416980  0.354392
    C   C13  0.500000  0.500000  0.904570  -0.035272
    C   C14  0.500000  0.500000  0.095430  -0.012186
    C   C15  0.500000  0.581720  0.952620  0.202821
    C   C16  0.500000  0.418280  0.047390  0.045439
    C   C17  0.500000  0.581720  0.047390  -0.174791
    C   C18  0.500000  0.418280  0.952620  -0.235601
    H   H5   0.500000  0.638360  0.080080  0.214799
    H   H6   0.500000  0.361640  0.919920  0.249029
    C   C19  0.500000  0.904570  0.500000  0.104243
    C   C20  0.500000  0.095430  0.500000  -0.010371
    C   C21  0.500000  0.952620  0.581720  -0.009473
    C   C22  0.500000  0.047380  0.418280  0.104772
    C   C23  0.500000  0.047390  0.581720  -0.143404
    C   C24  0.500000  0.952620  0.418280  -0.263826
    H   H7   0.500000  0.080080  0.638360  0.212032
    H   H8   0.500000  0.919920  0.361640  0.258962
    C   C25  0.904570  0.095430  0.904570  0.030043
    C   C26  0.095430  0.904570  0.095430  0.042184
    C   C27  0.870900  0.047380  0.952620  -0.054722
    C   C28  0.129100  0.952620  0.047390  -0.040780
    C   C29  0.965670  0.952620  0.047390  -0.175285
    C   C30  0.034330  0.047380  0.952620  -0.041136
    H   H9   0.941720  0.919920  0.080080  0.194829
    H   H10  0.058280  0.080080  0.919920  0.174100
    C   C31  0.904570  0.500000  0.500000  0.021825
    C   C32  0.095430  0.500000  0.500000  -0.006610
    C   C33  0.870900  0.581720  0.418280  -0.048360
    C   C34  0.129100  0.418280  0.581720  0.036795
    C   C35  0.965670  0.581720  0.418280  -0.092704
    C   C36  0.034330  0.418280  0.581720  -0.131580
    H   H11  0.941720  0.638360  0.361640  0.193987
    H   H12  0.058280  0.361640  0.638360  0.169571
    C   C37  0.916490  0.083510  0.500000  -0.364795
    C   C38  0.904140  0.078580  0.399320  0.337869
    C   C39  0.022100  0.995180  0.600690  0.004459
    C   C40  0.797260  0.168590  0.300970  -0.271900
    C   C41  0.781410  0.166970  0.199120  -0.061869
    H   H13  0.735550  0.230750  0.303620  0.088676
    H   H14  0.710240  0.226930  0.133800  0.153907
    C   C42  0.094220  0.905780  0.500000  -0.147318
    C   C43  0.106560  0.910710  0.600690  0.056475
    C   C44  0.988610  0.994120  0.399320  0.128846
    C   C45  0.980270  0.985590  0.300970  -0.226100
    C   C46  0.876790  0.071590  0.199120  -0.110635
    H   H15  0.045080  0.921230  0.303620  0.117130
    H   H16  0.871430  0.065740  0.133800  0.161112
    C   C47  0.904570  0.500000  0.904570  0.112306
    C   C48  0.095430  0.500000  0.095430  -0.028892
    C   C49  0.034330  0.418280  0.952620  -0.050476
    C   C50  0.965670  0.581720  0.047390  0.073042
    C   C51  0.129100  0.418280  0.047390  -0.084243
    C   C52  0.870900  0.581720  0.952620  -0.233717
    H   H17  0.218450  0.361640  0.080080  0.189388
    H   H18  0.781550  0.638360  0.919920  0.243872
    O   O33  0.584250  0.640430  0.862840  -0.334676
    O   O34  0.415760  0.788490  0.889150  -0.188731
    N   N1   0.500000  0.670920  0.901130  0.203877
    O   O35  0.584250  0.275320  0.221410  -0.192837
    O   O36  0.415760  0.295750  0.026610  -0.245643
    N   N2   0.500000  0.329080  0.098880  0.269731
    O   O37  0.415760  0.862840  0.640430  -0.317614
    O   O38  0.584240  0.889150  0.788490  -0.264397
    N   N3   0.500000  0.901130  0.670920  0.357352
    O   O39  0.415760  0.221410  0.275320  -0.304531
    O   O40  0.584240  0.026610  0.295750  -0.215257
    N   N4   0.500000  0.098880  0.329080  0.272968
    O   O41  0.638160  0.221410  0.862840  -0.373274
    O   O42  0.684900  0.026610  0.889150  -0.229973
    N   N5   0.730210  0.098880  0.901130  0.373038
    O   O43  0.361840  0.862840  0.221410  -0.361910
    O   O44  0.315110  0.889150  0.026610  -0.258925
    N   N6   0.269800  0.901120  0.098880  0.388516
    O   O45  0.638160  0.640430  0.275320  -0.354041
    O   O46  0.684900  0.788490  0.295750  -0.292531
    N   N7   0.730200  0.670920  0.329080  0.405477
    O   O47  0.361840  0.275320  0.640430  -0.305555
    O   O48  0.315110  0.295750  0.788490  -0.228293
    N   N8   0.269800  0.329080  0.670920  0.315841
    O   O49  0.003270  0.275320  0.862840  -0.407015
    O   O50  0.177640  0.295750  0.889150  -0.257879
    N   N9   0.072040  0.329080  0.901130  0.404049
    O   O51  0.996730  0.640430  0.221410  -0.334364
    O   O52  0.822370  0.788490  0.026610  -0.234690
    N   N10  0.927960  0.670920  0.098880  0.323804
    C   C53  0.222350  0.813330  0.707940  0.264709
    O   O53  0.210590  0.792190  0.787970  -0.424149
    O   O54  0.325540  0.752770  0.719090  -0.057791
    H   H19  0.124750  0.857890  0.768980  0.284618
    C   C54  0.031980  0.003700  0.707940  0.391600
    O   O55  0.925360  0.063050  0.704210  -0.384766
    O   O56  0.138540  0.953310  0.798030  -0.205363
    H   H20  0.849610  0.108030  0.623250  0.254920
