data_DB1-Cu2O8-ADC_A-irmof6_A_No193_repeat
_audit_creation_date              2024-02-20
_audit_creation_method            'Materials Studio'
_symmetry_space_group_name_H-M    'P1'
_symmetry_Int_Tables_number       1
_symmetry_cell_setting            triclinic
loop_
_symmetry_equiv_pos_as_xyz
  x,y,z
_cell_length_a                    10.8046
_cell_length_b                    34.9964
_cell_length_c                    10.0000
_cell_angle_alpha                 90.0000
_cell_angle_beta                  90.0000
_cell_angle_gamma                 90.0938
loop_
_atom_site_label
_atom_site_type_symbol
_atom_site_fract_x
_atom_site_fract_y
_atom_site_fract_z
_atom_site_U_iso_or_equiv
_atom_site_adp_type
_atom_site_occupancy
Cu1    Cu    0.50000   0.50000   0.62726   0.00000  Uiso   1.00
Cu2    Cu    0.50001   0.50000   0.37274   0.00000  Uiso   1.00
O1     O     0.66093   0.49997   0.61869   0.00000  Uiso   1.00
O2     O     0.33875   0.49992   0.61867   0.00000  Uiso   1.00
O3     O     0.49965   0.45021   0.61868   0.00000  Uiso   1.00
O4     O     0.50002   0.54968   0.61868   0.00000  Uiso   1.00
O5     O     0.50032   0.54979   0.38132   0.00000  Uiso   1.00
O6     O     0.50003   0.45032   0.38132   0.00000  Uiso   1.00
O7     O     0.33895   0.49998   0.38131   0.00000  Uiso   1.00
O8     O     0.66127   0.50010   0.38133   0.00000  Uiso   1.00
C1     C     0.73213   0.50003   0.50001   0.00000  Uiso   1.00
C2     C     0.26788   0.49997   0.49999   0.00000  Uiso   1.00
C3     C     0.49985   0.42834   0.49999   0.00000  Uiso   1.00
C4     C     0.50017   0.57167   0.50000   0.00000  Uiso   1.00
Cu3    Cu    0.50049   0.00000   0.28188   0.00000  Uiso   1.00
Cu4    Cu    0.49987   0.00001   0.53639   0.00000  Uiso   1.00
O9     O     0.66139   0.00019   0.29091   0.00000  Uiso   1.00
O10    O     0.33921   0.99993   0.29000   0.00000  Uiso   1.00
O11    O     0.50013   0.04979   0.29044   0.00000  Uiso   1.00
O12    O     0.50047   0.95032   0.29047   0.00000  Uiso   1.00
O13    O     0.50018   0.95021   0.52783   0.00000  Uiso   1.00
O14    O     0.49992   0.04968   0.52780   0.00000  Uiso   1.00
O15    O     0.33883   0.99987   0.52735   0.00000  Uiso   1.00
O16    O     0.66114   0.00007   0.52827   0.00000  Uiso   1.00
C5     C     0.73230   0.00021   0.40980   0.00000  Uiso   1.00
C6     C     0.26805   0.99980   0.40848   0.00000  Uiso   1.00
C7     C     0.50003   0.07167   0.40912   0.00000  Uiso   1.00
C8     C     0.50032   0.92834   0.40915   0.00000  Uiso   1.00
C9     C     0.50032   0.88566   0.40916   0.00000  Uiso   1.00
C10    C     0.50017   0.86506   0.53008   0.00000  Uiso   1.00
C11    C     0.50016   0.82503   0.53024   0.00000  Uiso   1.00
C12    C     0.50031   0.80443   0.40893   0.00000  Uiso   1.00
C13    C     0.50046   0.82510   0.28832   0.00000  Uiso   1.00
C14    C     0.50047   0.86509   0.28824   0.00000  Uiso   1.00
C15    C     0.50032   0.76182   0.40144   0.00000  Uiso   1.00
C16    C     0.50018   0.73818   0.50777   0.00000  Uiso   1.00
C17    C     0.50003   0.67490   0.62087   0.00000  Uiso   1.00
C18    C     0.50019   0.69557   0.50026   0.00000  Uiso   1.00
C19    C     0.50033   0.67498   0.37894   0.00000  Uiso   1.00
C20    C     0.50033   0.63495   0.37910   0.00000  Uiso   1.00
C21    C     0.50018   0.61434   0.50001   0.00000  Uiso   1.00
C22    C     0.50003   0.63491   0.62094   0.00000  Uiso   1.00
H1     H     0.50005   0.88015   0.62461   0.00000  Uiso   1.00
H2     H     0.50004   0.81085   0.62594   0.00000  Uiso   1.00
H3     H     0.50058   0.81024   0.19334   0.00000  Uiso   1.00
H4     H     0.49992   0.68976   0.71585   0.00000  Uiso   1.00
H5     H     0.50045   0.68916   0.28324   0.00000  Uiso   1.00
H6     H     0.50045   0.61986   0.28456   0.00000  Uiso   1.00
H7     H     0.50044   0.74990   0.30204   0.00000  Uiso   1.00
H8     H     0.50006   0.75010   0.60716   0.00000  Uiso   1.00
C23    C     0.50003   0.11434   0.40913   0.00000  Uiso   1.00
C24    C     0.49983   0.13495   0.53004   0.00000  Uiso   1.00
C25    C     0.49983   0.17498   0.53022   0.00000  Uiso   1.00
C26    C     0.50002   0.19557   0.40890   0.00000  Uiso   1.00
C27    C     0.50021   0.17491   0.28829   0.00000  Uiso   1.00
C28    C     0.50022   0.13492   0.28821   0.00000  Uiso   1.00
C29    C     0.50003   0.23819   0.40142   0.00000  Uiso   1.00
C30    C     0.49985   0.26182   0.50774   0.00000  Uiso   1.00
C31    C     0.49966   0.32510   0.62085   0.00000  Uiso   1.00
C32    C     0.49986   0.30443   0.50024   0.00000  Uiso   1.00
C33    C     0.50005   0.32503   0.37892   0.00000  Uiso   1.00
C34    C     0.50005   0.36505   0.37909   0.00000  Uiso   1.00
C35    C     0.49985   0.38566   0.50000   0.00000  Uiso   1.00
C36    C     0.49966   0.36509   0.62092   0.00000  Uiso   1.00
H9     H     0.49968   0.11986   0.62458   0.00000  Uiso   1.00
H10    H     0.49967   0.18916   0.62591   0.00000  Uiso   1.00
H11    H     0.50036   0.18977   0.19331   0.00000  Uiso   1.00
H12    H     0.49951   0.31024   0.71584   0.00000  Uiso   1.00
H13    H     0.50021   0.31085   0.28322   0.00000  Uiso   1.00
H14    H     0.50020   0.38015   0.28455   0.00000  Uiso   1.00
H15    H     0.50018   0.25010   0.30202   0.00000  Uiso   1.00
H16    H     0.49969   0.24990   0.60714   0.00000  Uiso   1.00
C37    C     0.13514   0.49999   0.49999   0.00000  Uiso   1.00
C38    C     0.86487   0.50002   0.50000   0.00000  Uiso   1.00
C39    C     0.06745   0.50005   0.39438   0.00000  Uiso   1.00
C40    C     0.93256   0.49995   0.60562   0.00000  Uiso   1.00
C41    C     0.93256   0.50007   0.39438   0.00000  Uiso   1.00
C42    C     0.06746   0.49994   0.60561   0.00000  Uiso   1.00
C43    C     0.06458   0.50013   0.24417   0.00000  Uiso   1.00
C44    C     0.93542   0.50015   0.24418   0.00000  Uiso   1.00
H17    H     0.10974   0.49987   0.70424   0.00000  Uiso   1.00
H18    H     0.11004   0.47508   0.19983   0.00000  Uiso   1.00
H19    H     0.11098   0.52520   0.20097   0.00000  Uiso   1.00
H20    H     0.88995   0.52524   0.20016   0.00000  Uiso   1.00
H21    H     0.88902   0.47512   0.20065   0.00000  Uiso   1.00
C45    C     0.13531   0.00065   0.41098   0.00000  Uiso   1.00
C46    C     0.86504   0.00035   0.41019   0.00000  Uiso   1.00
C47    C     0.06736   0.00052   0.51640   0.00000  Uiso   1.00
C48    C     0.93299   0.00048   0.30477   0.00000  Uiso   1.00
C49    C     0.93246   0.00037   0.51601   0.00000  Uiso   1.00
C50    C     0.06789   0.00062   0.30517   0.00000  Uiso   1.00
C51    C     0.06411   0.00044   0.66660   0.00000  Uiso   1.00
C52    C     0.93496   0.00030   0.66622   0.00000  Uiso   1.00
H22    H     0.11041   0.00074   0.20666   0.00000  Uiso   1.00
H23    H     0.10946   0.02553   0.71107   0.00000  Uiso   1.00
H24    H     0.11040   0.97541   0.70994   0.00000  Uiso   1.00
H25    H     0.88937   0.97515   0.71011   0.00000  Uiso   1.00
H26    H     0.88845   0.02528   0.70960   0.00000  Uiso   1.00
C53    C     0.50064   0.88669   0.15263   0.00000  Uiso   1.00
H27    H     0.57334   0.87992   0.10284   0.00000  Uiso   1.00
H28    H     0.50043   0.91373   0.16874   0.00000  Uiso   1.00
H29    H     0.42825   0.87976   0.10246   0.00000  Uiso   1.00
C54    C     0.49986   0.61331   0.75654   0.00000  Uiso   1.00
H30    H     0.57244   0.62015   0.80654   0.00000  Uiso   1.00
H31    H     0.49969   0.58627   0.74042   0.00000  Uiso   1.00
H32    H     0.42734   0.62016   0.80650   0.00000  Uiso   1.00
C55    C     0.50044   0.11332   0.15260   0.00000  Uiso   1.00
H33    H     0.42788   0.12008   0.10257   0.00000  Uiso   1.00
H34    H     0.50060   0.08628   0.16871   0.00000  Uiso   1.00
H35    H     0.57297   0.12025   0.10267   0.00000  Uiso   1.00
C56    C     0.49944   0.38669   0.75653   0.00000  Uiso   1.00
H36    H     0.42672   0.37985   0.80629   0.00000  Uiso   1.00
H37    H     0.49965   0.41373   0.74041   0.00000  Uiso   1.00
H38    H     0.57181   0.37984   0.80673   0.00000  Uiso   1.00
O17    O     0.88207   0.49990   0.72340   0.00000  Uiso   1.00
Li1    Li    0.94177   0.49981   0.88187   0.00000  Uiso   1.00
O18    O     0.88280   0.00048   0.18685   0.00000  Uiso   1.00
Li2    Li    0.94289   0.00062   0.02854   0.00000  Uiso   1.00
