# Generated by REPEAT Assigner based on pymatgen
data_DB1-Cu2O8N2-SiF6-BDC_No3
_audit_creation_date              2022-05-24
_audit_creation_method            REPEAT_Assigner
_cell_length_a                    10.690500
_cell_length_b                    10.248200
_cell_length_c                    10.695100
_cell_angle_alpha                 90.000200
_cell_angle_beta                  90.061100
_cell_angle_gamma                 89.778900
_cell_volume                      1171.728462
_symmetry_space_group_name_H-M    P1
_symmetry_Int_Tables_number       1
loop_
    _symmetry_equiv_pos_site_id
    _symmetry_equiv_pos_as_xyz
    1  x,y,z
loop_
    _atom_site_type_symbol
    _atom_site_label
    _atom_site_fract_x
    _atom_site_fract_y
    _atom_site_fract_z
    _atom_type_partial_charge
    O   O1   0.672480  0.392340  0.500000  -0.545255
    O   O2   0.671680  0.607660  0.500000  -0.387661
    O   O3   0.328990  0.392620  0.500000  -0.391287
    O   O4   0.328190  0.607380  0.500000  -0.544373
    O   O5   0.499370  0.392560  0.328290  -0.394250
    O   O6   0.498940  0.607440  0.671710  -0.391964
    O   O7   0.498570  0.607440  0.328290  -0.544440
    O   O8   0.499730  0.392560  0.671710  -0.546793
    C   C1   0.498370  0.500000  0.269440  0.496144
    C   C2   0.498860  0.500000  0.730560  0.494295
    Cu  Cu1  0.500950  0.366790  0.500000  1.002743
    Cu  Cu2  0.499970  0.633210  0.500000  0.989729
    C   C3   0.730840  0.500000  0.500000  0.488801
    C   C4   0.269730  0.500000  0.500000  0.492044
    N   N1   0.497340  0.500000  0.130960  0.228535
    N   N2   0.498130  0.500000  0.869040  0.236090
    C   C5   0.497970  0.382960  0.065030  -0.131331
    C   C6   0.497490  0.617040  0.934970  -0.137469
    C   C7   0.498360  0.382960  0.934970  -0.059919
    C   C8   0.497100  0.617040  0.065030  -0.051400
    H   H1   0.498800  0.301830  0.890100  0.149604
    H   H2   0.496670  0.698170  0.109900  0.147265
    F   F1   0.503810  0.170410  0.500000  -0.365277
    F   F2   0.501370  0.829590  0.500000  -0.359536
    F   F3   0.542960  0.999530  0.649650  -0.343738
    F   F4   0.462230  0.000470  0.350350  -0.342362
    F   F5   0.652260  0.998230  0.459810  -0.340758
    F   F6   0.352930  0.001770  0.540190  -0.339948
    Si  Si1  0.502590  -0.000000  0.500000  0.999654
    N   N3   0.131290  0.500000  0.500000  0.238701
    N   N4   0.869250  0.500000  0.500000  0.236169
    C   C9   0.065760  0.382960  0.500000  -0.134369
    C   C10  0.934770  0.617040  0.500000  -0.128398
    C   C11  0.935640  0.382960  0.500000  -0.061591
    C   C12  0.064890  0.617040  0.500000  -0.067278
    H   H3   0.891050  0.301830  0.500000  0.150561
    H   H4   0.109490  0.698170  0.500000  0.150986
    Br  Br1  0.498330  0.207420  0.162120  0.027664
    Br  Br2  0.497140  0.792580  0.837880  0.028427
    Br  Br3  0.163540  0.207420  0.500000  0.026970
    Br  Br4  0.836990  0.792580  0.500000  0.025013
