# Generated by REPEAT Assigner based on pymatgen
data_DB1-Zn2O8-AZO_A-irmof7_A_No529
_audit_creation_date              2022-05-24
_audit_creation_method            REPEAT_Assigner
_cell_length_a                    10.743500
_cell_length_b                    36.482700
_cell_length_c                    10.000000
_cell_angle_alpha                 90.000000
_cell_angle_beta                  90.000000
_cell_angle_gamma                 106.947000
_cell_volume                      3749.312975
_symmetry_space_group_name_H-M    P1
_symmetry_Int_Tables_number       1
loop_
    _symmetry_equiv_pos_site_id
    _symmetry_equiv_pos_as_xyz
    1  x,y,z
loop_
    _atom_site_type_symbol
    _atom_site_label
    _atom_site_fract_x
    _atom_site_fract_y
    _atom_site_fract_z
    _atom_type_partial_charge
    O   O1   0.320750  0.500340  0.635800  -0.451234
    O   O2   0.320550  0.499960  0.363990  -0.541553
    C   C1   0.257340  0.500090  0.499920  0.244275
    Zn  Zn1  0.500030  0.500110  0.665770  1.256564
    O   O3   0.555060  0.555160  0.363800  -0.613487
    O   O4   0.555280  0.555370  0.635620  -0.609430
    C   C2   0.574510  0.574740  0.499740  0.398085
    O   O5   0.679360  0.499740  0.364200  -0.545936
    O   O6   0.679410  0.499970  0.636010  -0.564326
    C   C3   0.742660  0.499880  0.500080  0.289420
    Zn  Zn2  0.500000  0.499890  0.334230  1.206903
    O   O7   0.444720  0.444840  0.636200  -0.475954
    O   O8   0.444970  0.444640  0.364380  -0.572948
    C   C4   0.425100  0.425260  0.500260  0.452531
    O   O9   0.816590  0.999780  0.266560  -0.434925
    O   O10  0.817180  0.000160  0.538360  -0.526689
    C   C5   0.753730  0.000070  0.402440  0.231907
    Zn  Zn3  0.996230  0.999910  0.236570  1.259445
    O   O11  0.941980  0.944860  0.538530  -0.680732
    O   O12  0.941760  0.944660  0.266720  -0.565401
    C   C6   0.922530  0.925280  0.402590  0.411651
    O   O13  0.176230  0.000180  0.538110  -0.525548
    O   O14  0.175790  0.999950  0.266310  -0.560044
    C   C7   0.239200  0.000000  0.402220  0.280652
    Zn  Zn4  0.996670  0.000130  0.568100  1.246884
    O   O15  0.050660  0.055180  0.266140  -0.471053
    O   O16  0.051350  0.055380  0.537950  -0.670175
    C   C8   0.069940  0.074760  0.402070  0.462637
    C   C9   0.880070  0.882510  0.402520  0.089461
    C   C10  0.859540  0.861830  0.523640  -0.405358
    C   C11  0.819670  0.821660  0.523250  -0.109036
    C   C12  0.799500  0.801360  0.401930  -0.016972
    C   C13  0.819740  0.821750  0.281370  0.296525
    C   C14  0.859600  0.861900  0.281290  0.337496
    N   N1   0.758650  0.760220  0.398290  -0.033743
    N   N2   0.738390  0.739800  0.504050  -0.169629
    C   C15  0.677310  0.678270  0.620970  -0.237862
    C   C16  0.697540  0.698660  0.500410  0.251324
    C   C17  0.677380  0.678360  0.379080  -0.174004
    C   C18  0.637500  0.638190  0.378700  0.069812
    C   C19  0.616970  0.617510  0.499810  0.174743
    C   C20  0.637440  0.638120  0.621040  0.139835
    H   H1   0.874540  0.876930  0.618230  0.204566
    H   H2   0.804420  0.806310  0.617150  0.039484
    H   H3   0.692580  0.693660  0.714910  -0.095441
    H   H4   0.692620  0.693710  0.285190  -0.209400
    C   C21  0.113290  0.117520  0.402130  0.078461
    C   C22  0.134030  0.138180  0.523300  -0.400649
    C   C23  0.174740  0.178340  0.523040  -0.043617
    C   C24  0.195560  0.198670  0.401780  0.038340
    C   C25  0.175120  0.178310  0.281150  0.272863
    C   C26  0.134420  0.138170  0.280960  0.434497
    N   N3   0.237270  0.239820  0.398260  -0.117468
    N   N4   0.257760  0.260200  0.504080  -0.183291
    C   C27  0.319910  0.321710  0.621180  -0.593162
    C   C28  0.299480  0.301350  0.500560  0.462670
    C   C29  0.320290  0.321680  0.379300  -0.436825
    C   C30  0.361010  0.361840  0.379030  0.366834
    C   C31  0.381740  0.382500  0.500210  -0.027115
    C   C32  0.360610  0.361850  0.621380  0.581503
    H   H5   0.118540  0.123050  0.617850  0.213188
    H   H6   0.190130  0.193670  0.616980  0.031372
    H   H7   0.304140  0.306300  0.715070  0.051861
    H   H8   0.304900  0.306350  0.285350  -0.096113
    C   C33  0.121460  0.500040  0.499960  0.158400
    C   C34  0.082070  0.524740  0.413160  -0.004155
    C   C35  0.033380  0.475280  0.586810  0.015534
    C   C36  0.173190  0.548930  0.328330  -0.177761
    C   C37  0.137940  0.573920  0.240520  -0.067395
    H   H9   0.259010  0.548310  0.330600  0.194334
    H   H10  0.198710  0.589990  0.184180  0.072299
    C   C38  0.878540  0.499930  0.500040  0.115475
    C   C39  0.917930  0.475230  0.586840  -0.033914
    C   C40  0.966630  0.524690  0.413200  0.170654
    C   C41  0.923070  0.548820  0.328410  -0.276504
    C   C42  0.007580  0.573870  0.240560  -0.009928
    H   H11  0.835960  0.548140  0.330730  0.224252
    H   H12  0.978400  0.589890  0.184250  0.055186
    C   C43  0.617460  0.999630  0.402290  0.150870
    C   C44  0.529070  0.974960  0.489100  0.048330
    C   C45  0.578570  0.024420  0.315460  0.008650
    C   C46  0.572140  0.950730  0.573920  -0.216914
    C   C47  0.487290  0.925770  0.661740  -0.052054
    H   H13  0.659130  0.951300  0.571650  0.203732
    H   H14  0.516150  0.909690  0.718070  0.094760
    C   C48  0.374900  0.999870  0.402250  0.134770
    C   C49  0.463290  0.024540  0.315440  -0.041363
    C   C50  0.413790  0.975070  0.489080  0.124455
    C   C51  0.322360  0.950980  0.573880  -0.213781
    C   C52  0.357120  0.925900  0.661720  -0.090849
    H   H15  0.236670  0.951720  0.571570  0.198934
    H   H16  0.296150  0.909900  0.718030  0.111007
    O   O17  0.877620  0.880060  0.168010  -0.732048
    Li  Li1  0.862750  0.865080  0.005080  0.857806
    O   O18  0.801410  0.803290  0.168680  -0.874153
    Li  Li2  0.754020  0.755570  0.129460  0.764825
    O   O19  0.619420  0.619970  0.734330  -0.584018
    Li  Li3  0.634300  0.634940  0.897250  0.663419
    O   O20  0.619520  0.620090  0.265310  -0.540411
    Li  Li4  0.634450  0.635140  0.102470  0.638358
    O   O21  0.116230  0.120040  0.167620  -0.753054
    Li  Li5  0.131720  0.135050  0.004740  0.874887
    O   O22  0.194050  0.196800  0.168520  -0.861691
    Li  Li6  0.242500  0.244530  0.129440  0.816814
    O   O23  0.378800  0.379980  0.734710  -0.848898
    Li  Li7  0.363320  0.364970  0.897600  0.808194
    O   O24  0.379580  0.379970  0.265700  -0.734168
    Li  Li8  0.364640  0.364960  0.102810  0.771479
    O   O25  0.689330  0.428030  0.628300  -0.260723
    O   O26  0.855180  0.444250  0.819560  -0.312648
    N   N5   0.820040  0.448960  0.678960  0.361335
    O   O27  0.204180  0.463770  0.751440  -0.263990
    O   O28  0.000190  0.408790  0.696220  -0.343954
    N   N6   0.079610  0.449070  0.678880  0.359737
    O   O29  0.328510  0.071840  0.274000  -0.258085
    O   O30  0.462040  0.055530  0.082720  -0.287028
    N   N7   0.417590  0.050840  0.223320  0.349544
    O   O31  0.772110  0.035830  0.150800  -0.255671
    O   O32  0.677370  0.090890  0.206040  -0.323192
    N   N8   0.676790  0.050590  0.223370  0.353641
