data_DB1-Cu2O8-AZO_A-fum_A_No188_repeat
_audit_creation_date              2024-02-23
_audit_creation_method            'Materials Studio'
_symmetry_space_group_name_H-M    'P1'
_symmetry_Int_Tables_number       1
_symmetry_cell_setting            triclinic
loop_
_symmetry_equiv_pos_as_xyz
  x,y,z
_cell_length_a                    34.4976
_cell_length_b                    43.1124
_cell_length_c                    10.0000
_cell_angle_alpha                 90.0000
_cell_angle_beta                  90.0000
_cell_angle_gamma                 36.9886
loop_
_atom_site_label
_atom_site_type_symbol
_atom_site_fract_x
_atom_site_fract_y
_atom_site_fract_z
_atom_site_U_iso_or_equiv
_atom_site_adp_type
_atom_site_occupancy
Cu1    Cu    0.50021   0.49980   0.37274   0.00000  Uiso   1.00
Cu2    Cu    0.49979   0.50021   0.62726   0.00000  Uiso   1.00
O1     O     0.43317   0.56684   0.38059   0.00000  Uiso   1.00
O2     O     0.56724   0.43264   0.38206   0.00000  Uiso   1.00
O3     O     0.44983   0.49967   0.38132   0.00000  Uiso   1.00
O4     O     0.55058   0.49982   0.38132   0.00000  Uiso   1.00
O5     O     0.55019   0.50032   0.61868   0.00000  Uiso   1.00
O6     O     0.44940   0.50021   0.61868   0.00000  Uiso   1.00
O7     O     0.56683   0.43311   0.61941   0.00000  Uiso   1.00
O8     O     0.43277   0.56736   0.61794   0.00000  Uiso   1.00
C1     C     0.40339   0.59669   0.49895   0.00000  Uiso   1.00
C2     C     0.59661   0.40332   0.50106   0.00000  Uiso   1.00
C3     C     0.42737   0.49994   0.50000   0.00000  Uiso   1.00
C4     C     0.57263   0.50007   0.50000   0.00000  Uiso   1.00
Cu3    Cu    0.99944   0.50057   0.72498   0.00000  Uiso   1.00
Cu4    Cu    0.00010   0.49990   0.47047   0.00000  Uiso   1.00
O9     O     0.93265   0.56758   0.71522   0.00000  Uiso   1.00
O10    O     0.06651   0.43338   0.71758   0.00000  Uiso   1.00
O11    O     0.05011   0.50041   0.71640   0.00000  Uiso   1.00
O12    O     0.94906   0.50055   0.71640   0.00000  Uiso   1.00
O13    O     0.94945   0.50005   0.47905   0.00000  Uiso   1.00
O14    O     0.05046   0.49994   0.47905   0.00000  Uiso   1.00
O15    O     0.06699   0.43284   0.48023   0.00000  Uiso   1.00
O16    O     0.93301   0.56709   0.47786   0.00000  Uiso   1.00
C5     C     0.90334   0.59692   0.59601   0.00000  Uiso   1.00
C6     C     0.09620   0.40355   0.59943   0.00000  Uiso   1.00
C7     C     0.07253   0.50017   0.59772   0.00000  Uiso   1.00
C8     C     0.92701   0.50030   0.59772   0.00000  Uiso   1.00
Cu5    Cu    0.16490   0.83540   0.73225   0.00000  Uiso   1.00
Cu6    Cu    0.16504   0.83498   0.47773   0.00000  Uiso   1.00
O17    O     0.23191   0.76835   0.72440   0.00000  Uiso   1.00
O18    O     0.09765   0.90255   0.72293   0.00000  Uiso   1.00
O19    O     0.11451   0.83526   0.72431   0.00000  Uiso   1.00
O20    O     0.21504   0.83564   0.72302   0.00000  Uiso   1.00
O21    O     0.21541   0.83513   0.48566   0.00000  Uiso   1.00
O22    O     0.11491   0.83473   0.48696   0.00000  Uiso   1.00
O23    O     0.09792   0.90209   0.48558   0.00000  Uiso   1.00
O24    O     0.23230   0.76783   0.48705   0.00000  Uiso   1.00
C9     C     0.26168   0.73850   0.60604   0.00000  Uiso   1.00
C10    C     0.06826   0.93188   0.60393   0.00000  Uiso   1.00
C11    C     0.09258   0.83488   0.60592   0.00000  Uiso   1.00
C12    C     0.23736   0.83550   0.60405   0.00000  Uiso   1.00
Cu7    Cu    0.66626   0.83462   0.35591   0.00000  Uiso   1.00
Cu8    Cu    0.66587   0.83529   0.61042   0.00000  Uiso   1.00
O25    O     0.73307   0.76761   0.36567   0.00000  Uiso   1.00
O26    O     0.59940   0.90181   0.36330   0.00000  Uiso   1.00
O27    O     0.71687   0.83453   0.36384   0.00000  Uiso   1.00
O28    O     0.61560   0.83490   0.36513   0.00000  Uiso   1.00
O29    O     0.61523   0.83540   0.60248   0.00000  Uiso   1.00
O30    O     0.71655   0.83500   0.60120   0.00000  Uiso   1.00
O31    O     0.59905   0.90235   0.60065   0.00000  Uiso   1.00
O32    O     0.73272   0.76810   0.60302   0.00000  Uiso   1.00
C13    C     0.76239   0.73827   0.48488   0.00000  Uiso   1.00
C14    C     0.56974   0.93164   0.48146   0.00000  Uiso   1.00
C15    C     0.73907   0.83465   0.48224   0.00000  Uiso   1.00
C16    C     0.59306   0.83526   0.48409   0.00000  Uiso   1.00
C17    C     0.88374   0.50029   0.59772   0.00000  Uiso   1.00
C18    C     0.86309   0.50004   0.47658   0.00000  Uiso   1.00
C19    C     0.82246   0.50003   0.47690   0.00000  Uiso   1.00
C20    C     0.80165   0.50029   0.59818   0.00000  Uiso   1.00
C21    C     0.82200   0.50055   0.71878   0.00000  Uiso   1.00
C22    C     0.86262   0.50055   0.71892   0.00000  Uiso   1.00
N1     N     0.76002   0.50030   0.60176   0.00000  Uiso   1.00
N2     N     0.73961   0.50007   0.49597   0.00000  Uiso   1.00
C23    C     0.67763   0.49982   0.37895   0.00000  Uiso   1.00
C24    C     0.69798   0.50008   0.49954   0.00000  Uiso   1.00
C25    C     0.67717   0.50033   0.62083   0.00000  Uiso   1.00
C26    C     0.63654   0.50033   0.62115   0.00000  Uiso   1.00
C27    C     0.61589   0.50007   0.50000   0.00000  Uiso   1.00
C28    C     0.63702   0.49982   0.37880   0.00000  Uiso   1.00
H1     H     0.87859   0.49984   0.38201   0.00000  Uiso   1.00
H2     H     0.80714   0.49983   0.38297   0.00000  Uiso   1.00
H3     H     0.80623   0.50075   0.81269   0.00000  Uiso   1.00
H4     H     0.69341   0.49962   0.28503   0.00000  Uiso   1.00
H5     H     0.69250   0.50053   0.71475   0.00000  Uiso   1.00
H6     H     0.62105   0.50053   0.71571   0.00000  Uiso   1.00
C29    C     0.11580   0.50017   0.59772   0.00000  Uiso   1.00
C30    C     0.13698   0.49990   0.47658   0.00000  Uiso   1.00
C31    C     0.17761   0.49989   0.47690   0.00000  Uiso   1.00
C32    C     0.19789   0.50017   0.59818   0.00000  Uiso   1.00
C33    C     0.17701   0.50044   0.71878   0.00000  Uiso   1.00
C34    C     0.13639   0.50045   0.71892   0.00000  Uiso   1.00
N3     N     0.23951   0.50018   0.60176   0.00000  Uiso   1.00
N4     N     0.26039   0.49993   0.49597   0.00000  Uiso   1.00
C35    C     0.32288   0.49967   0.37895   0.00000  Uiso   1.00
C36    C     0.30200   0.49994   0.49954   0.00000  Uiso   1.00
C37    C     0.32228   0.50022   0.62083   0.00000  Uiso   1.00
C38    C     0.36292   0.50021   0.62115   0.00000  Uiso   1.00
C39    C     0.38410   0.49994   0.50000   0.00000  Uiso   1.00
C40    C     0.36350   0.49966   0.37881   0.00000  Uiso   1.00
H7     H     0.12190   0.49968   0.38201   0.00000  Uiso   1.00
H8     H     0.19335   0.49968   0.38298   0.00000  Uiso   1.00
H9     H     0.19237   0.50066   0.81269   0.00000  Uiso   1.00
H10    H     0.30752   0.49945   0.28504   0.00000  Uiso   1.00
H11    H     0.30655   0.50043   0.71475   0.00000  Uiso   1.00
H12    H     0.37799   0.50043   0.71571   0.00000  Uiso   1.00
C41    C     0.31843   0.68174   0.60849   0.00000  Uiso   1.00
C42    C     0.34664   0.65346   0.49650   0.00000  Uiso   1.00
C43    C     0.01069   0.98942   0.60330   0.00000  Uiso   1.00
C44    C     0.98304   0.01702   0.48185   0.00000  Uiso   1.00
C45    C     0.92898   0.07106   0.48158   0.00000  Uiso   1.00
C46    C     0.90147   0.09860   0.60257   0.00000  Uiso   1.00
C47    C     0.92872   0.07139   0.72346   0.00000  Uiso   1.00
C48    C     0.98276   0.01737   0.72420   0.00000  Uiso   1.00
N5     N     0.84609   0.15396   0.60554   0.00000  Uiso   1.00
N6     N     0.81878   0.18123   0.49945   0.00000  Uiso   1.00
C49    C     0.73614   0.26381   0.38152   0.00000  Uiso   1.00
C50    C     0.76339   0.23659   0.50242   0.00000  Uiso   1.00
C51    C     0.73588   0.26413   0.62341   0.00000  Uiso   1.00
C52    C     0.68182   0.31817   0.62313   0.00000  Uiso   1.00
C53    C     0.65417   0.34578   0.50169   0.00000  Uiso   1.00
C54    C     0.68210   0.31782   0.38079   0.00000  Uiso   1.00
H13    H     0.00352   0.99654   0.38751   0.00000  Uiso   1.00
H14    H     0.90846   0.09156   0.38743   0.00000  Uiso   1.00
H15    H     0.90787   0.09225   0.81715   0.00000  Uiso   1.00
H16    H     0.75699   0.24294   0.28784   0.00000  Uiso   1.00
H17    H     0.75640   0.24364   0.71755   0.00000  Uiso   1.00
H18    H     0.66134   0.33866   0.71748   0.00000  Uiso   1.00
C55    C     0.81897   0.68150   0.48405   0.00000  Uiso   1.00
C56    C     0.84675   0.65369   0.59684   0.00000  Uiso   1.00
C57    C     0.50886   0.98924   0.50902   0.00000  Uiso   1.00
C58    C     0.48088   0.01736   0.62967   0.00000  Uiso   1.00
C59    C     0.42706   0.07140   0.62840   0.00000  Uiso   1.00
C60    C     0.40011   0.09842   0.50663   0.00000  Uiso   1.00
C61    C     0.42770   0.07069   0.38652   0.00000  Uiso   1.00
C62    C     0.48150   0.01668   0.38733   0.00000  Uiso   1.00
N7     N     0.34498   0.15376   0.50208   0.00000  Uiso   1.00
N8     N     0.31739   0.18149   0.60738   0.00000  Uiso   1.00
C63    C     0.23468   0.26456   0.72294   0.00000  Uiso   1.00
C64    C     0.26226   0.23683   0.60283   0.00000  Uiso   1.00
C65    C     0.23532   0.26385   0.48106   0.00000  Uiso   1.00
C66    C     0.18149   0.31789   0.47979   0.00000  Uiso   1.00
C67    C     0.15351   0.34601   0.60044   0.00000  Uiso   1.00
C68    C     0.18087   0.31857   0.72213   0.00000  Uiso   1.00
H19    H     0.50091   0.99727   0.72460   0.00000  Uiso   1.00
H20    H     0.40627   0.09229   0.72195   0.00000  Uiso   1.00
H21    H     0.40729   0.09116   0.29224   0.00000  Uiso   1.00
H22    H     0.25509   0.24409   0.81722   0.00000  Uiso   1.00
H23    H     0.25611   0.24296   0.38751   0.00000  Uiso   1.00
H24    H     0.16146   0.33798   0.38487   0.00000  Uiso   1.00
C69    C     0.54718   0.83691   0.50232   0.00000  Uiso   1.00
C70    C     0.52626   0.83706   0.62373   0.00000  Uiso   1.00
C71    C     0.48583   0.83685   0.62394   0.00000  Uiso   1.00
C72    C     0.46551   0.83648   0.50292   0.00000  Uiso   1.00
C73    C     0.48614   0.83633   0.38206   0.00000  Uiso   1.00
C74    C     0.52654   0.83654   0.38140   0.00000  Uiso   1.00
N9     N     0.42411   0.83626   0.49988   0.00000  Uiso   1.00
N10    N     0.40347   0.83638   0.60594   0.00000  Uiso   1.00
C75    C     0.34144   0.83630   0.72376   0.00000  Uiso   1.00
C76    C     0.36207   0.83615   0.60290   0.00000  Uiso   1.00
C77    C     0.34174   0.83579   0.48188   0.00000  Uiso   1.00
C78    C     0.30132   0.83558   0.48208   0.00000  Uiso   1.00
C79    C     0.28040   0.83573   0.60350   0.00000  Uiso   1.00
C80    C     0.30103   0.83609   0.72442   0.00000  Uiso   1.00
H25    H     0.54137   0.83734   0.71810   0.00000  Uiso   1.00
H26    H     0.47029   0.83697   0.71806   0.00000  Uiso   1.00
H27    H     0.47074   0.83605   0.28835   0.00000  Uiso   1.00
H28    H     0.35683   0.83658   0.81747   0.00000  Uiso   1.00
H29    H     0.35728   0.83567   0.38776   0.00000  Uiso   1.00
H30    H     0.28621   0.83530   0.38771   0.00000  Uiso   1.00
C81    C     0.78301   0.83301   0.51221   0.00000  Uiso   1.00
C82    C     0.80366   0.83340   0.63309   0.00000  Uiso   1.00
C83    C     0.84408   0.83361   0.63224   0.00000  Uiso   1.00
C84    C     0.86467   0.83345   0.51069   0.00000  Uiso   1.00
C85    C     0.84431   0.83306   0.39037   0.00000  Uiso   1.00
C86    C     0.80391   0.83285   0.39075   0.00000  Uiso   1.00
N11    N     0.90608   0.83366   0.50658   0.00000  Uiso   1.00
N12    N     0.92648   0.83401   0.61211   0.00000  Uiso   1.00
C87    C     0.98824   0.83460   0.72832   0.00000  Uiso   1.00
C88    C     0.96788   0.83422   0.60800   0.00000  Uiso   1.00
C89    C     0.98848   0.83405   0.48645   0.00000  Uiso   1.00
C90    C     0.02889   0.83426   0.48561   0.00000  Uiso   1.00
C91    C     0.04954   0.83465   0.60648   0.00000  Uiso   1.00
C92    C     0.02864   0.83482   0.72794   0.00000  Uiso   1.00
H31    H     0.78833   0.83353   0.72785   0.00000  Uiso   1.00
H32    H     0.85941   0.83391   0.72597   0.00000  Uiso   1.00
H33    H     0.85992   0.83293   0.29625   0.00000  Uiso   1.00
H34    H     0.97263   0.83473   0.82244   0.00000  Uiso   1.00
H35    H     0.97315   0.83375   0.39273   0.00000  Uiso   1.00
H36    H     0.04422   0.83413   0.39084   0.00000  Uiso   1.00
O33    O     0.88073   0.50079   0.83223   0.00000  Uiso   1.00
Li1    Li    0.86522   0.50114   0.99513   0.00000  Uiso   1.00
O34    O     0.61891   0.49958   0.26549   0.00000  Uiso   1.00
Li2    Li    0.63442   0.49923   0.10259   0.00000  Uiso   1.00
O35    O     0.11778   0.50071   0.83223   0.00000  Uiso   1.00
Li3    Li    0.13258   0.50107   0.99513   0.00000  Uiso   1.00
O36    O     0.38211   0.49941   0.26550   0.00000  Uiso   1.00
Li4    Li    0.36732   0.49904   0.10259   0.00000  Uiso   1.00
O37    O     0.00702   0.99315   0.83777   0.00000  Uiso   1.00
Li5    Li    0.98662   0.01358   0.00046   0.00000  Uiso   1.00
O38    O     0.65784   0.34205   0.26722   0.00000  Uiso   1.00
Li6    Li    0.67824   0.32161   0.10453   0.00000  Uiso   1.00
O39    O     0.50608   0.99197   0.27445   0.00000  Uiso   1.00
Li7    Li    0.48638   0.01172   0.11120   0.00000  Uiso   1.00
O40    O     0.15629   0.34328   0.83501   0.00000  Uiso   1.00
Li8    Li    0.17600   0.32353   0.99826   0.00000  Uiso   1.00
O41    O     0.54492   0.83640   0.26785   0.00000  Uiso   1.00
Li9    Li    0.53000   0.83597   0.10514   0.00000  Uiso   1.00
O42    O     0.28266   0.83624   0.83797   0.00000  Uiso   1.00
Li10   Li    0.29757   0.83666   0.00067   0.00000  Uiso   1.00
O43    O     0.78579   0.83249   0.27768   0.00000  Uiso   1.00
Li11   Li    0.80107   0.83220   0.11458   0.00000  Uiso   1.00
O44    O     0.04676   0.83517   0.84102   0.00000  Uiso   1.00
Li12   Li    0.03148   0.83546   0.00411   0.00000  Uiso   1.00
C93    C     0.34548   0.65475   0.74705   0.00000  Uiso   1.00
H37    H     0.35825   0.66476   0.79580   0.00000  Uiso   1.00
H38    H     0.38211   0.61804   0.73481   0.00000  Uiso   1.00
H39    H     0.31281   0.66476   0.79625   0.00000  Uiso   1.00
C94    C     0.31959   0.68044   0.35793   0.00000  Uiso   1.00
H40    H     0.35220   0.67055   0.30890   0.00000  Uiso   1.00
H41    H     0.28284   0.71715   0.37018   0.00000  Uiso   1.00
H42    H     0.30700   0.67031   0.30903   0.00000  Uiso   1.00
C95    C     0.84639   0.65393   0.34626   0.00000  Uiso   1.00
H43    H     0.81384   0.66372   0.29724   0.00000  Uiso   1.00
H44    H     0.88299   0.61727   0.35956   0.00000  Uiso   1.00
H45    H     0.85928   0.66373   0.29679   0.00000  Uiso   1.00
C96    C     0.81934   0.68127   0.73463   0.00000  Uiso   1.00
H46    H     0.80627   0.67158   0.78394   0.00000  Uiso   1.00
H47    H     0.78286   0.71792   0.72133   0.00000  Uiso   1.00
H48    H     0.85195   0.67135   0.78381   0.00000  Uiso   1.00
