# Generated by REPEAT Assigner based on pymatgen
data_DB1-Cu2N8-irmof10_B-irmof20_B_No357
_audit_creation_date              2022-05-24
_audit_creation_method            REPEAT_Assigner
_cell_length_a                    15.188000
_cell_length_b                    17.575000
_cell_length_c                    7.052800
_cell_angle_alpha                 78.425100
_cell_angle_beta                  103.426000
_cell_angle_gamma                 68.071100
_cell_volume                      1610.211478
_symmetry_space_group_name_H-M    P1
_symmetry_Int_Tables_number       1
loop_
    _symmetry_equiv_pos_site_id
    _symmetry_equiv_pos_as_xyz
    1  x,y,z
loop_
    _atom_site_type_symbol
    _atom_site_label
    _atom_site_fract_x
    _atom_site_fract_y
    _atom_site_fract_z
    _atom_type_partial_charge
    Cu  Cu1  0.500000  0.500000  0.000000  0.366103
    Cu  Cu2  0.500000  0.500000  0.500000  0.354942
    N   N1   0.613300  0.499260  0.213220  -0.047320
    N   N2   0.696540  0.500280  0.191030  -0.356400
    N   N3   0.500850  0.402790  0.392830  -0.048454
    N   N4   0.499650  0.331380  0.491240  -0.299292
    N   N5   0.386690  0.500740  0.599180  0.075972
    N   N6   0.303460  0.499720  0.494770  -0.409095
    N   N7   0.499150  0.597210  0.794770  0.112973
    N   N8   0.500350  0.668620  0.822960  -0.506378
    N   N9   0.386700  0.500740  0.786780  -0.060614
    N   N10  0.303460  0.499720  0.808970  -0.331624
    N   N11  0.499150  0.597210  0.607170  0.003398
    N   N12  0.500350  0.668620  0.508760  -0.419680
    N   N13  0.613300  0.499260  0.400820  0.078745
    N   N14  0.696540  0.500280  0.505230  -0.440596
    N   N15  0.500850  0.402790  0.205230  0.115564
    N   N16  0.499650  0.331370  0.177040  -0.455741
    C   C1   0.746540  0.500230  0.373160  0.765087
    C   C2   0.499690  0.288480  0.355610  0.699546
    C   C3   0.253460  0.499770  0.626840  0.721913
    C   C4   0.500310  0.711520  0.644390  0.852142
    C   C5   0.500220  0.795280  0.602470  -0.576977
    C   C6   0.499780  0.204720  0.397530  -0.393481
    C   C7   0.500170  0.836250  0.411900  0.766656
    C   C8   0.500090  0.917730  0.369530  -0.554555
    C   C9   0.499830  0.163750  0.588100  0.553159
    C   C10  0.499910  0.082260  0.630470  -0.474524
    C   C11  0.499820  0.163750  0.247980  -0.037709
    C   C12  0.499910  0.082260  0.287180  -0.252587
    C   C13  0.500170  0.836250  0.752020  0.050211
    C   C14  0.500090  0.917730  0.712820  -0.291510
    C   C15  0.500040  0.958950  0.520550  0.199367
    C   C16  0.499960  0.041050  0.479450  0.197919
    H   H1   0.500060  0.945280  0.237380  0.261079
    H   H2   0.499940  0.054720  0.762620  0.224223
    H   H3   0.499790  0.191630  0.116130  0.134250
    H   H4   0.499940  0.054720  0.182600  0.111728
    H   H5   0.500200  0.808360  0.883870  0.116889
    H   H6   0.500060  0.945280  0.817400  0.130977
    C   C17  0.906310  0.500080  0.603510  0.214188
    S   S1   0.902120  0.500090  0.233970  0.230440
    C   C18  0.093680  0.499910  0.396490  0.204691
    S   S2   0.097870  0.499910  0.766030  0.223757
    C   C19  0.847590  0.500140  0.423730  -0.467095
    C   C20  0.152400  0.499860  0.576270  -0.435974
    C   C21  -0.000000  0.500000  0.403090  -0.066096
    C   C22  -0.000000  0.500000  0.596910  -0.070533
    H   H7   0.549750  0.722230  0.289920  0.434091
    H   H8   0.450720  0.830300  0.086770  0.370740
    N   N17  0.500220  0.792390  0.248430  -1.052099
    H   H9   0.549200  0.240400  0.778240  0.274190
    H   H10  0.450320  0.207060  0.845070  0.332847
    N   N18  0.499780  0.207610  0.751570  -0.790744
    Br  Br1  0.863960  0.500120  0.863160  -0.168307
    Br  Br2  0.136040  0.499880  0.136840  -0.170397
