data_DB1-Zn2O8-AZO_A-irmof8_A_No377_repeat
_audit_creation_date              2024-02-20
_audit_creation_method            'Materials Studio'
_symmetry_space_group_name_H-M    'P1'
_symmetry_Int_Tables_number       1
_symmetry_cell_setting            triclinic
loop_
_symmetry_equiv_pos_as_xyz
  x,y,z
_cell_length_a                    13.1905
_cell_length_b                    37.2665
_cell_length_c                    10.0000
_cell_angle_alpha                 90.0000
_cell_angle_beta                  90.0000
_cell_angle_gamma                 110.5350
loop_
_atom_site_label
_atom_site_type_symbol
_atom_site_fract_x
_atom_site_fract_y
_atom_site_fract_z
_atom_site_U_iso_or_equiv
_atom_site_adp_type
_atom_site_occupancy
O1     O     0.35407   0.50035   0.63579   0.00000  Uiso   1.00
O2     O     0.35386   0.49998   0.36398   0.00000  Uiso   1.00
C1     C     0.30240   0.50011   0.49991   0.00000  Uiso   1.00
Zn1    Zn    0.50004   0.50011   0.66577   0.00000  Uiso   1.00
O3     O     0.55509   0.55516   0.36380   0.00000  Uiso   1.00
O4     O     0.55529   0.55536   0.63562   0.00000  Uiso   1.00
C2     C     0.57456   0.57474   0.49974   0.00000  Uiso   1.00
O5     O     0.64603   0.49972   0.36421   0.00000  Uiso   1.00
O6     O     0.64610   0.49995   0.63602   0.00000  Uiso   1.00
C3     C     0.69760   0.49986   0.50010   0.00000  Uiso   1.00
Zn2    Zn    0.49999   0.49989   0.33423   0.00000  Uiso   1.00
O7     O     0.44474   0.44484   0.63620   0.00000  Uiso   1.00
O8     O     0.44491   0.44464   0.36438   0.00000  Uiso   1.00
C4     C     0.42513   0.42526   0.50026   0.00000  Uiso   1.00
O9     O     0.85061   0.99980   0.26655   0.00000  Uiso   1.00
O10    O     0.85114   0.00017   0.53835   0.00000  Uiso   1.00
C5     C     0.79946   0.00008   0.40243   0.00000  Uiso   1.00
Zn3    Zn    0.99693   0.99991   0.23657   0.00000  Uiso   1.00
O11    O     0.94252   0.94486   0.53853   0.00000  Uiso   1.00
O12    O     0.94231   0.94465   0.26672   0.00000  Uiso   1.00
C6     C     0.92305   0.92528   0.40259   0.00000  Uiso   1.00
O13    O     0.14356   0.00017   0.53812   0.00000  Uiso   1.00
O14    O     0.14317   0.99994   0.26632   0.00000  Uiso   1.00
C7     C     0.19481   0.99998   0.40223   0.00000  Uiso   1.00
Zn4    Zn    0.99731   0.00013   0.56810   0.00000  Uiso   1.00
O15    O     0.05151   0.05518   0.26614   0.00000  Uiso   1.00
O16    O     0.05210   0.05538   0.53795   0.00000  Uiso   1.00
C8     C     0.07084   0.07476   0.40207   0.00000  Uiso   1.00
C9     C     0.88053   0.88251   0.40252   0.00000  Uiso   1.00
C10    C     0.85997   0.86183   0.52364   0.00000  Uiso   1.00
C11    C     0.82004   0.82166   0.52325   0.00000  Uiso   1.00
C12    C     0.79985   0.80136   0.40193   0.00000  Uiso   1.00
C13    C     0.82012   0.82175   0.28137   0.00000  Uiso   1.00
C14    C     0.86004   0.86190   0.28129   0.00000  Uiso   1.00
N1     N     0.75895   0.76022   0.39829   0.00000  Uiso   1.00
N2     N     0.73866   0.73980   0.50405   0.00000  Uiso   1.00
C15    C     0.67748   0.67827   0.62097   0.00000  Uiso   1.00
C16    C     0.69775   0.69866   0.50041   0.00000  Uiso   1.00
C17    C     0.67757   0.67835   0.37908   0.00000  Uiso   1.00
C18    C     0.63764   0.63819   0.37870   0.00000  Uiso   1.00
C19    C     0.61707   0.61751   0.49981   0.00000  Uiso   1.00
C20    C     0.63757   0.63812   0.62104   0.00000  Uiso   1.00
H1     H     0.87499   0.87693   0.61823   0.00000  Uiso   1.00
H2     H     0.80477   0.80630   0.61715   0.00000  Uiso   1.00
H3     H     0.80483   0.80636   0.18743   0.00000  Uiso   1.00
H4     H     0.69278   0.69366   0.71491   0.00000  Uiso   1.00
H5     H     0.69283   0.69371   0.28519   0.00000  Uiso   1.00
H6     H     0.62262   0.62309   0.28411   0.00000  Uiso   1.00
C21    C     0.11408   0.11752   0.40213   0.00000  Uiso   1.00
C22    C     0.13480   0.13818   0.52330   0.00000  Uiso   1.00
C23    C     0.17541   0.17834   0.52304   0.00000  Uiso   1.00
C24    C     0.19614   0.19867   0.40178   0.00000  Uiso   1.00
C25    C     0.17572   0.17831   0.28115   0.00000  Uiso   1.00
C26    C     0.13513   0.13817   0.28096   0.00000  Uiso   1.00
N3     N     0.23775   0.23982   0.39826   0.00000  Uiso   1.00
N4     N     0.25822   0.26020   0.50408   0.00000  Uiso   1.00
C27    C     0.32024   0.32170   0.62118   0.00000  Uiso   1.00
C28    C     0.29983   0.30135   0.50056   0.00000  Uiso   1.00
C29    C     0.32056   0.32168   0.37930   0.00000  Uiso   1.00
C30    C     0.36117   0.36184   0.37903   0.00000  Uiso   1.00
C31    C     0.38188   0.38249   0.50021   0.00000  Uiso   1.00
C32    C     0.36084   0.36185   0.62138   0.00000  Uiso   1.00
H7     H     0.11937   0.12305   0.61785   0.00000  Uiso   1.00
H8     H     0.19079   0.19367   0.61698   0.00000  Uiso   1.00
H9     H     0.19143   0.19372   0.18726   0.00000  Uiso   1.00
H10    H     0.30453   0.30630   0.71507   0.00000  Uiso   1.00
H11    H     0.30518   0.30634   0.28535   0.00000  Uiso   1.00
H12    H     0.37660   0.37697   0.28448   0.00000  Uiso   1.00
C33    C     0.12174   0.50012   0.59784   0.00000  Uiso   1.00
C34    C     0.15939   0.49994   0.36377   0.00000  Uiso   1.00
C35    C     0.05642   0.49986   0.32763   0.00000  Uiso   1.00
C36    C     0.98396   0.49992   0.43234   0.00000  Uiso   1.00
C37    C     0.87826   0.49985   0.40216   0.00000  Uiso   1.00
C38    C     0.84061   0.50003   0.63623   0.00000  Uiso   1.00
C39    C     0.94358   0.50011   0.67237   0.00000  Uiso   1.00
C40    C     0.01604   0.50005   0.56766   0.00000  Uiso   1.00
C41    C     0.19011   0.50006   0.49994   0.00000  Uiso   1.00
C42    C     0.80989   0.49990   0.50006   0.00000  Uiso   1.00
C43    C     0.61806   0.99934   0.30448   0.00000  Uiso   1.00
C44    C     0.65604   0.99949   0.53855   0.00000  Uiso   1.00
C45    C     0.55331   0.99966   0.57469   0.00000  Uiso   1.00
C46    C     0.48079   0.99966   0.46999   0.00000  Uiso   1.00
C47    C     0.37532   0.99983   0.50017   0.00000  Uiso   1.00
C48    C     0.33734   0.99968   0.26610   0.00000  Uiso   1.00
C49    C     0.44007   0.99951   0.22996   0.00000  Uiso   1.00
C50    C     0.51259   0.99951   0.33467   0.00000  Uiso   1.00
C51    C     0.68647   0.99934   0.40238   0.00000  Uiso   1.00
C52    C     0.30691   0.99984   0.40227   0.00000  Uiso   1.00
O17    O     0.87809   0.88005   0.16801   0.00000  Uiso   1.00
Li1    Li    0.86320   0.86508   0.00508   0.00000  Uiso   1.00
O18    O     0.61952   0.61996   0.73433   0.00000  Uiso   1.00
Li2    Li    0.63440   0.63493   0.89725   0.00000  Uiso   1.00
O19    O     0.11695   0.12004   0.16762   0.00000  Uiso   1.00
Li3    Li    0.13236   0.13505   0.00474   0.00000  Uiso   1.00
O20    O     0.37901   0.37998   0.73471   0.00000  Uiso   1.00
Li4    Li    0.36361   0.36497   0.89760   0.00000  Uiso   1.00
O21    O     0.76049   0.50009   0.74400   0.00000  Uiso   1.00
H13    H     0.79757   0.50019   0.84370   0.00000  Uiso   1.00
O22    O     0.97743   0.50024   0.81667   0.00000  Uiso   1.00
H14    H     0.06154   0.50028   0.82120   0.00000  Uiso   1.00
O23    O     0.15468   0.50024   0.74251   0.00000  Uiso   1.00
H15    H     0.23876   0.50028   0.74795   0.00000  Uiso   1.00
O24    O     0.23950   0.49987   0.25599   0.00000  Uiso   1.00
H16    H     0.20240   0.49977   0.15630   0.00000  Uiso   1.00
O25    O     0.02258   0.49972   0.18333   0.00000  Uiso   1.00
H17    H     0.93846   0.49968   0.17880   0.00000  Uiso   1.00
O26    O     0.84532   0.49973   0.25750   0.00000  Uiso   1.00
H18    H     0.76124   0.49969   0.25206   0.00000  Uiso   1.00
O27    O     0.25717   0.99969   0.15833   0.00000  Uiso   1.00
H19    H     0.29402   0.99956   0.05864   0.00000  Uiso   1.00
O28    O     0.47362   0.99935   0.08566   0.00000  Uiso   1.00
H20    H     0.55759   0.99924   0.08113   0.00000  Uiso   1.00
O29    O     0.65071   0.99919   0.15982   0.00000  Uiso   1.00
H21    H     0.73465   0.99908   0.15438   0.00000  Uiso   1.00
O30    O     0.73620   0.99948   0.64634   0.00000  Uiso   1.00
H22    H     0.69933   0.99961   0.74603   0.00000  Uiso   1.00
O31    O     0.51977   0.99983   0.71900   0.00000  Uiso   1.00
H23    H     0.43581   0.99995   0.72353   0.00000  Uiso   1.00
O32    O     0.34266   0.99998   0.64483   0.00000  Uiso   1.00
H24    H     0.25872   0.00009   0.65027   0.00000  Uiso   1.00
