# Generated by REPEAT Assigner based on pymatgen
data_DB1-Cu2O8N2-irmof8_A-TED_A_No16
_audit_creation_date              2022-05-24
_audit_creation_method            REPEAT_Assigner
_cell_length_a                    10.868700
_cell_length_b                    12.990200
_cell_length_c                    11.341200
_cell_angle_alpha                 89.999100
_cell_angle_beta                  90.137700
_cell_angle_gamma                 92.948800
_cell_volume                      1599.100514
_symmetry_space_group_name_H-M    P1
_symmetry_Int_Tables_number       1
loop_
    _symmetry_equiv_pos_site_id
    _symmetry_equiv_pos_as_xyz
    1  x,y,z
loop_
    _atom_site_type_symbol
    _atom_site_label
    _atom_site_fract_x
    _atom_site_fract_y
    _atom_site_fract_z
    _atom_type_partial_charge
    Cu  Cu1  0.500010  0.500000  0.387790  1.219855
    Cu  Cu2  0.500010  0.500000  0.612210  1.008994
    O   O1   0.660200  0.507150  0.395720  -0.625067
    O   O2   0.339490  0.493130  0.394990  -0.573060
    O   O3   0.499700  0.634120  0.395350  -0.453897
    O   O4   0.499990  0.366160  0.395360  -0.542280
    O   O5   0.500270  0.365870  0.604650  -0.467170
    O   O6   0.500070  0.633830  0.604640  -0.404214
    O   O7   0.339680  0.492980  0.604270  -0.621410
    O   O8   0.660520  0.506830  0.605010  -0.523052
    C   C1   0.731070  0.510140  0.500530  0.363007
    C   C2   0.268950  0.489860  0.499470  0.469471
    C   C3   0.499900  0.693060  0.500000  0.446507
    C   C4   0.500110  0.306930  0.500010  0.595897
    C   C5   0.436200  0.550490  0.141270  0.220630
    C   C6   0.588790  0.429750  0.185670  -0.030341
    C   C7   0.612370  0.411090  0.066060  0.130518
    C   C8   0.544120  0.465090  0.981530  -0.040736
    C   C9   0.563820  0.449500  0.858730  0.129187
    C   C10  0.411230  0.570250  0.814330  -0.012221
    C   C11  0.387640  0.588910  0.933940  0.003628
    C   C12  0.455890  0.534900  0.018470  0.044197
    N   N1   0.500010  0.500000  0.221020  -0.172462
    N   N2   0.500010  0.500000  0.778980  -0.012397
    H   H1   0.639080  0.389940  0.252560  0.197167
    H   H2   0.360940  0.610040  0.747430  0.122789
    C   C13  0.499900  0.123460  0.413700  0.154902
    C   C14  0.500270  0.161930  0.620080  0.056275
    C   C15  0.500300  0.057450  0.651970  -0.105719
    C   C16  0.500110  0.983790  0.559660  0.232477
    C   C17  0.500120  0.876530  0.586300  -0.093442
    C   C18  0.499740  0.838070  0.379930  -0.158135
    C   C19  0.499720  0.942540  0.348030  0.188740
    C   C20  0.499910  0.016210  0.440340  -0.077074
    C   C21  0.500070  0.192960  0.500000  -0.153940
    C   C22  0.499940  0.807030  0.500000  0.053453
    H   H3   0.500400  0.220220  0.688110  0.027942
    H   H4   0.499610  0.779760  0.311910  0.183684
    C   C23  0.916900  0.401700  0.468920  0.090844
    C   C24  0.058220  0.396240  0.469260  -0.122296
    C   C25  0.130460  0.495080  0.499740  0.229577
    C   C26  0.078060  0.571040  0.414900  0.026290
    C   C27  0.936730  0.576700  0.415570  -0.110047
    C   C28  0.868190  0.504970  0.500260  0.431983
    C   C29  0.932280  0.529900  0.615860  -0.284010
    C   C30  0.073750  0.525020  0.615450  0.088454
    H   H5   0.876840  0.341810  0.533610  -0.043544
    H   H6   0.879610  0.381950  0.377200  -0.025766
    H   H7   0.088260  0.370120  0.378270  0.009288
    H   H8   0.086280  0.336720  0.536740  0.029383
    H   H9   0.108010  0.550560  0.321900  0.016862
    H   H10  0.117050  0.652040  0.436340  -0.010737
    H   H11  0.900920  0.559530  0.322700  0.018343
    H   H12  0.911540  0.657960  0.440520  0.007334
    H   H13  0.893430  0.474160  0.685680  0.158322
    H   H14  0.912200  0.611630  0.643850  0.059444
    H   H15  0.115690  0.603750  0.642550  0.009478
    H   H16  0.096980  0.466720  0.686190  -0.017665
    O   O9   0.322360  0.735670  0.071110  -0.134506
    O   O10  0.172580  0.663960  0.912870  -0.288502
    N   N3   0.293450  0.663440  0.972950  0.273822
    O   O11  0.370030  0.697890  0.277080  -0.252893
    O   O12  0.221250  0.625410  0.118430  -0.136784
    N   N4   0.341740  0.625190  0.179230  0.140323
    O   O13  0.791480  0.364450  0.929160  -0.221898
    O   O14  0.713580  0.235870  0.086880  -0.217129
    N   N5   0.706560  0.336540  0.027060  0.210423
    O   O15  0.743800  0.402280  0.723200  -0.287033
    O   O16  0.664960  0.274410  0.881270  -0.133035
    N   N6   0.658270  0.374810  0.820770  0.300783
    O   O17  0.580020  0.065870  0.182820  -0.070791
    O   O18  0.418790  0.921130  0.134090  -0.133818
    N   N7   0.499510  0.976790  0.220640  0.046412
    O   O19  0.580140  0.245600  0.247340  -0.227050
    O   O20  0.418930  0.100490  0.199940  -0.116967
    N   N8   0.499650  0.156780  0.285980  0.138972
    O   O21  0.581070  0.941020  0.817310  -0.189755
    O   O22  0.420110  0.071990  0.865800  -0.240084
    N   N9   0.500490  0.023220  0.779370  0.330143
    O   O23  0.580990  0.761310  0.752740  -0.257308
    O   O24  0.419990  0.892570  0.799980  -0.164370
    N   N10  0.500370  0.843210  0.714020  0.286804
