# Generated by REPEAT Assigner based on pymatgen
data_DB1-Cu2O8N2-ADC_A-irmof20_A_No527
_audit_creation_date              2022-05-24
_audit_creation_method            REPEAT_Assigner
_cell_length_a                    15.849400
_cell_length_b                    17.521800
_cell_length_c                    12.501100
_cell_angle_alpha                 89.919000
_cell_angle_beta                  87.674600
_cell_angle_gamma                 95.290000
_cell_volume                      3454.001038
_symmetry_space_group_name_H-M    P1
_symmetry_Int_Tables_number       1
loop_
    _symmetry_equiv_pos_site_id
    _symmetry_equiv_pos_as_xyz
    1  x,y,z
loop_
    _atom_site_type_symbol
    _atom_site_label
    _atom_site_fract_x
    _atom_site_fract_y
    _atom_site_fract_z
    _atom_type_partial_charge
    Cu  Cu1  0.419400  0.497030  0.504150  0.654531
    Cu  Cu2  0.580590  0.502960  0.495860  0.950004
    O   O1   0.424830  0.497280  0.642960  -0.251107
    O   O2   0.424850  0.497410  0.364500  -0.437727
    O   O3   0.430560  0.597020  0.503310  -0.499752
    O   O4   0.419120  0.397670  0.504150  -0.310185
    O   O5   0.569430  0.402970  0.496660  -0.535790
    O   O6   0.580870  0.602320  0.495900  -0.366227
    O   O7   0.575170  0.502810  0.356930  -0.497393
    O   O8   0.575140  0.502560  0.635510  -0.464333
    C   C1   0.499990  0.499930  0.700630  0.372102
    C   C2   0.500010  0.500060  0.299380  0.486011
    C   C3   0.508240  0.643630  0.499500  0.472299
    C   C4   0.491760  0.356360  0.500520  0.498455
    N   N1   0.299620  0.492630  0.510320  -0.247900
    C   C5   0.256760  0.539950  0.444070  0.085602
    C   C6   0.168050  0.536760  0.448540  -0.444296
    C   C7   0.119570  0.485920  0.519700  0.398848
    C   C8   0.162570  0.438730  0.585760  -0.537388
    C   C9   0.251200  0.441950  0.581250  0.661748
    C   C10  0.024950  0.479420  0.528810  -0.262173
    C   C11  0.975050  0.520580  0.471190  -0.261072
    C   C12  0.837420  0.561270  0.414240  -0.400602
    C   C13  0.880430  0.514070  0.480300  0.342349
    C   C14  0.831960  0.463240  0.551460  -0.403966
    C   C15  0.743240  0.460040  0.555940  0.077638
    N   N2   0.700380  0.507360  0.489700  -0.292829
    C   C16  0.748790  0.558040  0.418750  0.552897
    H   H1   0.292410  0.579490  0.388730  0.117393
    H   H2   0.138850  0.574390  0.395870  0.119851
    H   H3   0.127410  0.399030  0.641340  0.041491
    H   H4   0.872580  0.600970  0.358660  -0.028475
    H   H5   0.861150  0.425610  0.604140  0.121828
    H   H6   0.707590  0.420500  0.611280  0.119174
    H   H7   0.996220  0.438170  0.586550  0.179758
    H   H8   0.003770  0.561830  0.413440  0.183514
    C   C17  0.486850  0.270840  0.500740  -0.211279
    C   C18  0.561060  0.232340  0.497060  -0.074494
    C   C19  0.556560  0.152120  0.497260  -0.351349
    C   C20  0.477360  0.108020  0.501160  0.392387
    C   C21  0.403350  0.146640  0.504820  -0.588289
    C   C22  0.407900  0.226790  0.504620  0.640031
    C   C23  0.467710  0.022450  0.501610  -0.254823
    C   C24  0.532320  0.977550  0.498410  -0.256286
    C   C25  0.596670  0.853340  0.495200  -0.529073
    C   C26  0.522670  0.891970  0.498860  0.368233
    C   C27  0.443460  0.847870  0.502750  -0.325784
    C   C28  0.438950  0.767650  0.502950  -0.099292
    C   C29  0.513160  0.729150  0.499280  -0.152883
    C   C30  0.592110  0.773200  0.495400  0.523130
    H   H9   0.622660  0.264790  0.494030  0.124925
    H   H10  0.615530  0.125930  0.494350  0.125870
    H   H11  0.341490  0.114640  0.507860  0.108647
    H   H12  0.658540  0.885340  0.492150  0.093651
    H   H13  0.384480  0.874060  0.505670  0.117448
    H   H14  0.377350  0.735210  0.505980  0.132505
    H   H15  0.403390  0.996250  0.504770  0.162049
    H   H16  0.596650  0.003740  0.495240  0.160185
    C   C31  0.432830  0.497620  0.892810  -0.167607
    S   S1   0.596930  0.503370  0.879400  0.015138
    C   C32  0.567170  0.502370  0.107200  -0.282728
    H   H17  0.623370  0.504350  0.126710  0.209914
    S   S2   0.403070  0.496620  0.120610  -0.027226
    C   C33  0.499990  0.499960  0.819990  -0.074285
    C   C34  0.500010  0.500030  0.180020  -0.042090
    C   C35  0.543280  0.501510  0.997780  0.131277
    C   C36  0.456720  0.498480  0.002240  -0.013255
    O   O9   0.288580  0.397480  0.643510  -0.777631
    Li  Li1  0.251540  0.330270  0.737600  0.769501
    O   O10  0.711410  0.602510  0.356500  -0.656338
    Li  Li2  0.748440  0.669730  0.262410  0.689263
    O   O11  0.338170  0.260340  0.508070  -0.848389
    Li  Li3  0.233310  0.226490  0.513230  0.773753
    O   O12  0.661830  0.739640  0.491950  -0.750513
    Li  Li4  0.766700  0.773480  0.486780  0.688178
    C   C37  0.341150  0.494390  0.860970  0.488727
    O   O13  0.284520  0.525810  0.923880  -0.492823
    O   O14  0.320170  0.464490  0.775810  -0.281280
    H   H18  0.311370  0.538850  0.994630  0.348629
