# Generated by REPEAT Assigner based on pymatgen
data_DB1-Zn2O8N2-AZO_A-irmof20_A_No23
_audit_creation_date              2022-05-24
_audit_creation_method            REPEAT_Assigner
_cell_length_a                    16.492400
_cell_length_b                    17.476600
_cell_length_c                    12.701700
_cell_angle_alpha                 89.859300
_cell_angle_beta                  92.281100
_cell_angle_gamma                 84.449300
_cell_volume                      3640.897470
_symmetry_space_group_name_H-M    P1
_symmetry_Int_Tables_number       1
loop_
    _symmetry_equiv_pos_site_id
    _symmetry_equiv_pos_as_xyz
    1  x,y,z
loop_
    _atom_site_type_symbol
    _atom_site_label
    _atom_site_fract_x
    _atom_site_fract_y
    _atom_site_fract_z
    _atom_type_partial_charge
    O   O1   0.589230  0.385950  0.505640  -0.654414
    O   O2   0.423760  0.392510  0.496070  -0.602100
    C   C1   0.508820  0.350200  0.500850  0.530787
    Zn  Zn1  0.600910  0.496030  0.505510  1.015964
    O   O3   0.417100  0.503320  0.647270  -0.489486
    O   O4   0.582570  0.496880  0.656380  -0.490230
    C   C2   0.499860  0.500070  0.705350  0.419029
    O   O5   0.410770  0.614070  0.494560  -0.653592
    O   O6   0.576240  0.607520  0.503740  -0.602232
    C   C3   0.491180  0.649820  0.499070  0.530639
    Zn  Zn2  0.399090  0.504000  0.494500  1.015463
    O   O7   0.582900  0.496550  0.352730  -0.490137
    O   O8   0.417420  0.503270  0.343630  -0.490578
    C   C4   0.500150  0.499690  0.294660  0.419811
    N   N1   0.280370  0.508690  0.488020  -0.214623
    C   C5   0.239230  0.461310  0.553490  -0.006851
    C   C6   0.153890  0.464810  0.548650  -0.133736
    C   C7   0.107950  0.515690  0.478340  0.423429
    C   C8   0.148490  0.562870  0.413150  -0.365982
    C   C9   0.233780  0.559560  0.417730  0.298129
    N   N2   0.020460  0.520600  0.471560  -0.210602
    N   N3   0.979530  0.479420  0.528460  -0.210953
    C   C10  0.851510  0.437150  0.586870  -0.365601
    C   C11  0.892040  0.484330  0.521680  0.423234
    C   C12  0.846110  0.535210  0.451380  -0.133222
    C   C13  0.760770  0.538710  0.446530  -0.007592
    N   N4   0.719630  0.491330  0.512000  -0.214223
    C   C14  0.766220  0.440460  0.582290  0.297748
    H   H1   0.273490  0.421700  0.608220  0.166118
    H   H2   0.123430  0.428020  0.599480  0.073532
    H   H3   0.113640  0.602240  0.358750  0.145262
    H   H4   0.263780  0.596610  0.366540  0.087283
    H   H5   0.886360  0.397780  0.641270  0.145220
    H   H6   0.876570  0.572000  0.400540  0.073267
    H   H7   0.726500  0.578320  0.391800  0.166643
    H   H8   0.736220  0.403410  0.633490  0.087420
    C   C15  0.513930  0.264460  0.501040  -0.061421
    C   C16  0.442650  0.225890  0.497040  -0.161828
    C   C17  0.447640  0.145360  0.497220  -0.080305
    C   C18  0.523890  0.101780  0.501400  0.430867
    C   C19  0.594870  0.139780  0.505380  -0.354680
    C   C20  0.590170  0.220260  0.505210  0.057036
    N   N5   0.530980  0.019210  0.501700  -0.243731
    N   N6   0.469020  0.980810  0.498220  -0.243389
    C   C21  0.405130  0.860240  0.494530  -0.354343
    C   C22  0.476110  0.898250  0.498520  0.430665
    C   C23  0.552360  0.854660  0.502700  -0.080975
    C   C24  0.557350  0.774130  0.502880  -0.160722
    C   C25  0.486070  0.735560  0.498880  -0.062239
    C   C26  0.409830  0.779760  0.494700  0.057653
    H   H9   0.383280  0.258410  0.493780  0.156734
    H   H10  0.392300  0.116810  0.494120  0.053064
    H   H11  0.653880  0.106700  0.508620  0.140838
    H   H12  0.645900  0.248370  0.508340  0.097745
    H   H13  0.346120  0.893320  0.491300  0.140608
    H   H14  0.607700  0.883210  0.505800  0.053253
    H   H15  0.616720  0.741610  0.506140  0.156477
    H   H16  0.354100  0.751650  0.491580  0.097449
    C   C27  0.564520  0.497440  0.894390  -0.034934
    S   S1   0.406770  0.503580  0.881460  0.024371
    C   C28  0.435490  0.502320  0.105620  -0.035288
    S   S2   0.593250  0.496180  0.118540  0.023891
    C   C29  0.499920  0.499990  0.822830  -0.009531
    C   C30  0.500090  0.499770  0.177180  -0.009346
    C   C31  0.458400  0.501500  0.997880  0.056719
    C   C32  0.541610  0.498260  0.002130  0.057703
    Br  Br1  0.685080  0.492780  0.851310  -0.062699
    Br  Br2  0.314940  0.506980  0.148700  -0.062465
