# Generated by REPEAT Assigner based on pymatgen
data_DB1-Cu2O8-pcn6_B-TDPAT_No287
_audit_creation_date              2022-05-24
_audit_creation_method            REPEAT_Assigner
_cell_length_a                    35.535300
_cell_length_b                    35.535200
_cell_length_c                    35.476300
_cell_angle_alpha                 60.152900
_cell_angle_beta                  60.055200
_cell_angle_gamma                 60.000200
_cell_volume                      31726.585347
_symmetry_space_group_name_H-M    P1
_symmetry_Int_Tables_number       1
loop_
    _symmetry_equiv_pos_site_id
    _symmetry_equiv_pos_as_xyz
    1  x,y,z
loop_
    _atom_site_type_symbol
    _atom_site_label
    _atom_site_fract_x
    _atom_site_fract_y
    _atom_site_fract_z
    _atom_type_partial_charge
    Br  Br1   0.109470  0.550260  0.444560  0.014679
    Br  Br2   0.218040  0.515830  0.438490  -0.006558
    Br  Br3   0.123180  0.351460  0.509470  0.020712
    Br  Br4   0.235420  0.316680  0.502200  -0.074336
    Br  Br5   0.316970  0.217800  0.438640  -0.009305
    Br  Br6   0.385040  0.109230  0.444770  0.023431
    Br  Br7   0.435330  0.235450  0.502170  -0.063433
    Br  Br8   0.505530  0.123220  0.509480  0.030901
    Br  Br9   0.316660  0.435310  0.502220  -0.074419
    Br  Br10  0.351410  0.505540  0.509510  0.009226
    Br  Br11  0.516000  0.316870  0.438500  -0.012818
    Br  Br12  0.550400  0.384970  0.444580  0.025833
    Br  Br13  0.551020  0.110190  0.895080  0.012041
    Br  Br14  0.516420  0.218600  0.827160  0.001098
    Br  Br15  0.352120  0.123770  0.015420  0.010930
    Br  Br16  0.317160  0.235840  0.945380  -0.076886
    Br  Br17  0.218270  0.317380  0.026280  -0.003648
    Br  Br18  0.109590  0.385330  0.060780  0.012261
    Br  Br19  0.235600  0.435440  0.827010  -0.077567
    Br  Br20  0.123250  0.505510  0.861860  0.012757
    Br  Br21  0.435630  0.316950  0.745580  -0.077320
    Br  Br22  0.505770  0.351630  0.633370  0.016178
    Br  Br23  0.316980  0.516090  0.728580  -0.007373
    Br  Br24  0.384990  0.550430  0.620040  0.011283
    Br  Br25  0.109080  0.935680  0.895210  0.021231
    Br  Br26  0.217680  0.929390  0.827270  -0.011678
    Br  Br27  0.122330  0.001400  0.015540  0.026418
    Br  Br28  0.234600  0.993900  0.945480  -0.064559
    Br  Br29  0.315930  0.930870  0.026350  -0.014475
    Br  Br30  0.383790  0.937330  0.060830  0.018027
    Br  Br31  0.434530  0.993530  0.827060  -0.075896
    Br  Br32  0.504510  0.001180  0.861890  0.013409
    Br  Br33  0.316250  0.992910  0.745670  -0.073903
    Br  Br34  0.351240  0.999610  0.633450  0.020351
    Br  Br35  0.515460  0.929340  0.728620  -0.006748
    Br  Br36  0.550090  0.934870  0.620070  0.017271
    Br  Br37  0.934650  0.552080  0.895110  0.014544
    Br  Br38  0.928530  0.517300  0.827170  -0.009970
    Br  Br39  0.000050  0.353520  0.015410  0.016467
    Br  Br40  0.992740  0.318380  0.945350  -0.076207
    Br  Br41  0.929490  0.219710  0.026220  -0.006693
    Br  Br42  0.935850  0.111130  0.060690  0.015434
    Br  Br43  0.992690  0.236510  0.826930  -0.076122
    Br  Br44  0.000240  0.124270  0.861750  0.018213
    Br  Br45  0.992280  0.436310  0.745560  -0.066723
    Br  Br46  0.999290  0.506140  0.633350  0.030890
    Br  Br47  0.928750  0.317620  0.728520  -0.005250
    Br  Br48  0.934570  0.385330  0.619980  0.030602
    C   C1    0.464780  0.464820  0.585190  0.304498
    C   C2    0.628880  0.780370  0.517190  0.043665
    C   C3    0.827550  0.539790  0.516930  -0.177688
    C   C4    0.780280  0.563240  0.517330  0.016755
    C   C5    0.539820  0.605520  0.516590  -0.195696
    C   C6    0.563230  0.629010  0.517000  0.040294
    C   C7    0.535220  0.535170  0.414820  0.513170
    C   C8    0.609630  0.609740  0.517250  -0.286940
    C   C9    0.633820  0.633900  0.517330  0.931585
    C   C10   0.753050  0.609740  0.517240  -0.278511
    C   C11   0.704610  0.633900  0.517330  0.941417
    C   C12   0.609650  0.753090  0.517260  -0.300154
    C   C13   0.633830  0.704660  0.517330  0.961198
    C   C14   0.345570  0.298020  0.472340  0.901155
    C   C15   0.464730  0.464690  0.485330  0.432650
    C   C16   0.373580  0.345500  0.472330  0.882983
    C   C17   0.298100  0.373510  0.472320  0.915046
    C   C18   0.197340  0.386460  0.485390  -0.060659
    C   C19   0.217510  0.418790  0.472210  0.495888
    C   C20   0.386490  0.420320  0.485410  -0.060182
    C   C21   0.418860  0.380920  0.472230  0.513659
    C   C22   0.535270  0.535310  0.514680  0.356624
    C   C23   0.380970  0.217420  0.472270  0.523056
    C   C24   0.420360  0.197290  0.485430  -0.049593
    C   C25   0.465840  0.372660  0.460190  -0.233316
    C   C26   0.480000  0.401370  0.463000  -0.057600
    C   C27   0.448210  0.439740  0.478680  0.169785
    C   C28   0.400940  0.449220  0.488440  -0.131963
    C   C29   0.449240  0.150920  0.488470  -0.206578
    C   C30   0.439770  0.122810  0.478750  0.251498
    C   C31   0.401420  0.144970  0.463100  -0.101641
    C   C32   0.372720  0.190640  0.460280  -0.223849
    C   C33   0.190790  0.465730  0.460170  -0.211527
    C   C34   0.145120  0.479910  0.462970  -0.083469
    C   C35   0.122900  0.448160  0.478650  0.230295
    C   C36   0.150970  0.400920  0.488410  -0.170477
    C   C37   0.298370  0.345870  0.883850  0.836639
    C   C38   0.345790  0.373840  0.808400  0.829212
    C   C39   0.373920  0.298480  0.855770  0.839882
    C   C40   0.387030  0.197850  0.930400  -0.041816
    C   C41   0.419330  0.218010  0.891080  0.496304
    C   C42   0.420550  0.386700  0.707620  -0.017730
    C   C43   0.381120  0.419040  0.727860  0.455308
    C   C44   0.217710  0.381220  0.929170  0.478978
    C   C45   0.197500  0.420510  0.896850  -0.036289
    C   C46   0.372800  0.465970  0.701230  -0.195946
    C   C47   0.401480  0.480110  0.655560  -0.105202
    C   C48   0.439870  0.448330  0.633270  0.297043
    C   C49   0.449420  0.401120  0.661250  -0.207529
    C   C50   0.151090  0.449350  0.911340  -0.183640
    C   C51   0.123010  0.439910  0.958610  0.261209
    C   C52   0.145260  0.401650  0.990370  -0.094356
    C   C53   0.190980  0.373000  0.976170  -0.209026
    C   C54   0.466340  0.191360  0.882820  -0.222460
    C   C55   0.480590  0.145750  0.911460  -0.079675
    C   C56   0.448860  0.123540  0.949740  0.232700
    C   C57   0.401560  0.151540  0.959220  -0.177519
    C   C58   0.558940  0.558890  0.365730  0.049011
    C   C59   0.558670  0.854760  0.069990  -0.034887
    C   C60   0.855240  0.558850  0.069540  0.032729
    C   C61   0.539630  0.605190  0.338090  -0.125081
    C   C62   0.563060  0.628600  0.290860  0.019785
    C   C63   0.605180  0.827260  0.050750  -0.088139
    C   C64   0.628710  0.780010  0.074090  0.004599
    C   C65   0.827620  0.539650  0.115920  -0.116870
    C   C66   0.780310  0.563050  0.139410  0.018281
    C   C67   0.827560  0.605220  0.050380  -0.197643
    C   C68   0.780250  0.628650  0.073840  0.054377
    C   C69   0.539430  0.827090  0.116300  -0.154694
    C   C70   0.562920  0.779870  0.139650  0.031919
    C   C71   0.605450  0.539710  0.338170  -0.200557
    C   C72   0.628920  0.563090  0.290910  0.054272
    C   C73   0.609590  0.609430  0.263610  -0.292049
    C   C74   0.633740  0.633590  0.215210  0.948230
    C   C75   0.609460  0.752680  0.120430  -0.274301
    C   C76   0.633670  0.704290  0.144550  0.943173
    C   C77   0.752980  0.609450  0.120250  -0.293095
    C   C78   0.704520  0.633600  0.144460  0.949285
    C   C79   0.344800  0.963840  0.883920  0.879866
    C   C80   0.372980  0.963440  0.808470  0.916793
    C   C81   0.297490  0.963570  0.855850  0.906137
    C   C82   0.196650  0.976920  0.930510  -0.051981
    C   C83   0.216920  0.963530  0.891180  0.519829
    C   C84   0.386120  0.975970  0.707690  -0.059625
    C   C85   0.418400  0.962950  0.727930  0.499119
    C   C86   0.380030  0.964100  0.929230  0.494084
    C   C87   0.419420  0.977150  0.896900  -0.049653
    C   C88   0.465400  0.950820  0.701280  -0.213258
    C   C89   0.479670  0.953390  0.655610  -0.085002
    C   C90   0.447950  0.968910  0.633330  0.230786
    C   C91   0.400660  0.978770  0.661330  -0.173541
    C   C92   0.448220  0.980330  0.911380  -0.148828
    C   C93   0.438650  0.970860  0.958650  0.214491
    C   C94   0.400300  0.955310  0.990420  -0.079600
    C   C95   0.371690  0.952350  0.976220  -0.214526
    C   C96   0.190290  0.951380  0.882930  -0.223135
    C   C97   0.144600  0.954270  0.911580  -0.095405
    C   C98   0.464570  0.975310  0.585250  0.412142
    C   C99   0.122280  0.970160  0.949870  0.245294
    C   C100  0.150260  0.980030  0.959340  -0.198921
    C   C101  0.559240  0.005200  0.365780  0.017028
    C   C102  0.855920  0.003560  0.069990  0.118420
    C   C103  0.559990  0.003310  0.069610  0.117857
    C   C104  0.605610  0.005680  0.338130  -0.111279
    C   C105  0.535380  0.003840  0.414880  0.552092
    C   C106  0.629150  0.005790  0.290900  0.014568
    C   C107  0.828470  0.003670  0.050760  -0.206919
    C   C108  0.781160  0.004180  0.074100  0.080692
    C   C109  0.540660  0.004030  0.116000  -0.163566
    C   C110  0.564010  0.004590  0.139480  0.047183
    C   C111  0.464700  0.074740  0.485400  0.412416
    C   C112  0.606410  0.003670  0.050450  -0.223710
    C   C113  0.629780  0.004230  0.073900  0.068430
    C   C114  0.828120  0.004450  0.116300  -0.242688
    C   C115  0.780840  0.004950  0.139670  0.078737
    C   C116  0.540130  0.005260  0.338230  -0.193955
    C   C117  0.535250  0.904420  0.514730  0.573137
    C   C118  0.563630  0.005380  0.290970  0.050473
    C   C119  0.610050  0.005500  0.263660  -0.294451
    C   C120  0.634340  0.005300  0.215260  0.965173
    C   C121  0.753690  0.004710  0.120450  -0.339745
    C   C122  0.705240  0.004910  0.144580  0.985045
    C   C123  0.610450  0.004580  0.120310  -0.319890
    C   C124  0.634540  0.004830  0.144510  0.960470
    C   C125  0.962840  0.299420  0.883800  0.912276
    C   C126  0.962640  0.346640  0.808360  0.903511
    C   C127  0.962650  0.374900  0.855740  0.875942
    C   C128  0.975790  0.388200  0.930380  -0.060386
    C   C129  0.962510  0.420400  0.891060  0.510309
    C   C130  0.975450  0.421130  0.707580  -0.046533
    C   C131  0.962360  0.381750  0.727820  0.528118
    C   C132  0.962980  0.218900  0.929110  0.505332
    C   C133  0.976110  0.198600  0.896770  -0.059782
    C   C134  0.950300  0.373360  0.701170  -0.232559
    C   C135  0.953000  0.401910  0.655520  -0.097580
    C   C136  0.968580  0.440250  0.633240  0.245677
    C   C137  0.978360  0.449870  0.661220  -0.207927
    C   C138  0.979260  0.152230  0.911250  -0.166809
    C   C139  0.969660  0.124290  0.958510  0.197385
    C   C140  0.954020  0.146620  0.990290  -0.063393
    C   C141  0.951100  0.192290  0.976090  -0.224980
    C   C142  0.950380  0.467380  0.882820  -0.228144
    C   C143  0.953200  0.481700  0.911470  -0.068735
    C   C144  0.968980  0.450080  0.949750  0.203794
    C   C145  0.978830  0.402810  0.959220  -0.142818
    C   C146  0.005590  0.558590  0.365700  -0.019660
    C   C147  0.004740  0.557520  0.069920  0.024493
    C   C148  0.004490  0.854070  0.069560  0.008914
    C   C149  0.006140  0.539210  0.338050  -0.119089
    C   C150  0.006380  0.562510  0.290820  0.033245
    C   C151  0.004900  0.603980  0.050700  -0.103252
    C   C152  0.005350  0.627570  0.074040  0.012682
    C   C153  0.005090  0.826580  0.115940  -0.115784
    C   C154  0.005590  0.779340  0.139420  0.023280
    C   C155  0.004900  0.826340  0.050400  -0.195613
    C   C156  0.005400  0.779100  0.073840  0.056630
    C   C157  0.005500  0.538410  0.116230  -0.172425
    C   C158  0.005940  0.561970  0.139600  0.041750
    C   C159  0.005720  0.605020  0.338150  -0.162956
    C   C160  0.005970  0.628360  0.290890  0.032561
    C   C161  0.006160  0.608970  0.263590  -0.290851
    C   C162  0.006090  0.632980  0.215190  0.962364
    C   C163  0.005750  0.608450  0.120390  -0.287245
    C   C164  0.005890  0.632730  0.144510  0.942262
    C   C165  0.005620  0.751960  0.120250  -0.301437
    C   C166  0.005810  0.703560  0.144450  0.961465
    C   C167  0.632460  0.490540  0.516920  0.638780
    C   C168  0.975110  0.465020  0.585150  0.423556
    C   C169  0.004100  0.535010  0.414790  0.572020
    C   C170  0.074810  0.464710  0.485280  0.404839
    C   C171  0.904400  0.535320  0.514660  0.552287
    C   C172  0.975350  0.464400  0.975070  0.401952
    C   C173  0.003960  0.535520  0.045860  0.538723
    C   C174  0.074890  0.464790  0.975160  0.361551
    C   C175  0.904420  0.535130  0.045760  0.528013
    C   C176  0.465860  0.975780  0.974120  0.382410
    C   C177  0.535970  0.005060  0.045310  0.470479
    C   C178  0.465480  0.075510  0.974600  0.395998
    C   C179  0.536350  0.905330  0.044840  0.580780
    C   C180  0.974440  0.076680  0.974280  0.447211
    C   C181  0.003550  0.906530  0.045460  0.552604
    C   C182  0.074190  0.976860  0.974730  0.406324
    C   C183  0.903800  0.006340  0.045010  0.480745
    C   C184  0.559020  0.559040  0.516330  0.073150
    C   C185  0.855260  0.559050  0.516310  0.013948
    C   C186  0.559000  0.855280  0.516380  -0.022657
    C   C187  0.605380  0.539790  0.516940  -0.157377
    C   C188  0.628810  0.563230  0.517340  0.058474
    C   C189  0.827730  0.605530  0.516570  -0.106020
    C   C190  0.780430  0.629010  0.516990  0.012564
    C   C191  0.539770  0.827640  0.516810  -0.120292
    C   C192  0.563200  0.780370  0.517200  0.039944
    C   C193  0.605430  0.827650  0.516810  -0.166210
    Cu  Cu1   0.464160  0.535790  0.500070  1.117952
    Cu  Cu2   0.535840  0.464210  0.499940  1.074614
    Cu  Cu3   0.535770  0.989570  0.500120  1.114817
    Cu  Cu4   0.464190  0.989580  0.500010  1.116966
    Cu  Cu5   0.989600  0.464180  0.500020  1.120161
    Cu  Cu6   0.989610  0.535850  0.499920  1.112149
    Cu  Cu7   0.989580  0.535690  0.974670  1.150927
    Cu  Cu8   0.989730  0.464230  0.046260  1.141241
    Cu  Cu9   0.465080  0.990400  0.045500  1.151738
    Cu  Cu10  0.536750  0.990440  0.973930  1.143664
    Cu  Cu11  0.988880  0.991890  0.045660  1.114067
    Cu  Cu12  0.989100  0.991310  0.974090  1.108936
    H   H1    0.662000  0.765270  0.517350  0.074673
    H   H2    0.842500  0.506620  0.516920  0.144795
    H   H3    0.765110  0.545030  0.517620  0.100168
    H   H4    0.506730  0.623740  0.516280  0.146454
    H   H5    0.545120  0.662180  0.517030  0.077473
    H   H6    0.263900  0.437490  0.467050  0.303305
    H   H7    0.437580  0.320950  0.467070  0.329646
    H   H8    0.321030  0.263790  0.467110  0.326187
    H   H9    0.437970  0.264340  0.831190  0.323864
    H   H10   0.321140  0.437740  0.774290  0.318659
    H   H11   0.264190  0.321370  0.947820  0.318862
    H   H12   0.506440  0.623410  0.353060  0.113187
    H   H13   0.544820  0.661640  0.275740  0.079491
    H   H14   0.623390  0.842420  0.017700  0.107341
    H   H15   0.661910  0.764940  0.055960  0.081115
    H   H16   0.842650  0.506560  0.134140  0.113888
    H   H17   0.765220  0.544900  0.172490  0.081736
    H   H18   0.842540  0.623460  0.017290  0.140808
    H   H19   0.765110  0.661730  0.055720  0.074440
    H   H20   0.506230  0.842020  0.134550  0.131865
    H   H21   0.544720  0.764720  0.172700  0.078334
    H   H22   0.623710  0.506660  0.353300  0.148427
    H   H23   0.662110  0.545000  0.275800  0.075990
    H   H24   0.263410  0.958090  0.831290  0.329456
    H   H25   0.436980  0.958090  0.774350  0.304095
    H   H26   0.320140  0.958930  0.947890  0.326747
    H   H27   0.623800  0.005780  0.353090  0.114136
    H   H28   0.662230  0.006020  0.275770  0.081006
    H   H29   0.843710  0.003150  0.017700  0.143759
    H   H30   0.766130  0.004080  0.055980  0.068488
    H   H31   0.507530  0.003970  0.134220  0.125108
    H   H32   0.545760  0.004950  0.172560  0.080018
    H   H33   0.624750  0.003330  0.017350  0.150774
    H   H34   0.662910  0.004310  0.055770  0.073559
    H   H35   0.843000  0.004570  0.134550  0.148048
    H   H36   0.765600  0.005450  0.172720  0.072067
    H   H37   0.507040  0.005010  0.353360  0.148335
    H   H38   0.545580  0.005300  0.275860  0.075776
    H   H39   0.957230  0.438870  0.831180  0.327237
    H   H40   0.957380  0.321900  0.774240  0.329824
    H   H41   0.957760  0.265420  0.947760  0.305554
    H   H42   0.006200  0.506060  0.353010  0.125631
    H   H43   0.006650  0.544230  0.275700  0.075604
    H   H44   0.004470  0.622100  0.017640  0.110349
    H   H45   0.005300  0.660720  0.055920  0.085147
    H   H46   0.004980  0.841660  0.134170  0.114989
    H   H47   0.005860  0.764340  0.172500  0.078354
    H   H48   0.004650  0.841240  0.017310  0.150077
    H   H49   0.005520  0.763920  0.055710  0.074922
    H   H50   0.005580  0.505270  0.134480  0.140448
    H   H51   0.006350  0.543860  0.172640  0.076253
    H   H52   0.005440  0.623320  0.353280  0.134175
    H   H53   0.005930  0.661510  0.275790  0.077618
    H   H54   0.576140  0.478780  0.543510  0.230621
    H   H55   0.661890  0.545030  0.517630  0.087440
    H   H56   0.842910  0.623750  0.516260  0.112733
    H   H57   0.765330  0.662180  0.517020  0.079707
    H   H58   0.506650  0.842640  0.516670  0.123871
    H   H59   0.545030  0.765270  0.517360  0.071956
    H   H60   0.623700  0.842650  0.516670  0.134049
    N   N1    0.679090  0.614140  0.517340  -0.799714
    N   N2    0.679110  0.679170  0.517330  -0.815137
    N   N3    0.614060  0.679170  0.517330  -0.819532
    N   N4    0.379880  0.304620  0.472340  -0.800005
    N   N5    0.332670  0.379820  0.472310  -0.788204
    N   N6    0.304700  0.332590  0.472330  -0.788392
    N   N7    0.259830  0.410830  0.470620  -0.504009
    N   N8    0.410900  0.348140  0.470640  -0.518134
    N   N9    0.348210  0.259730  0.470670  -0.529255
    N   N10   0.304910  0.380130  0.842980  -0.723901
    N   N11   0.380170  0.332990  0.814950  -0.722617
    N   N12   0.333000  0.305070  0.890090  -0.724902
    N   N13   0.411310  0.260270  0.858370  -0.525277
    N   N14   0.348370  0.411100  0.770180  -0.499172
    N   N15   0.260080  0.348510  0.921170  -0.511220
    N   N16   0.613930  0.678810  0.189770  -0.810348
    N   N17   0.678980  0.678820  0.124750  -0.811869
    N   N18   0.679040  0.613850  0.189690  -0.808479
    N   N19   0.379180  0.963660  0.843040  -0.788621
    N   N20   0.332110  0.963390  0.815030  -0.793900
    N   N21   0.303980  0.963790  0.890180  -0.803273
    N   N22   0.259260  0.961820  0.858460  -0.530546
    N   N23   0.410350  0.961590  0.770240  -0.504834
    N   N24   0.347340  0.962390  0.921240  -0.503662
    N   N25   0.679630  0.005190  0.189800  -0.823589
    N   N26   0.679820  0.004750  0.124790  -0.832943
    N   N27   0.614670  0.005110  0.189740  -0.830162
    N   N28   0.962770  0.305860  0.842930  -0.789610
    N   N29   0.962570  0.381040  0.814910  -0.799168
    N   N30   0.962780  0.334070  0.890060  -0.781723
    N   N31   0.960890  0.412290  0.858350  -0.507327
    N   N32   0.960890  0.349110  0.770130  -0.534555
    N   N33   0.961290  0.261240  0.921120  -0.508107
    N   N34   0.006050  0.613100  0.189730  -0.820224
    N   N35   0.005780  0.677970  0.124730  -0.822734
    N   N36   0.005970  0.678210  0.189680  -0.814143
    O   O1    0.508780  0.979740  0.559160  -0.493478
    O   O2    0.557920  0.999560  0.440920  -0.572185
    O   O3    0.508880  0.048750  0.489840  -0.559817
    O   O4    0.557820  0.930550  0.510240  -0.548597
    O   O5    0.442140  0.508960  0.559110  -0.453755
    O   O6    0.491080  0.930410  0.510270  -0.586200
    O   O7    0.442130  0.048610  0.489900  -0.471042
    O   O8    0.491170  0.999490  0.440900  -0.575406
    O   O9    0.442040  0.979580  0.559210  -0.550528
    O   O10   0.491020  0.557780  0.440870  -0.562060
    O   O11   0.979610  0.442310  0.559060  -0.480149
    O   O12   0.999750  0.490870  0.440830  -0.586810
    O   O13   0.048810  0.442100  0.489730  -0.549376
    O   O14   0.930540  0.491080  0.510170  -0.572406
    O   O15   0.930400  0.557930  0.510200  -0.575514
    O   O16   0.610380  0.460880  0.536570  -0.486437
    O   O17   0.674780  0.478030  0.499790  -0.509502
    O   O18   0.048670  0.508940  0.489790  -0.488924
    O   O19   0.999680  0.557710  0.440820  -0.549208
    O   O20   0.979450  0.509160  0.559120  -0.564314
    O   O21   0.442110  0.508880  0.489780  -0.559445
    O   O22   0.979720  0.508600  0.952530  -0.490338
    O   O23   0.999600  0.557940  0.001640  -0.607550
    O   O24   0.048820  0.508880  0.952590  -0.534977
    O   O25   0.930500  0.557670  0.001570  -0.550724
    O   O26   0.930500  0.491050  0.068340  -0.568775
    O   O27   0.048810  0.442240  0.019350  -0.459514
    O   O28   0.491040  0.557860  0.510200  -0.546001
    O   O29   0.999660  0.491310  0.068400  -0.580169
    O   O30   0.979690  0.441980  0.019300  -0.560493
    O   O31   0.443170  0.980310  0.018390  -0.490371
    O   O32   0.491810  0.000660  0.067790  -0.595293
    O   O33   0.557890  0.491130  0.510210  -0.316899
    O   O34   0.442910  0.049540  0.018730  -0.536928
    O   O35   0.492070  0.931420  0.067450  -0.560315
    O   O36   0.558930  0.931300  0.000720  -0.578433
    O   O37   0.509750  0.049410  0.951980  -0.470351
    O   O38   0.558660  0.000600  0.001040  -0.572271
    O   O39   0.510020  0.980170  0.951650  -0.555034
    O   O40   0.508950  0.442130  0.489820  -0.498088
    O   O41   0.978850  0.050840  0.018550  -0.506598
    O   O42   0.999080  0.932750  0.067930  -0.568464
    O   O43   0.048090  0.981540  0.018860  -0.558883
    O   O44   0.929840  0.002060  0.067620  -0.536562
    O   O45   0.929890  0.001650  0.000890  -0.571461
    O   O46   0.048150  0.981160  0.952120  -0.473435
    O   O47   0.999200  0.932300  0.001190  -0.568362
    O   O48   0.978890  0.050450  0.951820  -0.552351
    O   O49   0.557860  0.491030  0.440840  -0.571428
    O   O50   0.508990  0.442230  0.559140  -0.481881
