# Generated by REPEAT Assigner based on pymatgen
data_DB1-Cu2O8N2-ADC_A-DPAC_A_No1362
_audit_creation_date              2022-05-24
_audit_creation_method            REPEAT_Assigner
_cell_length_a                    15.849400
_cell_length_b                    17.521800
_cell_length_c                    17.372200
_cell_angle_alpha                 89.919300
_cell_angle_beta                  87.671200
_cell_angle_gamma                 95.290000
_cell_volume                      4799.853778
_symmetry_space_group_name_H-M    P1
_symmetry_Int_Tables_number       1
loop_
    _symmetry_equiv_pos_site_id
    _symmetry_equiv_pos_as_xyz
    1  x,y,z
loop_
    _atom_site_type_symbol
    _atom_site_label
    _atom_site_fract_x
    _atom_site_fract_y
    _atom_site_fract_z
    _atom_type_partial_charge
    Cu  Cu1  0.419400  0.497030  0.502990  0.664381
    Cu  Cu2  0.580590  0.502960  0.497020  0.999849
    O   O1   0.424830  0.497280  0.602870  -0.359729
    O   O2   0.424860  0.497410  0.402490  -0.485529
    O   O3   0.430560  0.597020  0.502380  -0.384346
    O   O4   0.419120  0.397670  0.502980  -0.325942
    O   O5   0.569430  0.402970  0.497600  -0.380844
    O   O6   0.580870  0.602320  0.497050  -0.422181
    O   O7   0.575170  0.502820  0.397050  -0.302944
    O   O8   0.575130  0.502560  0.597510  -0.467428
    C   C1   0.499980  0.499930  0.644370  0.219592
    C   C2   0.500020  0.500060  0.355630  0.238171
    C   C3   0.508240  0.643630  0.499640  0.610215
    C   C4   0.491760  0.356360  0.500370  0.464218
    N   N1   0.299620  0.492630  0.507420  -0.239566
    C   C5   0.256760  0.539950  0.459750  0.062372
    C   C6   0.168050  0.536760  0.462970  -0.255010
    C   C7   0.119570  0.485930  0.514180  -0.028859
    C   C8   0.162560  0.438730  0.561720  0.270730
    C   C9   0.251190  0.441950  0.558470  0.309618
    C   C10  0.024950  0.479420  0.520730  -0.046204
    C   C11  0.975050  0.520580  0.479260  -0.231871
    C   C12  0.837430  0.561270  0.438280  -0.489676
    C   C13  0.880430  0.514070  0.485820  0.295891
    C   C14  0.831950  0.463240  0.537030  -0.516845
    C   C15  0.743240  0.460040  0.540250  0.688349
    N   N2   0.700380  0.507360  0.492590  -0.575819
    C   C16  0.748800  0.558040  0.441530  0.689036
    H   H1   0.292420  0.579490  0.419930  0.099919
    H   H2   0.138850  0.574390  0.425070  0.125022
    H   H3   0.872580  0.600970  0.398290  0.143250
    H   H4   0.861140  0.425610  0.574940  0.171841
    H   H5   0.996220  0.438170  0.562280  0.104223
    H   H6   0.003780  0.561830  0.437710  0.164643
    C   C17  0.486850  0.270840  0.500530  -0.185558
    C   C18  0.561060  0.232340  0.497890  -0.167647
    C   C19  0.556550  0.152120  0.498030  -0.188448
    C   C20  0.477350  0.108020  0.500830  -0.023558
    C   C21  0.403350  0.146640  0.503470  0.269471
    C   C22  0.407900  0.226790  0.503320  0.285775
    C   C23  0.467710  0.022450  0.501160  -0.051815
    C   C24  0.532320  0.977550  0.498850  -0.255450
    C   C25  0.596670  0.853340  0.496540  -0.572871
    C   C26  0.522670  0.891970  0.499180  0.369311
    C   C27  0.443460  0.847870  0.501980  -0.554593
    C   C28  0.438950  0.767650  0.502120  0.673080
    C   C29  0.513160  0.729150  0.499480  -0.576987
    C   C30  0.592110  0.773200  0.496690  0.703793
    H   H7   0.622660  0.264790  0.495710  0.161212
    H   H8   0.615530  0.125930  0.495930  0.128189
    H   H9   0.658530  0.885340  0.494350  0.181385
    H   H10  0.384480  0.874060  0.504080  0.188287
    H   H11  0.403380  0.996250  0.503430  0.109350
    H   H12  0.596650  0.003740  0.496580  0.161718
    C   C31  0.500010  0.500050  0.274060  0.119018
    C   C32  0.423170  0.497330  0.234530  -0.140959
    C   C33  0.422930  0.497310  0.153480  -0.271353
    C   C34  0.500000  0.500030  0.109540  0.360508
    C   C35  0.577070  0.502760  0.147750  -0.340655
    C   C36  0.576850  0.502770  0.228810  -0.098400
    C   C37  0.499990  0.500020  0.034420  -0.204351
    C   C38  0.499980  0.500010  0.965590  -0.162626
    C   C39  0.499980  0.499990  0.890470  0.337668
    C   C40  0.422910  0.497290  0.852250  -0.284635
    C   C41  0.423140  0.497280  0.771190  -0.146592
    C   C42  0.499980  0.499960  0.725940  0.100010
    C   C43  0.576820  0.502660  0.765480  -0.097333
    C   C44  0.577050  0.502690  0.846530  -0.293945
    H   H13  0.366210  0.495320  0.264780  0.137530
    H   H14  0.366070  0.495300  0.127160  0.162269
    H   H15  0.633930  0.504770  0.117190  0.185172
    H   H16  0.366050  0.495300  0.882810  0.139396
    H   H17  0.633780  0.504650  0.735240  0.111017
    H   H18  0.633910  0.504690  0.872870  0.163106
    H   H19  0.348800  0.359930  0.587720  0.335343
    H   H20  0.272510  0.382460  0.671770  0.278091
    N   N3   0.294670  0.390210  0.610590  -0.648027
    H   H21  0.058800  0.401830  0.652270  0.337743
    H   H22  0.132230  0.324240  0.623670  0.307203
    N   N4   0.113530  0.383380  0.617480  -0.809729
    H   H23  0.638730  0.423660  0.630280  0.365836
    H   H24  0.711780  0.345640  0.602120  0.358138
    N   N5   0.693530  0.404910  0.595790  -0.957822
    H   H25  0.648150  0.586950  0.359040  0.248513
    H   H26  0.730510  0.670630  0.381490  0.261579
    N   N6   0.705310  0.609780  0.389420  -0.635196
    H   H27  0.320570  0.316040  0.544210  0.231888
    H   H28  0.273370  0.244290  0.470330  0.314403
    N   N7   0.326780  0.265820  0.506210  -0.754193
    H   H29  0.304810  0.051180  0.469180  0.347358
    H   H30  0.265960  0.120060  0.546110  0.322572
    N   N8   0.317090  0.102020  0.506520  -0.845372
    H   H31  0.341230  0.671520  0.467800  0.356792
    H   H32  0.301710  0.740050  0.544760  0.375195
    N   N9   0.353050  0.722410  0.505160  -0.969842
    H   H33  0.679270  0.683800  0.531340  0.323719
    H   H34  0.726800  0.755820  0.454130  0.349600
    N   N10  0.673220  0.734160  0.493800  -0.914029
    C   C45  0.661330  0.505760  0.267390  0.543171
    O   O9   0.729910  0.541570  0.232510  -0.486023
    O   O10  0.665480  0.476760  0.331590  -0.388966
    H   H35  0.715860  0.553150  0.177510  0.328358
    C   C46  0.338660  0.494310  0.732600  0.458725
    O   O11  0.274050  0.525440  0.767220  -0.545376
    O   O12  0.331060  0.464870  0.668630  -0.105664
    H   H36  0.289530  0.538080  0.822130  0.377998
