data_DB1-Cu2O8-irmof10_A-irmof20_A_No338_repeat
_audit_creation_date              2024-02-24
_audit_creation_method            'Materials Studio'
_symmetry_space_group_name_H-M    'P1'
_symmetry_Int_Tables_number       1
_symmetry_cell_setting            triclinic
loop_
_symmetry_equiv_pos_as_xyz
  x,y,z
_cell_length_a                    29.8915
_cell_length_b                    40.5347
_cell_length_c                    10.0000
_cell_angle_alpha                 90.0000
_cell_angle_beta                  90.0000
_cell_angle_gamma                 42.6188
loop_
_atom_site_label
_atom_site_type_symbol
_atom_site_fract_x
_atom_site_fract_y
_atom_site_fract_z
_atom_site_U_iso_or_equiv
_atom_site_adp_type
_atom_site_occupancy
Cu1    Cu    0.50000   0.50000   0.37274   0.00000  Uiso   1.00
Cu2    Cu    0.50000   0.50000   0.62726   0.00000  Uiso   1.00
O1     O     0.43666   0.56335   0.38131   0.00000  Uiso   1.00
O2     O     0.56334   0.43652   0.38132   0.00000  Uiso   1.00
O3     O     0.44184   0.49987   0.38132   0.00000  Uiso   1.00
O4     O     0.55815   0.50001   0.38132   0.00000  Uiso   1.00
O5     O     0.55817   0.50012   0.61868   0.00000  Uiso   1.00
O6     O     0.44183   0.50001   0.61868   0.00000  Uiso   1.00
O7     O     0.56333   0.43660   0.61868   0.00000  Uiso   1.00
O8     O     0.43667   0.56348   0.61867   0.00000  Uiso   1.00
C1     C     0.40871   0.59138   0.50000   0.00000  Uiso   1.00
C2     C     0.59129   0.40863   0.50001   0.00000  Uiso   1.00
C3     C     0.41616   0.49994   0.50000   0.00000  Uiso   1.00
C4     C     0.58384   0.50007   0.50000   0.00000  Uiso   1.00
Cu3    Cu    0.99987   0.50014   0.62730   0.00000  Uiso   1.00
Cu4    Cu    0.00011   0.49989   0.37278   0.00000  Uiso   1.00
O9     O     0.93678   0.56348   0.61826   0.00000  Uiso   1.00
O10    O     0.06323   0.43665   0.61917   0.00000  Uiso   1.00
O11    O     0.05830   0.49999   0.61872   0.00000  Uiso   1.00
O12    O     0.94171   0.50013   0.61872   0.00000  Uiso   1.00
O13    O     0.94169   0.50002   0.38136   0.00000  Uiso   1.00
O14    O     0.05825   0.49991   0.38135   0.00000  Uiso   1.00
O15    O     0.06331   0.43650   0.38181   0.00000  Uiso   1.00
O16    O     0.93673   0.56338   0.38091   0.00000  Uiso   1.00
C5     C     0.90890   0.59139   0.49938   0.00000  Uiso   1.00
C6     C     0.09107   0.40864   0.50069   0.00000  Uiso   1.00
C7     C     0.08395   0.49996   0.50003   0.00000  Uiso   1.00
C8     C     0.91602   0.50007   0.50003   0.00000  Uiso   1.00
Cu5    Cu    0.04483   0.95547   0.62731   0.00000  Uiso   1.00
Cu6    Cu    0.04452   0.95547   0.37279   0.00000  Uiso   1.00
O17    O     0.10814   0.89212   0.61874   0.00000  Uiso   1.00
O18    O     0.98124   0.01895   0.61873   0.00000  Uiso   1.00
O19    O     0.98664   0.95536   0.61938   0.00000  Uiso   1.00
O20    O     0.10274   0.95571   0.61809   0.00000  Uiso   1.00
O21    O     0.10269   0.95560   0.38073   0.00000  Uiso   1.00
O22    O     0.98662   0.95521   0.38202   0.00000  Uiso   1.00
O23    O     0.98109   0.01887   0.38138   0.00000  Uiso   1.00
O24    O     0.10812   0.89199   0.38138   0.00000  Uiso   1.00
C9     C     0.13608   0.86409   0.50005   0.00000  Uiso   1.00
C10    C     0.95326   0.04685   0.50005   0.00000  Uiso   1.00
C11    C     0.96107   0.95517   0.50098   0.00000  Uiso   1.00
C12    C     0.12828   0.95576   0.49912   0.00000  Uiso   1.00
Cu7    Cu    0.54624   0.95536   0.36945   0.00000  Uiso   1.00
Cu8    Cu    0.54632   0.95560   0.62397   0.00000  Uiso   1.00
O25    O     0.60937   0.89202   0.37848   0.00000  Uiso   1.00
O26    O     0.48313   0.01885   0.37758   0.00000  Uiso   1.00
O27    O     0.60465   0.95526   0.37738   0.00000  Uiso   1.00
O28    O     0.48785   0.95561   0.37868   0.00000  Uiso   1.00
O29    O     0.48790   0.95572   0.61603   0.00000  Uiso   1.00
O30    O     0.60474   0.95534   0.61474   0.00000  Uiso   1.00
O31    O     0.48321   0.01900   0.61493   0.00000  Uiso   1.00
O32    O     0.60942   0.89212   0.61584   0.00000  Uiso   1.00
C13    C     0.63725   0.86410   0.49737   0.00000  Uiso   1.00
C14    C     0.45532   0.04686   0.49606   0.00000  Uiso   1.00
C15    C     0.63048   0.95519   0.49578   0.00000  Uiso   1.00
C16    C     0.46209   0.95577   0.49764   0.00000  Uiso   1.00
C17    C     0.63206   0.50007   0.50001   0.00000  Uiso   1.00
C18    C     0.86780   0.50007   0.50003   0.00000  Uiso   1.00
C19    C     0.65571   0.50001   0.38007   0.00000  Uiso   1.00
C20    C     0.70263   0.50001   0.37896   0.00000  Uiso   1.00
C21    C     0.84415   0.50013   0.61997   0.00000  Uiso   1.00
C22    C     0.79724   0.50013   0.62108   0.00000  Uiso   1.00
C23    C     0.84427   0.50002   0.38009   0.00000  Uiso   1.00
C24    C     0.79735   0.50001   0.37897   0.00000  Uiso   1.00
C25    C     0.65559   0.50013   0.61995   0.00000  Uiso   1.00
C26    C     0.70251   0.50013   0.62107   0.00000  Uiso   1.00
C27    C     0.72630   0.50007   0.50002   0.00000  Uiso   1.00
C28    C     0.77357   0.50007   0.50002   0.00000  Uiso   1.00
H1     H     0.71853   0.49997   0.29548   0.00000  Uiso   1.00
H2     H     0.78134   0.50017   0.70456   0.00000  Uiso   1.00
H3     H     0.86037   0.49998   0.29694   0.00000  Uiso   1.00
H4     H     0.78153   0.49998   0.29548   0.00000  Uiso   1.00
H5     H     0.63950   0.50016   0.70309   0.00000  Uiso   1.00
H6     H     0.71833   0.50017   0.70455   0.00000  Uiso   1.00
C29    C     0.36793   0.49994   0.50001   0.00000  Uiso   1.00
C30    C     0.13218   0.49995   0.50003   0.00000  Uiso   1.00
C31    C     0.34441   0.49987   0.38007   0.00000  Uiso   1.00
C32    C     0.29749   0.49987   0.37896   0.00000  Uiso   1.00
C33    C     0.15569   0.50003   0.61997   0.00000  Uiso   1.00
C34    C     0.20261   0.50003   0.62108   0.00000  Uiso   1.00
C35    C     0.15584   0.49988   0.38009   0.00000  Uiso   1.00
C36    C     0.20276   0.49988   0.37897   0.00000  Uiso   1.00
C37    C     0.34427   0.50002   0.61995   0.00000  Uiso   1.00
C38    C     0.29735   0.50002   0.62107   0.00000  Uiso   1.00
C39    C     0.27369   0.49995   0.50002   0.00000  Uiso   1.00
C40    C     0.22642   0.49995   0.50002   0.00000  Uiso   1.00
H7     H     0.28168   0.49982   0.29548   0.00000  Uiso   1.00
H8     H     0.21842   0.50008   0.70456   0.00000  Uiso   1.00
H9     H     0.13983   0.49983   0.29694   0.00000  Uiso   1.00
H10    H     0.21867   0.49982   0.29548   0.00000  Uiso   1.00
H11    H     0.36027   0.50007   0.70309   0.00000  Uiso   1.00
H12    H     0.28143   0.50007   0.70455   0.00000  Uiso   1.00
C41    C     0.32285   0.67733   0.60609   0.00000  Uiso   1.00
S1     S     0.32494   0.67509   0.34694   0.00000  Uiso   1.00
C42    C     0.22194   0.77814   0.39397   0.00000  Uiso   1.00
S2     S     0.21986   0.78039   0.65311   0.00000  Uiso   1.00
C43    C     0.35436   0.64575   0.50001   0.00000  Uiso   1.00
C44    C     0.19043   0.80973   0.50004   0.00000  Uiso   1.00
C45    C     0.27235   0.72774   0.43168   0.00000  Uiso   1.00
C46    C     0.27244   0.72773   0.56837   0.00000  Uiso   1.00
C47    C     0.64384   0.35611   0.50001   0.00000  Uiso   1.00
C48    C     0.90072   0.09937   0.50004   0.00000  Uiso   1.00
C49    C     0.66951   0.33041   0.38008   0.00000  Uiso   1.00
C50    C     0.72063   0.27932   0.37897   0.00000  Uiso   1.00
C51    C     0.87504   0.12506   0.61998   0.00000  Uiso   1.00
C52    C     0.82392   0.17615   0.62109   0.00000  Uiso   1.00
C53    C     0.87498   0.12506   0.38010   0.00000  Uiso   1.00
C54    C     0.82385   0.17615   0.37898   0.00000  Uiso   1.00
C55    C     0.66957   0.33042   0.61996   0.00000  Uiso   1.00
C56    C     0.72070   0.27932   0.62108   0.00000  Uiso   1.00
C57    C     0.74652   0.25348   0.50002   0.00000  Uiso   1.00
C58    C     0.79803   0.20199   0.50003   0.00000  Uiso   1.00
H13    H     0.73789   0.26204   0.29548   0.00000  Uiso   1.00
H14    H     0.80666   0.19343   0.70457   0.00000  Uiso   1.00
H15    H     0.89245   0.10757   0.29696   0.00000  Uiso   1.00
H16    H     0.80655   0.19342   0.29549   0.00000  Uiso   1.00
H17    H     0.65210   0.34790   0.70310   0.00000  Uiso   1.00
H18    H     0.73800   0.26205   0.70456   0.00000  Uiso   1.00
C59    C     0.82332   0.67725   0.39268   0.00000  Uiso   1.00
S3     S     0.82547   0.67524   0.65184   0.00000  Uiso   1.00
C60    C     0.72283   0.77825   0.60407   0.00000  Uiso   1.00
S4     S     0.72068   0.78025   0.34491   0.00000  Uiso   1.00
C61    C     0.85475   0.64576   0.49898   0.00000  Uiso   1.00
C62    C     0.69140   0.80974   0.49777   0.00000  Uiso   1.00
C63    C     0.77305   0.72781   0.56672   0.00000  Uiso   1.00
C64    C     0.77310   0.72768   0.43003   0.00000  Uiso   1.00
C65    C     0.14334   0.35612   0.50106   0.00000  Uiso   1.00
C66    C     0.39887   0.09938   0.50287   0.00000  Uiso   1.00
C67    C     0.16884   0.33054   0.62118   0.00000  Uiso   1.00
C68    C     0.21969   0.27945   0.62265   0.00000  Uiso   1.00
C69    C     0.37338   0.12496   0.38275   0.00000  Uiso   1.00
C70    C     0.32253   0.17605   0.38127   0.00000  Uiso   1.00
C71    C     0.37322   0.12518   0.62263   0.00000  Uiso   1.00
C72    C     0.32237   0.17628   0.62338   0.00000  Uiso   1.00
C73    C     0.16899   0.33032   0.38130   0.00000  Uiso   1.00
C74    C     0.21985   0.27922   0.38054   0.00000  Uiso   1.00
C75    C     0.24549   0.25349   0.50178   0.00000  Uiso   1.00
C76    C     0.29673   0.20201   0.50215   0.00000  Uiso   1.00
H19    H     0.23683   0.26225   0.70626   0.00000  Uiso   1.00
H20    H     0.30539   0.19325   0.29767   0.00000  Uiso   1.00
H21    H     0.39058   0.10778   0.70590   0.00000  Uiso   1.00
H22    H     0.30512   0.19363   0.70674   0.00000  Uiso   1.00
H23    H     0.15164   0.34772   0.29803   0.00000  Uiso   1.00
H24    H     0.23709   0.26187   0.29718   0.00000  Uiso   1.00
C77    C     0.17630   0.95597   0.49858   0.00000  Uiso   1.00
C78    C     0.41104   0.95697   0.49594   0.00000  Uiso   1.00
C79    C     0.19988   0.95613   0.61825   0.00000  Uiso   1.00
C80    C     0.24660   0.95633   0.61884   0.00000  Uiso   1.00
C81    C     0.38746   0.95681   0.37626   0.00000  Uiso   1.00
C82    C     0.34074   0.95661   0.37567   0.00000  Uiso   1.00
C83    C     0.38765   0.95693   0.61614   0.00000  Uiso   1.00
C84    C     0.34093   0.95673   0.61778   0.00000  Uiso   1.00
C85    C     0.19970   0.95601   0.37838   0.00000  Uiso   1.00
C86    C     0.24641   0.95621   0.37673   0.00000  Uiso   1.00
C87    C     0.27014   0.95637   0.49752   0.00000  Uiso   1.00
C88    C     0.31721   0.95657   0.49699   0.00000  Uiso   1.00
H25    H     0.26246   0.95643   0.70215   0.00000  Uiso   1.00
H26    H     0.32488   0.95651   0.29237   0.00000  Uiso   1.00
H27    H     0.40370   0.95704   0.69910   0.00000  Uiso   1.00
H28    H     0.32520   0.95670   0.70144   0.00000  Uiso   1.00
H29    H     0.18365   0.95590   0.29541   0.00000  Uiso   1.00
H30    H     0.26214   0.95624   0.29307   0.00000  Uiso   1.00
C89    C     0.91305   0.95497   0.50151   0.00000  Uiso   1.00
C90    C     0.67833   0.95395   0.50411   0.00000  Uiso   1.00
C91    C     0.88963   0.95494   0.62171   0.00000  Uiso   1.00
C92    C     0.84292   0.95474   0.62334   0.00000  Uiso   1.00
C93    C     0.70174   0.95397   0.38391   0.00000  Uiso   1.00
C94    C     0.74845   0.95418   0.38228   0.00000  Uiso   1.00
C95    C     0.70189   0.95412   0.62379   0.00000  Uiso   1.00
C96    C     0.74860   0.95433   0.62439   0.00000  Uiso   1.00
C97    C     0.88949   0.95479   0.38184   0.00000  Uiso   1.00
C98    C     0.84277   0.95459   0.38124   0.00000  Uiso   1.00
C99    C     0.81922   0.95456   0.50255   0.00000  Uiso   1.00
C100   C     0.77215   0.95435   0.50307   0.00000  Uiso   1.00
H31    H     0.82718   0.95472   0.70700   0.00000  Uiso   1.00
H32    H     0.76420   0.95419   0.29862   0.00000  Uiso   1.00
H33    H     0.68595   0.95410   0.70711   0.00000  Uiso   1.00
H34    H     0.76445   0.95445   0.70770   0.00000  Uiso   1.00
H35    H     0.90542   0.95481   0.29851   0.00000  Uiso   1.00
H36    H     0.82693   0.95446   0.29793   0.00000  Uiso   1.00
O33    O     0.63406   0.49996   0.26765   0.00000  Uiso   1.00
Li1    Li    0.65088   0.49988   0.10403   0.00000  Uiso   1.00
O34    O     0.86581   0.50019   0.73238   0.00000  Uiso   1.00
Li2    Li    0.84899   0.50026   0.89600   0.00000  Uiso   1.00
O35    O     0.36619   0.49980   0.26765   0.00000  Uiso   1.00
Li3    Li    0.34955   0.49970   0.10403   0.00000  Uiso   1.00
O36    O     0.13392   0.50010   0.73238   0.00000  Uiso   1.00
Li4    Li    0.15056   0.50020   0.89600   0.00000  Uiso   1.00
O37    O     0.64582   0.35405   0.26766   0.00000  Uiso   1.00
Li5    Li    0.66402   0.33582   0.10404   0.00000  Uiso   1.00
O38    O     0.89873   0.10142   0.73240   0.00000  Uiso   1.00
Li6    Li    0.88053   0.11965   0.89601   0.00000  Uiso   1.00
O39    O     0.14523   0.35429   0.73343   0.00000  Uiso   1.00
Li7    Li    0.16327   0.33621   0.89717   0.00000  Uiso   1.00
O40    O     0.39698   0.10121   0.27050   0.00000  Uiso   1.00
Li8    Li    0.37894   0.11929   0.10675   0.00000  Uiso   1.00
O41    O     0.17835   0.95609   0.73091   0.00000  Uiso   1.00
Li9    Li    0.19515   0.95624   0.89434   0.00000  Uiso   1.00
O42    O     0.40899   0.95685   0.26360   0.00000  Uiso   1.00
Li10   Li    0.39219   0.95670   0.10017   0.00000  Uiso   1.00
O43    O     0.91132   0.95510   0.73389   0.00000  Uiso   1.00
Li11   Li    0.89475   0.95513   0.89769   0.00000  Uiso   1.00
O44    O     0.68006   0.95381   0.27174   0.00000  Uiso   1.00
Li12   Li    0.69663   0.95378   0.10793   0.00000  Uiso   1.00
Br1    Br    0.34576   0.65454   0.80416   0.00000  Uiso   1.00
Br2    Br    0.19904   0.80093   0.19589   0.00000  Uiso   1.00
Br3    Br    0.84608   0.65427   0.19477   0.00000  Uiso   1.00
Br4    Br    0.70006   0.80123   0.80198   0.00000  Uiso   1.00
