data_DB1-Zn2O8-ADC_A-DPAC_A_No1480_repeat
_audit_creation_date              2024-02-23
_audit_creation_method            'Materials Studio'
_symmetry_space_group_name_H-M    'P1'
_symmetry_Int_Tables_number       1
_symmetry_cell_setting            triclinic
loop_
_symmetry_equiv_pos_as_xyz
  x,y,z
_cell_length_a                    17.5724
_cell_length_b                    39.4600
_cell_length_c                    10.0000
_cell_angle_alpha                 90.0000
_cell_angle_beta                  90.0000
_cell_angle_gamma                 116.2280
loop_
_atom_site_label
_atom_site_type_symbol
_atom_site_fract_x
_atom_site_fract_y
_atom_site_fract_z
_atom_site_U_iso_or_equiv
_atom_site_adp_type
_atom_site_occupancy
O1     O     0.39056   0.50037   0.63577   0.00000  Uiso   1.00
O2     O     0.39032   0.50000   0.36396   0.00000  Uiso   1.00
C1     C     0.35173   0.50014   0.49988   0.00000  Uiso   1.00
Zn1    Zn    0.50005   0.50011   0.66577   0.00000  Uiso   1.00
O3     O     0.55434   0.55438   0.36380   0.00000  Uiso   1.00
O4     O     0.55452   0.55458   0.63562   0.00000  Uiso   1.00
C2     C     0.57355   0.57369   0.49974   0.00000  Uiso   1.00
O5     O     0.60954   0.49971   0.36423   0.00000  Uiso   1.00
O6     O     0.60963   0.49993   0.63604   0.00000  Uiso   1.00
C3     C     0.64827   0.49983   0.50013   0.00000  Uiso   1.00
Zn2    Zn    0.49998   0.49989   0.33423   0.00000  Uiso   1.00
O7     O     0.44554   0.44562   0.63620   0.00000  Uiso   1.00
O8     O     0.44564   0.44542   0.36438   0.00000  Uiso   1.00
C4     C     0.42622   0.42632   0.50026   0.00000  Uiso   1.00
O9     O     0.88780   0.99982   0.27339   0.00000  Uiso   1.00
O10    O     0.88827   0.00019   0.54519   0.00000  Uiso   1.00
C5     C     0.84947   0.00011   0.40926   0.00000  Uiso   1.00
Zn3    Zn    0.99764   0.99991   0.24343   0.00000  Uiso   1.00
O11    O     0.94383   0.94564   0.54541   0.00000  Uiso   1.00
O12    O     0.94364   0.94543   0.27359   0.00000  Uiso   1.00
C6     C     0.92462   0.92633   0.40948   0.00000  Uiso   1.00
O13    O     0.10773   0.00015   0.54501   0.00000  Uiso   1.00
O14    O     0.10740   0.99991   0.27320   0.00000  Uiso   1.00
C7     C     0.14616   0.99996   0.40912   0.00000  Uiso   1.00
Zn4    Zn    0.99796   0.00013   0.57496   0.00000  Uiso   1.00
O15    O     0.05161   0.05440   0.27298   0.00000  Uiso   1.00
O16    O     0.05208   0.05460   0.54480   0.00000  Uiso   1.00
C8     C     0.07071   0.07370   0.40891   0.00000  Uiso   1.00
C9     C     0.88262   0.88414   0.40941   0.00000  Uiso   1.00
C10    C     0.86231   0.86375   0.53029   0.00000  Uiso   1.00
C11    C     0.82291   0.82417   0.53040   0.00000  Uiso   1.00
C12    C     0.80266   0.80383   0.40905   0.00000  Uiso   1.00
C13    C     0.82303   0.82428   0.28847   0.00000  Uiso   1.00
C14    C     0.86239   0.86381   0.28845   0.00000  Uiso   1.00
C15    C     0.76072   0.76170   0.40149   0.00000  Uiso   1.00
C16    C     0.73744   0.73832   0.50778   0.00000  Uiso   1.00
C17    C     0.67513   0.67574   0.62078   0.00000  Uiso   1.00
C18    C     0.69550   0.69619   0.50020   0.00000  Uiso   1.00
C19    C     0.67525   0.67584   0.37885   0.00000  Uiso   1.00
C20    C     0.63586   0.63627   0.37894   0.00000  Uiso   1.00
C21    C     0.61555   0.61588   0.49982   0.00000  Uiso   1.00
C22    C     0.63577   0.63620   0.62078   0.00000  Uiso   1.00
H1     H     0.87715   0.87866   0.62485   0.00000  Uiso   1.00
H2     H     0.80894   0.81014   0.62607   0.00000  Uiso   1.00
H3     H     0.80842   0.80959   0.19347   0.00000  Uiso   1.00
H4     H     0.68974   0.69042   0.71579   0.00000  Uiso   1.00
H5     H     0.68923   0.68988   0.28317   0.00000  Uiso   1.00
H6     H     0.62102   0.62136   0.28438   0.00000  Uiso   1.00
H7     H     0.74901   0.74993   0.30207   0.00000  Uiso   1.00
H8     H     0.74915   0.75009   0.60719   0.00000  Uiso   1.00
C23    C     0.11326   0.11589   0.40898   0.00000  Uiso   1.00
C24    C     0.13366   0.13625   0.52992   0.00000  Uiso   1.00
C25    C     0.17357   0.17583   0.53015   0.00000  Uiso   1.00
C26    C     0.19426   0.19620   0.40886   0.00000  Uiso   1.00
C27    C     0.17380   0.17578   0.28822   0.00000  Uiso   1.00
C28    C     0.13392   0.13625   0.28808   0.00000  Uiso   1.00
C29    C     0.23675   0.23833   0.40143   0.00000  Uiso   1.00
C30    C     0.26018   0.26169   0.50779   0.00000  Uiso   1.00
C31    C     0.32314   0.32424   0.62098   0.00000  Uiso   1.00
C32    C     0.30268   0.30382   0.50034   0.00000  Uiso   1.00
C33    C     0.32336   0.32419   0.37905   0.00000  Uiso   1.00
C34    C     0.36327   0.36376   0.37927   0.00000  Uiso   1.00
C35    C     0.38367   0.38413   0.50021   0.00000  Uiso   1.00
C36    C     0.36301   0.36378   0.62111   0.00000  Uiso   1.00
H9     H     0.11850   0.12132   0.62443   0.00000  Uiso   1.00
H10    H     0.18759   0.18984   0.62586   0.00000  Uiso   1.00
H11    H     0.18873   0.19049   0.19326   0.00000  Uiso   1.00
H12    H     0.30821   0.30953   0.71595   0.00000  Uiso   1.00
H13    H     0.30934   0.31018   0.28333   0.00000  Uiso   1.00
H14    H     0.37843   0.37869   0.28475   0.00000  Uiso   1.00
H15    H     0.24875   0.25013   0.30205   0.00000  Uiso   1.00
H16    H     0.24818   0.24990   0.60717   0.00000  Uiso   1.00
C37    C     0.27105   0.50010   0.49991   0.00000  Uiso   1.00
C38    C     0.22924   0.50019   0.62127   0.00000  Uiso   1.00
C39    C     0.14907   0.50015   0.62166   0.00000  Uiso   1.00
C40    C     0.10832   0.50002   0.49998   0.00000  Uiso   1.00
C41    C     0.14882   0.49993   0.37827   0.00000  Uiso   1.00
C42    C     0.22899   0.49997   0.37859   0.00000  Uiso   1.00
C43    C     0.03402   0.49999   0.50002   0.00000  Uiso   1.00
C44    C     0.96595   0.49996   0.50005   0.00000  Uiso   1.00
C45    C     0.89166   0.49993   0.50006   0.00000  Uiso   1.00
C46    C     0.85114   0.50001   0.62177   0.00000  Uiso   1.00
C47    C     0.77097   0.49998   0.62143   0.00000  Uiso   1.00
C48    C     0.72894   0.49986   0.50011   0.00000  Uiso   1.00
C49    C     0.77076   0.49978   0.37876   0.00000  Uiso   1.00
C50    C     0.85092   0.49981   0.37838   0.00000  Uiso   1.00
H17    H     0.12104   0.50022   0.71147   0.00000  Uiso   1.00
H18    H     0.12059   0.49983   0.28848   0.00000  Uiso   1.00
H19    H     0.87935   0.50010   0.71156   0.00000  Uiso   1.00
H20    H     0.87897   0.49975   0.28857   0.00000  Uiso   1.00
C51    C     0.76746   0.99874   0.40956   0.00000  Uiso   1.00
C52    C     0.72555   0.99871   0.28819   0.00000  Uiso   1.00
C53    C     0.64558   0.99887   0.28777   0.00000  Uiso   1.00
C54    C     0.60514   0.99906   0.40944   0.00000  Uiso   1.00
C55    C     0.64575   0.99910   0.53117   0.00000  Uiso   1.00
C56    C     0.72572   0.99894   0.53087   0.00000  Uiso   1.00
C57    C     0.53102   0.99921   0.40937   0.00000  Uiso   1.00
C58    C     0.46310   0.99934   0.40932   0.00000  Uiso   1.00
C59    C     0.38898   0.99949   0.40928   0.00000  Uiso   1.00
C60    C     0.34838   0.99947   0.28755   0.00000  Uiso   1.00
C61    C     0.26840   0.99962   0.28786   0.00000  Uiso   1.00
C62    C     0.22665   0.99980   0.40917   0.00000  Uiso   1.00
C63    C     0.26855   0.99983   0.53054   0.00000  Uiso   1.00
C64    C     0.34854   0.99967   0.53095   0.00000  Uiso   1.00
H21    H     0.61745   0.99884   0.19795   0.00000  Uiso   1.00
H22    H     0.61775   0.99924   0.62094   0.00000  Uiso   1.00
H23    H     0.37639   0.99934   0.19778   0.00000  Uiso   1.00
H24    H     0.37666   0.99970   0.62076   0.00000  Uiso   1.00
H25    H     0.94526   0.90954   0.14236   0.00000  Uiso   1.00
H26    H     0.83613   0.87493   0.07388   0.00000  Uiso   1.00
N1     N     0.88309   0.88460   0.15659   0.00000  Uiso   1.00
H27    H     0.62752   0.59041   0.76688   0.00000  Uiso   1.00
H28    H     0.58741   0.62513   0.83533   0.00000  Uiso   1.00
N2     N     0.61507   0.61541   0.75264   0.00000  Uiso   1.00
H29    H     0.05079   0.09067   0.14172   0.00000  Uiso   1.00
H30    H     0.16022   0.12506   0.07362   0.00000  Uiso   1.00
N3     N     0.11314   0.11549   0.15616   0.00000  Uiso   1.00
H31    H     0.37177   0.40965   0.76720   0.00000  Uiso   1.00
H32    H     0.41110   0.37467   0.83583   0.00000  Uiso   1.00
N4     N     0.38380   0.38453   0.75303   0.00000  Uiso   1.00
O17    O     0.26464   0.50031   0.73531   0.00000  Uiso   1.00
Li1    Li    0.23392   0.50044   0.89759   0.00000  Uiso   1.00
O18    O     0.26415   0.49988   0.26452   0.00000  Uiso   1.00
Li2    Li    0.23309   0.49971   0.10227   0.00000  Uiso   1.00
O19    O     0.73580   0.50006   0.73550   0.00000  Uiso   1.00
Li3    Li    0.76683   0.50020   0.89776   0.00000  Uiso   1.00
O20    O     0.73538   0.49967   0.26471   0.00000  Uiso   1.00
Li4    Li    0.76612   0.49955   0.10243   0.00000  Uiso   1.00
O21    O     0.76067   0.99853   0.17417   0.00000  Uiso   1.00
Li5    Li    0.72974   0.99844   0.01187   0.00000  Uiso   1.00
O22    O     0.76099   0.99898   0.64495   0.00000  Uiso   1.00
Li6    Li    0.73029   0.99919   0.80720   0.00000  Uiso   1.00
O23    O     0.23313   0.99959   0.17378   0.00000  Uiso   1.00
Li7    Li    0.26384   0.99940   0.01153   0.00000  Uiso   1.00
O24    O     0.23344   0.99999   0.64457   0.00000  Uiso   1.00
Li8    Li    0.26436   0.00007   0.80686   0.00000  Uiso   1.00
