data_DB1-Zn2O8-AZO_A-BDC_A_No440_repeat
_audit_creation_date              2024-02-23
_audit_creation_method            'Materials Studio'
_symmetry_space_group_name_H-M    'P1'
_symmetry_Int_Tables_number       1
_symmetry_cell_setting            triclinic
loop_
_symmetry_equiv_pos_as_xyz
  x,y,z
_cell_length_a                    10.9006
_cell_length_b                    36.5286
_cell_length_c                    10.0000
_cell_angle_alpha                 90.0000
_cell_angle_beta                  90.0000
_cell_angle_gamma                 107.1810
loop_
_atom_site_label
_atom_site_type_symbol
_atom_site_fract_x
_atom_site_fract_y
_atom_site_fract_z
_atom_site_U_iso_or_equiv
_atom_site_adp_type
_atom_site_occupancy
O1     O     0.32334   0.50034   0.63580   0.00000  Uiso   1.00
O2     O     0.32314   0.49996   0.36399   0.00000  Uiso   1.00
C1     C     0.26084   0.50010   0.49992   0.00000  Uiso   1.00
Zn1    Zn    0.50003   0.50011   0.66577   0.00000  Uiso   1.00
O3     O     0.55506   0.55516   0.36380   0.00000  Uiso   1.00
O4     O     0.55528   0.55537   0.63562   0.00000  Uiso   1.00
C2     C     0.57451   0.57474   0.49974   0.00000  Uiso   1.00
O5     O     0.67677   0.49973   0.36420   0.00000  Uiso   1.00
O6     O     0.67682   0.49996   0.63601   0.00000  Uiso   1.00
C3     C     0.73916   0.49988   0.50008   0.00000  Uiso   1.00
Zn2    Zn    0.50000   0.49989   0.33423   0.00000  Uiso   1.00
O7     O     0.44472   0.44484   0.63620   0.00000  Uiso   1.00
O8     O     0.44496   0.44464   0.36438   0.00000  Uiso   1.00
C4     C     0.42510   0.42526   0.50026   0.00000  Uiso   1.00
O9     O     0.81924   0.99979   0.26656   0.00000  Uiso   1.00
O10    O     0.81982   0.00016   0.53836   0.00000  Uiso   1.00
C5     C     0.75728   0.00007   0.40244   0.00000  Uiso   1.00
Zn3    Zn    0.99628   0.99991   0.23657   0.00000  Uiso   1.00
O11    O     0.94202   0.94486   0.53853   0.00000  Uiso   1.00
O12    O     0.94180   0.94465   0.26672   0.00000  Uiso   1.00
C6     C     0.92257   0.92528   0.40259   0.00000  Uiso   1.00
O13    O     0.17369   0.00018   0.53811   0.00000  Uiso   1.00
O14    O     0.17326   0.99995   0.26631   0.00000  Uiso   1.00
C7     C     0.23575   0.00000   0.40222   0.00000  Uiso   1.00
Zn4    Zn    0.99672   0.00013   0.56810   0.00000  Uiso   1.00
O15    O     0.05073   0.05518   0.26614   0.00000  Uiso   1.00
O16    O     0.05141   0.05538   0.53795   0.00000  Uiso   1.00
C8     C     0.07001   0.07476   0.40207   0.00000  Uiso   1.00
C9     C     0.88011   0.88251   0.40252   0.00000  Uiso   1.00
C10    C     0.85958   0.86183   0.52364   0.00000  Uiso   1.00
C11    C     0.81969   0.82166   0.52325   0.00000  Uiso   1.00
C12    C     0.79953   0.80136   0.40193   0.00000  Uiso   1.00
C13    C     0.81977   0.82175   0.28137   0.00000  Uiso   1.00
C14    C     0.85963   0.86190   0.28129   0.00000  Uiso   1.00
N1     N     0.75867   0.76022   0.39829   0.00000  Uiso   1.00
N2     N     0.73841   0.73980   0.50405   0.00000  Uiso   1.00
C15    C     0.67732   0.67827   0.62097   0.00000  Uiso   1.00
C16    C     0.69756   0.69866   0.50041   0.00000  Uiso   1.00
C17    C     0.67739   0.67836   0.37908   0.00000  Uiso   1.00
C18    C     0.63751   0.63819   0.37870   0.00000  Uiso   1.00
C19    C     0.61698   0.61751   0.49981   0.00000  Uiso   1.00
C20    C     0.63745   0.63812   0.62104   0.00000  Uiso   1.00
H1     H     0.87458   0.87693   0.61823   0.00000  Uiso   1.00
H2     H     0.80445   0.80631   0.61715   0.00000  Uiso   1.00
H3     H     0.69260   0.69366   0.71491   0.00000  Uiso   1.00
H4     H     0.69264   0.69371   0.28519   0.00000  Uiso   1.00
C21    C     0.11335   0.11752   0.40213   0.00000  Uiso   1.00
C22    C     0.13409   0.13818   0.52330   0.00000  Uiso   1.00
C23    C     0.17479   0.17834   0.52304   0.00000  Uiso   1.00
C24    C     0.19560   0.19867   0.40178   0.00000  Uiso   1.00
C25    C     0.17517   0.17831   0.28115   0.00000  Uiso   1.00
C26    C     0.13448   0.13817   0.28096   0.00000  Uiso   1.00
N3     N     0.23731   0.23982   0.39826   0.00000  Uiso   1.00
N4     N     0.25780   0.26020   0.50408   0.00000  Uiso   1.00
C27    C     0.31994   0.32171   0.62118   0.00000  Uiso   1.00
C28    C     0.29951   0.30135   0.50056   0.00000  Uiso   1.00
C29    C     0.32031   0.32168   0.37930   0.00000  Uiso   1.00
C30    C     0.36102   0.36184   0.37903   0.00000  Uiso   1.00
C31    C     0.38175   0.38250   0.50021   0.00000  Uiso   1.00
C32    C     0.36063   0.36185   0.62138   0.00000  Uiso   1.00
H5     H     0.11860   0.12305   0.61785   0.00000  Uiso   1.00
H6     H     0.19018   0.19367   0.61698   0.00000  Uiso   1.00
H7     H     0.30417   0.30630   0.71507   0.00000  Uiso   1.00
H8     H     0.30493   0.30634   0.28535   0.00000  Uiso   1.00
C33    C     0.87145   0.49993   0.50004   0.00000  Uiso   1.00
C34    C     0.12855   0.50004   0.49996   0.00000  Uiso   1.00
C35    C     0.93604   0.49986   0.38008   0.00000  Uiso   1.00
C36    C     0.06396   0.50011   0.61992   0.00000  Uiso   1.00
C37    C     0.06370   0.49991   0.38004   0.00000  Uiso   1.00
C38    C     0.93630   0.50006   0.61996   0.00000  Uiso   1.00
C39    C     0.36786   0.99987   0.40225   0.00000  Uiso   1.00
C40    C     0.62459   0.99961   0.40230   0.00000  Uiso   1.00
C41    C     0.43256   0.99990   0.52220   0.00000  Uiso   1.00
C42    C     0.55988   0.99957   0.28235   0.00000  Uiso   1.00
C43    C     0.56004   0.99977   0.52222   0.00000  Uiso   1.00
C44    C     0.43240   0.99970   0.28232   0.00000  Uiso   1.00
O17    O     0.87766   0.88005   0.16801   0.00000  Uiso   1.00
Li1    Li    0.86278   0.86508   0.00508   0.00000  Uiso   1.00
O18    O     0.80144   0.80329   0.16868   0.00000  Uiso   1.00
Li2    Li    0.75405   0.75557   0.12946   0.00000  Uiso   1.00
O19    O     0.61943   0.61996   0.73433   0.00000  Uiso   1.00
Li3    Li    0.63430   0.63494   0.89725   0.00000  Uiso   1.00
O20    O     0.61953   0.62009   0.26531   0.00000  Uiso   1.00
Li4    Li    0.63446   0.63514   0.10247   0.00000  Uiso   1.00
O21    O     0.11629   0.12004   0.16762   0.00000  Uiso   1.00
Li5    Li    0.13177   0.13505   0.00474   0.00000  Uiso   1.00
O22    O     0.19409   0.19680   0.16852   0.00000  Uiso   1.00
Li6    Li    0.24253   0.24453   0.12944   0.00000  Uiso   1.00
O23    O     0.37882   0.37998   0.73471   0.00000  Uiso   1.00
Li7    Li    0.36334   0.36497   0.89760   0.00000  Uiso   1.00
O24    O     0.37959   0.37997   0.26570   0.00000  Uiso   1.00
Li8    Li    0.36464   0.36496   0.10281   0.00000  Uiso   1.00
C45    C     0.86466   0.49971   0.24565   0.00000  Uiso   1.00
H9     H     0.90792   0.52217   0.19516   0.00000  Uiso   1.00
H10    H     0.77800   0.49963   0.26322   0.00000  Uiso   1.00
H11    H     0.86393   0.47725   0.19545   0.00000  Uiso   1.00
C46    C     0.13534   0.50026   0.75435   0.00000  Uiso   1.00
H12    H     0.13641   0.52278   0.80438   0.00000  Uiso   1.00
H13    H     0.22189   0.50022   0.73679   0.00000  Uiso   1.00
H14    H     0.09186   0.47786   0.80501   0.00000  Uiso   1.00
C47    C     0.13478   0.49983   0.24557   0.00000  Uiso   1.00
H15    H     0.09141   0.47729   0.19556   0.00000  Uiso   1.00
H16    H     0.22148   0.49994   0.26307   0.00000  Uiso   1.00
H17    H     0.13541   0.52221   0.19492   0.00000  Uiso   1.00
C48    C     0.86522   0.50014   0.75444   0.00000  Uiso   1.00
H18    H     0.86426   0.47771   0.80491   0.00000  Uiso   1.00
H19    H     0.77864   0.50015   0.73693   0.00000  Uiso   1.00
H20    H     0.90881   0.52263   0.80462   0.00000  Uiso   1.00
C49    C     0.36153   0.00009   0.65664   0.00000  Uiso   1.00
H21    H     0.36019   0.97762   0.70712   0.00000  Uiso   1.00
H22    H     0.27508   0.00022   0.63909   0.00000  Uiso   1.00
H23    H     0.40540   0.02254   0.70684   0.00000  Uiso   1.00
C50    C     0.63091   0.99939   0.14791   0.00000  Uiso   1.00
H24    H     0.58726   0.97688   0.09789   0.00000  Uiso   1.00
H25    H     0.71748   0.99937   0.16546   0.00000  Uiso   1.00
H26    H     0.63192   0.02180   0.09725   0.00000  Uiso   1.00
C51    C     0.63126   0.99982   0.65669   0.00000  Uiso   1.00
H27    H     0.63267   0.02237   0.70671   0.00000  Uiso   1.00
H28    H     0.71769   0.99966   0.63917   0.00000  Uiso   1.00
H29    H     0.58746   0.97745   0.70734   0.00000  Uiso   1.00
C52    C     0.36118   0.99966   0.14786   0.00000  Uiso   1.00
H30    H     0.40477   0.02208   0.09738   0.00000  Uiso   1.00
H31    H     0.27464   0.99970   0.16537   0.00000  Uiso   1.00
H32    H     0.36011   0.97716   0.09767   0.00000  Uiso   1.00
