data_DB1-Cu2O8N2-AZO_A-DABCO_A_No15_repeat
_audit_creation_date              2024-02-20
_audit_creation_method            'Materials Studio'
_symmetry_space_group_name_H-M    'P1'
_symmetry_Int_Tables_number       1
_symmetry_cell_setting            triclinic
loop_
_symmetry_equiv_pos_as_xyz
  x,y,z
_cell_length_a                    17.2765
_cell_length_b                    15.6063
_cell_length_c                    10.8687
_cell_angle_alpha                 87.4704
_cell_angle_beta                  92.9377
_cell_angle_gamma                 95.7732
loop_
_atom_site_label
_atom_site_type_symbol
_atom_site_fract_x
_atom_site_fract_y
_atom_site_fract_z
_atom_site_U_iso_or_equiv
_atom_site_adp_type
_atom_site_occupancy
Cu1    Cu    0.49689   0.41811   0.50522   0.00000  Uiso   1.00
Cu2    Cu    0.50310   0.58189   0.49479   0.00000  Uiso   1.00
O1     O     0.50251   0.42424   0.66502   0.00000  Uiso   1.00
O2     O     0.49190   0.42304   0.34439   0.00000  Uiso   1.00
O3     O     0.59835   0.42998   0.50417   0.00000  Uiso   1.00
O4     O     0.39606   0.41730   0.50525   0.00000  Uiso   1.00
O5     O     0.40164   0.57002   0.49580   0.00000  Uiso   1.00
O6     O     0.60393   0.58270   0.49480   0.00000  Uiso   1.00
O7     O     0.49759   0.57577   0.33485   0.00000  Uiso   1.00
O8     O     0.50806   0.57696   0.65562   0.00000  Uiso   1.00
C1     C     0.50766   0.50087   0.73101   0.00000  Uiso   1.00
C2     C     0.49233   0.49913   0.26900   0.00000  Uiso   1.00
C3     C     0.64574   0.50914   0.49933   0.00000  Uiso   1.00
C4     C     0.35425   0.49086   0.50069   0.00000  Uiso   1.00
N1     N     0.49226   0.29640   0.51298   0.00000  Uiso   1.00
C5     C     0.53768   0.25282   0.43678   0.00000  Uiso   1.00
C6     C     0.53413   0.16261   0.44273   0.00000  Uiso   1.00
C7     C     0.48517   0.11415   0.52489   0.00000  Uiso   1.00
C8     C     0.43995   0.15709   0.60077   0.00000  Uiso   1.00
C9     C     0.44331   0.24725   0.59512   0.00000  Uiso   1.00
N2     N     0.48027   0.02167   0.53311   0.00000  Uiso   1.00
N3     N     0.51972   0.97833   0.46690   0.00000  Uiso   1.00
C10    C     0.56004   0.84291   0.39924   0.00000  Uiso   1.00
C11    C     0.51482   0.88585   0.47512   0.00000  Uiso   1.00
C12    C     0.46586   0.83739   0.55728   0.00000  Uiso   1.00
C13    C     0.46231   0.74718   0.56324   0.00000  Uiso   1.00
N4     N     0.50773   0.70360   0.48703   0.00000  Uiso   1.00
C14    C     0.55668   0.75275   0.40489   0.00000  Uiso   1.00
H1     H     0.57579   0.28897   0.37282   0.00000  Uiso   1.00
H2     H     0.56939   0.13034   0.38355   0.00000  Uiso   1.00
H3     H     0.59793   0.87968   0.33567   0.00000  Uiso   1.00
H4     H     0.43060   0.86966   0.61646   0.00000  Uiso   1.00
C15    C     0.26751   0.48542   0.50099   0.00000  Uiso   1.00
C16    C     0.22856   0.56075   0.49636   0.00000  Uiso   1.00
C17    C     0.14710   0.55543   0.49666   0.00000  Uiso   1.00
C18    C     0.10292   0.47480   0.50159   0.00000  Uiso   1.00
C19    C     0.14129   0.39979   0.50620   0.00000  Uiso   1.00
C20    C     0.22271   0.40481   0.50592   0.00000  Uiso   1.00
N5     N     0.01939   0.46726   0.50202   0.00000  Uiso   1.00
N6     N     0.98060   0.53274   0.49799   0.00000  Uiso   1.00
C21    C     0.85870   0.60021   0.49381   0.00000  Uiso   1.00
C22    C     0.89707   0.52520   0.49843   0.00000  Uiso   1.00
C23    C     0.85289   0.44457   0.50336   0.00000  Uiso   1.00
C24    C     0.77143   0.43925   0.50366   0.00000  Uiso   1.00
C25    C     0.73248   0.51458   0.49902   0.00000  Uiso   1.00
C26    C     0.77728   0.59520   0.49409   0.00000  Uiso   1.00
H5     H     0.26153   0.62353   0.49252   0.00000  Uiso   1.00
H6     H     0.11827   0.61392   0.49306   0.00000  Uiso   1.00
H7     H     0.89223   0.66261   0.49000   0.00000  Uiso   1.00
H8     H     0.88172   0.38608   0.50695   0.00000  Uiso   1.00
C27    C     0.42493   0.47267   0.91864   0.00000  Uiso   1.00
C28    C     0.42081   0.47266   0.05996   0.00000  Uiso   1.00
C29    C     0.49628   0.49958   0.13049   0.00000  Uiso   1.00
C30    C     0.55127   0.44126   0.08181   0.00000  Uiso   1.00
C31    C     0.55556   0.44201   0.94043   0.00000  Uiso   1.00
C32    C     0.50375   0.50043   0.86816   0.00000  Uiso   1.00
C33    C     0.52578   0.58597   0.92680   0.00000  Uiso   1.00
C34    C     0.52209   0.58544   0.06831   0.00000  Uiso   1.00
O9     O     0.40074   0.28534   0.66657   0.00000  Uiso   1.00
Li1    Li    0.33603   0.24788   0.77515   0.00000  Uiso   1.00
O10    O     0.39450   0.11298   0.67703   0.00000  Uiso   1.00
Li2    Li    0.37519   0.00489   0.70943   0.00000  Uiso   1.00
O11    O     0.59925   0.71465   0.33345   0.00000  Uiso   1.00
Li3    Li    0.66396   0.75212   0.22486   0.00000  Uiso   1.00
O12    O     0.41663   0.70385   0.63990   0.00000  Uiso   1.00
Li4    Li    0.35449   0.73379   0.74417   0.00000  Uiso   1.00
O13    O     0.25673   0.33420   0.51026   0.00000  Uiso   1.00
Li5    Li    0.22234   0.22746   0.51679   0.00000  Uiso   1.00
O14    O     0.10107   0.32494   0.51078   0.00000  Uiso   1.00
Li6    Li    0.00332   0.29368   0.51266   0.00000  Uiso   1.00
O15    O     0.74326   0.66580   0.48975   0.00000  Uiso   1.00
Li7    Li    0.77765   0.77254   0.48322   0.00000  Uiso   1.00
O16    O     0.73191   0.36400   0.50826   0.00000  Uiso   1.00
Li8    Li    0.75840   0.26111   0.51457   0.00000  Uiso   1.00
