# Generated by REPEAT Assigner based on pymatgen
data_DB1-MIL47V-ADC_B-irmof20_B_No193
_audit_creation_date              2022-05-24
_audit_creation_method            REPEAT_Assigner
_cell_length_a                    29.644500
_cell_length_b                    12.882600
_cell_length_c                    6.818000
_cell_angle_alpha                 106.069000
_cell_angle_beta                  110.503000
_cell_angle_gamma                 59.705700
_cell_volume                      2089.612693
_symmetry_space_group_name_H-M    P1
_symmetry_Int_Tables_number       1
loop_
    _symmetry_equiv_pos_site_id
    _symmetry_equiv_pos_as_xyz
    1  x,y,z
loop_
    _atom_site_type_symbol
    _atom_site_label
    _atom_site_fract_x
    _atom_site_fract_y
    _atom_site_fract_z
    _atom_type_partial_charge
    O  O1   0.497490  0.651010  0.148670  -0.440595
    O  O2   0.574250  0.420880  0.145220  -0.431770
    V  V1   0.496320  0.496300  0.008290  1.147217
    O  O3   0.578380  0.425860  0.483820  -0.375718
    O  O4   0.503680  0.350250  0.500800  -0.562156
    C  C1   0.599520  0.400390  0.336070  0.575964
    O  O5   0.422840  0.575350  0.825130  -0.409834
    C  C2   0.401760  0.600770  0.639690  0.596446
    O  O6   0.499130  0.346540  0.821650  -0.432128
    C  C3   0.501340  0.302110  0.635150  0.702652
    O  O7   0.502040  0.654710  0.487260  -0.536624
    O  O8   0.426960  0.580330  0.504290  -0.405274
    C  C4   0.499880  0.699090  0.340550  0.724136
    V  V2   0.504900  0.504910  0.525870  1.250239
    O  O9   0.523760  0.523790  0.789600  -0.513903
    O  O10  0.477460  0.477420  0.194840  -0.497482
    O  O11  0.926990  0.080510  0.807600  -0.535680
    O  O12  0.003670  0.850290  0.803980  -0.468444
    V  V3   0.004930  0.004900  0.944430  1.264210
    O  O13  0.999110  0.846590  0.465380  -0.387830
    O  O14  0.074280  0.920790  0.448380  -0.593580
    C  C5   0.001280  0.802150  0.612070  0.605602
    O  O15  0.002160  0.154610  0.131100  -0.525826
    C  C6   0.000000  0.198940  0.317610  0.706085
    O  O16  0.078410  0.925750  0.127540  -0.529813
    C  C7   0.099520  0.900230  0.312970  0.844264
    O  O17  0.922870  0.075530  0.468980  -0.489128
    O  O18  0.997610  0.150920  0.451960  -0.465594
    C  C8   0.901760  0.100980  0.616770  0.690006
    V  V4   0.996340  0.996310  0.426850  1.182549
    O  O19  0.977470  0.977480  0.163120  -0.457938
    O  O20  0.023810  0.023730  0.757880  -0.440956
    C  C9   0.502480  0.888760  0.591800  0.293310
    S  S1   0.497240  0.884750  0.202380  -0.043240
    C  C10  0.498740  0.112450  0.383900  -0.224934
    H  H1   0.497010  0.135350  0.262420  0.222421
    S  S2   0.503980  0.116460  0.773320  0.040500
    C  C11  0.500170  0.819300  0.399280  -0.330585
    C  C12  0.501050  0.181900  0.576420  -0.213816
    C  C13  0.499230  0.000860  0.385790  0.092869
    C  C14  0.501990  0.000350  0.589910  -0.000812
    C  C15  0.693910  0.302610  0.266090  0.289080
    S  S3   0.693540  0.313410  0.650900  -0.067805
    C  C16  0.807370  0.198760  0.686750  -0.227954
    H  H2   0.819410  0.190400  0.829810  0.214988
    S  S4   0.807740  0.187950  0.301940  0.069453
    C  C17  0.659770  0.340700  0.392030  -0.256593
    C  C18  0.841510  0.160660  0.560810  -0.194909
    C  C19  0.751200  0.252880  0.578520  0.111447
    C  C20  0.750080  0.248490  0.374320  -0.037070
    C  C21  0.307370  0.698560  0.384480  0.261235
    S  S5   0.307730  0.687760  0.759120  -0.053141
    C  C22  0.193910  0.802430  0.568180  -0.181739
    H  H3   0.181870  0.810790  0.683310  0.196042
    S  S6   0.193540  0.813230  0.193540  0.074632
    C  C23  0.341510  0.660470  0.574560  -0.262123
    C  C24  0.159770  0.840530  0.378100  -0.285584
    C  C25  0.250080  0.748300  0.574430  0.085742
    C  C26  0.251200  0.752690  0.378240  -0.000917
    C  C27  0.002960  0.611690  0.677630  0.286007
    S  S7   0.997740  0.617640  0.293070  -0.067167
    C  C28  0.998140  0.389590  0.251960  -0.171275
    H  H4   0.996290  0.367350  0.108420  0.185880
    S  S8   0.003350  0.383640  0.636520  0.080667
    C  C29  0.000990  0.681940  0.553350  -0.250685
    C  C30  0.000110  0.319340  0.376230  -0.237844
    C  C31  0.999170  0.500900  0.362730  0.100214
    C  C32  0.001920  0.500390  0.566860  -0.046712
    H  H5   0.533350  0.864640  0.940640  0.335461
    H  H6   0.479300  0.811220  0.782130  0.343690
    N  N1   0.505290  0.851590  0.788930  -0.723131
    H  H7   0.693710  0.346960  0.964660  0.367248
    H  H8   0.640670  0.295340  0.932550  0.335804
    N  N2   0.674370  0.316170  0.033930  -0.766668
    H  H9   0.307570  0.654210  0.037260  0.363358
    H  H10  0.360620  0.705820  0.220720  0.322024
    N  N3   0.326910  0.685000  0.197660  -0.753091
    H  H11  0.980880  0.634180  0.980080  0.359812
    H  H12  0.033220  0.687910  0.012230  0.310163
    N  N4   0.005950  0.647780  0.910540  -0.733350
