data_DB1-Cu2O8N2-irmof8_A-pmof1_A_No14_repeat
_audit_creation_date              2024-02-23
_audit_creation_method            'Materials Studio'
_symmetry_space_group_name_H-M    'P1'
_symmetry_Int_Tables_number       1
_symmetry_cell_setting            triclinic
loop_
_symmetry_equiv_pos_as_xyz
  x,y,z
_cell_length_a                    16.4229
_cell_length_b                    23.6231
_cell_length_c                    11.3412
_cell_angle_alpha                 90.0000
_cell_angle_beta                  89.4937
_cell_angle_gamma                 45.9572
loop_
_atom_site_label
_atom_site_type_symbol
_atom_site_fract_x
_atom_site_fract_y
_atom_site_fract_z
_atom_site_U_iso_or_equiv
_atom_site_adp_type
_atom_site_occupancy
Cu1    Cu    0.49999   0.50000   0.38779   0.00000  Uiso   1.00
Cu2    Cu    0.49999   0.50000   0.61221   0.00000  Uiso   1.00
O1     O     0.35273   0.57277   0.39724   0.00000  Uiso   1.00
O2     O     0.64756   0.42724   0.39347   0.00000  Uiso   1.00
O3     O     0.50320   0.57220   0.39531   0.00000  Uiso   1.00
O4     O     0.49710   0.42782   0.39539   0.00000  Uiso   1.00
O5     O     0.49683   0.42778   0.60468   0.00000  Uiso   1.00
O6     O     0.50285   0.57220   0.60461   0.00000  Uiso   1.00
O7     O     0.64738   0.42724   0.60276   0.00000  Uiso   1.00
O8     O     0.35242   0.57274   0.60653   0.00000  Uiso   1.00
C1     C     0.28757   0.60487   0.50272   0.00000  Uiso   1.00
C2     C     0.71241   0.39513   0.49728   0.00000  Uiso   1.00
C3     C     0.50429   0.60407   0.49995   0.00000  Uiso   1.00
C4     C     0.49569   0.39593   0.50006   0.00000  Uiso   1.00
C5     C     0.55982   0.49978   0.14065   0.00000  Uiso   1.00
C6     C     0.41676   0.50031   0.18653   0.00000  Uiso   1.00
C7     C     0.39465   0.50039   0.06715   0.00000  Uiso   1.00
C8     C     0.45864   0.50015   0.98195   0.00000  Uiso   1.00
C9     C     0.44017   0.50022   0.85934   0.00000  Uiso   1.00
C10    C     0.58323   0.49969   0.81347   0.00000  Uiso   1.00
C11    C     0.60534   0.49961   0.93285   0.00000  Uiso   1.00
C12    C     0.54135   0.49985   0.01804   0.00000  Uiso   1.00
N1     N     0.50000   0.50000   0.22102   0.00000  Uiso   1.00
N2     N     0.50000   0.50000   0.77898   0.00000  Uiso   1.00
H1     H     0.62380   0.49952   0.16742   0.00000  Uiso   1.00
H2     H     0.36961   0.50048   0.25390   0.00000  Uiso   1.00
H3     H     0.37619   0.50048   0.83258   0.00000  Uiso   1.00
H4     H     0.63037   0.49952   0.74608   0.00000  Uiso   1.00
C13    C     0.98090   0.76061   0.60816   0.00000  Uiso   1.00
C14    C     0.50040   0.75858   0.39345   0.00000  Uiso   1.00
C15    C     0.01590   0.24093   0.60485   0.00000  Uiso   1.00
C16    C     0.50278   0.23989   0.39354   0.00000  Uiso   1.00
C17    C     0.01909   0.23939   0.39184   0.00000  Uiso   1.00
C18    C     0.49959   0.24142   0.60655   0.00000  Uiso   1.00
C19    C     0.98409   0.75907   0.39515   0.00000  Uiso   1.00
C20    C     0.49721   0.76011   0.60646   0.00000  Uiso   1.00
H5     H     0.93420   0.78386   0.69064   0.00000  Uiso   1.00
H6     H     0.50169   0.78068   0.31082   0.00000  Uiso   1.00
H7     H     0.06011   0.21887   0.68764   0.00000  Uiso   1.00
H8     H     0.50396   0.21659   0.31091   0.00000  Uiso   1.00
H9     H     0.06578   0.21614   0.30937   0.00000  Uiso   1.00
H10    H     0.49830   0.21931   0.68918   0.00000  Uiso   1.00
H11    H     0.93987   0.78113   0.31236   0.00000  Uiso   1.00
H12    H     0.49602   0.78341   0.68910   0.00000  Uiso   1.00
C21    C     0.09937   0.70097   0.60867   0.00000  Uiso   1.00
C22    C     0.50145   0.69882   0.39334   0.00000  Uiso   1.00
C23    C     0.89742   0.30057   0.60455   0.00000  Uiso   1.00
C24    C     0.50173   0.29965   0.39345   0.00000  Uiso   1.00
C25    C     0.90062   0.29903   0.39133   0.00000  Uiso   1.00
C26    C     0.49854   0.30118   0.60666   0.00000  Uiso   1.00
C27    C     0.10256   0.69943   0.39546   0.00000  Uiso   1.00
C28    C     0.49826   0.70035   0.60655   0.00000  Uiso   1.00
H13    H     0.14221   0.67924   0.69216   0.00000  Uiso   1.00
H14    H     0.50335   0.67585   0.31000   0.00000  Uiso   1.00
H15    H     0.85208   0.32349   0.68773   0.00000  Uiso   1.00
H16    H     0.50233   0.32142   0.31011   0.00000  Uiso   1.00
H17    H     0.85777   0.32076   0.30784   0.00000  Uiso   1.00
H18    H     0.49664   0.32415   0.69000   0.00000  Uiso   1.00
H19    H     0.14790   0.67651   0.31227   0.00000  Uiso   1.00
H20    H     0.49766   0.67858   0.68989   0.00000  Uiso   1.00
N3     N     0.62144   0.87868   0.50041   0.00000  Uiso   1.00
N4     N     0.37855   0.12132   0.49960   0.00000  Uiso   1.00
C29    C     0.74129   0.82784   0.50082   0.00000  Uiso   1.00
C30    C     0.60351   0.82770   0.50033   0.00000  Uiso   1.00
C31    C     0.25870   0.17216   0.49918   0.00000  Uiso   1.00
C32    C     0.39648   0.17230   0.49967   0.00000  Uiso   1.00
C33    C     0.79474   0.74586   0.50099   0.00000  Uiso   1.00
C34    C     0.71412   0.74578   0.50071   0.00000  Uiso   1.00
C35    C     0.20525   0.25414   0.49901   0.00000  Uiso   1.00
C36    C     0.28586   0.25422   0.49929   0.00000  Uiso   1.00
H21    H     0.88461   0.69336   0.50130   0.00000  Uiso   1.00
H22    H     0.72945   0.69320   0.50075   0.00000  Uiso   1.00
H23    H     0.11538   0.30664   0.49870   0.00000  Uiso   1.00
H24    H     0.27053   0.30680   0.49925   0.00000  Uiso   1.00
C37    C     0.74020   0.93568   0.50084   0.00000  Uiso   1.00
C38    C     0.38893   0.93532   0.49960   0.00000  Uiso   1.00
C39    C     0.25979   0.06432   0.49917   0.00000  Uiso   1.00
C40    C     0.61105   0.06468   0.50040   0.00000  Uiso   1.00
C41    C     0.79694   0.95962   0.50104   0.00000  Uiso   1.00
C42    C     0.28442   0.95909   0.49924   0.00000  Uiso   1.00
C43    C     0.20304   0.04038   0.49896   0.00000  Uiso   1.00
C44    C     0.71557   0.04091   0.50077   0.00000  Uiso   1.00
H25    H     0.88766   0.92235   0.50135   0.00000  Uiso   1.00
H26    H     0.26842   0.92172   0.49917   0.00000  Uiso   1.00
H27    H     0.11233   0.07765   0.49865   0.00000  Uiso   1.00
H28    H     0.73157   0.07828   0.50083   0.00000  Uiso   1.00
C45    C     0.79700   0.85124   0.50102   0.00000  Uiso   1.00
C46    C     0.50111   0.85094   0.49998   0.00000  Uiso   1.00
C47    C     0.20299   0.14876   0.49898   0.00000  Uiso   1.00
C48    C     0.49887   0.14906   0.50002   0.00000  Uiso   1.00
C49    C     0.92264   0.78970   0.50145   0.00000  Uiso   1.00
C50    C     0.49882   0.78927   0.49996   0.00000  Uiso   1.00
C51    C     0.07735   0.21030   0.49855   0.00000  Uiso   1.00
C52    C     0.50117   0.21073   0.50004   0.00000  Uiso   1.00
C53    C     0.16180   0.66931   0.50227   0.00000  Uiso   1.00
C54    C     0.50092   0.66864   0.49995   0.00000  Uiso   1.00
C55    C     0.83818   0.33069   0.49773   0.00000  Uiso   1.00
C56    C     0.49907   0.33136   0.50006   0.00000  Uiso   1.00
N5     N     0.62745   0.00013   0.50045   0.00000  Uiso   1.00
N6     N     0.37253   0.99987   0.49955   0.00000  Uiso   1.00
H29    H     0.56508   0.00007   0.50023   0.00000  Uiso   1.00
H30    H     0.43490   0.99993   0.49977   0.00000  Uiso   1.00
H31    H     0.67484   0.53784   0.04475   0.00000  Uiso   1.00
H32    H     0.77709   0.46047   0.92503   0.00000  Uiso   1.00
N7     N     0.69354   0.49928   0.97090   0.00000  Uiso   1.00
H33    H     0.24819   0.53942   0.95624   0.00000  Uiso   1.00
H34    H     0.29989   0.46224   0.07400   0.00000  Uiso   1.00
N8     N     0.30646   0.50071   0.02910   0.00000  Uiso   1.00
