# Generated by REPEAT Assigner based on pymatgen
data_DB1-Cu2O8N2-DPAC_A-irmof10_A_No400
_audit_creation_date              2022-05-24
_audit_creation_method            REPEAT_Assigner
_cell_length_a                    32.317900
_cell_length_b                    17.372200
_cell_length_c                    15.850000
_cell_angle_alpha                 89.994400
_cell_angle_beta                  89.992700
_cell_angle_gamma                 89.869600
_cell_volume                      8898.690244
_symmetry_space_group_name_H-M    P1
_symmetry_Int_Tables_number       1
loop_
    _symmetry_equiv_pos_site_id
    _symmetry_equiv_pos_as_xyz
    1  x,y,z
loop_
    _atom_site_type_symbol
    _atom_site_label
    _atom_site_fract_x
    _atom_site_fract_y
    _atom_site_fract_z
    _atom_type_partial_charge
    Cu  Cu1   0.500010  0.500000  0.419710  0.872689
    Cu  Cu2   0.500000  0.499990  0.580290  0.885981
    O   O1    0.553810  0.499980  0.425120  -0.468172
    O   O2    0.446100  0.500240  0.425130  -0.567056
    O   O3    0.499890  0.600300  0.425120  -0.363993
    O   O4    0.500010  0.399920  0.425130  -0.405676
    O   O5    0.500100  0.399690  0.574880  -0.380065
    O   O6    0.500010  0.600070  0.574870  -0.493946
    O   O7    0.446150  0.500120  0.574880  -0.433169
    O   O8    0.553910  0.499720  0.574870  -0.526879
    C   C1    0.577610  0.499830  0.500000  0.457748
    C   C2    0.422400  0.500160  0.500010  0.496989
    C   C3    0.499960  0.644360  0.499990  0.483929
    C   C4    0.500050  0.355630  0.500010  0.460542
    Cu  Cu3   0.962460  0.499380  0.580310  0.878961
    Cu  Cu4   0.962470  0.499930  0.419730  0.849202
    O   O9    0.908660  0.499460  0.574900  -0.466702
    O   O10   0.016370  0.499560  0.574890  -0.567026
    O   O11   0.962370  0.599700  0.575290  -0.364016
    O   O12   0.962660  0.399320  0.574500  -0.421484
    O   O13   0.962570  0.399600  0.424740  -0.393011
    O   O14   0.962250  0.599980  0.425540  -0.491136
    O   O15   0.016310  0.499950  0.425140  -0.429792
    O   O16   0.908560  0.499720  0.425150  -0.517360
    C   C5    0.884860  0.499610  0.500020  0.452220
    C   C6    0.040070  0.499700  0.500010  0.488184
    C   C7    0.962220  0.644020  0.500590  0.500922
    C   C8    0.962710  0.355280  0.499440  0.527124
    N   N1    0.500010  0.500000  0.300380  -0.304189
    C   C9    0.473440  0.549470  0.253920  0.144509
    C   C10   0.473360  0.549620  0.165080  -0.459903
    C   C11   0.500000  0.500000  0.120060  0.410848
    C   C12   0.526640  0.450370  0.165070  -0.553341
    C   C13   0.526570  0.450520  0.253910  0.649779
    C   C14   0.500000  0.500000  0.037720  -0.192907
    C   C15   0.499990  0.500000  0.962280  -0.057772
    C   C16   0.499990  0.499990  0.879950  0.247323
    C   C17   0.473340  0.549590  0.834930  -0.265146
    C   C18   0.473420  0.549450  0.746080  0.431558
    N   N2    0.499990  0.499990  0.699620  -0.250834
    C   C19   0.526570  0.450530  0.746080  0.145276
    C   C20   0.526640  0.450390  0.834930  -0.468319
    H   H1    0.453750  0.586150  0.284760  0.097411
    H   H2    0.453700  0.586230  0.133910  0.115933
    H   H3    0.546300  0.413760  0.133890  0.123853
    H   H4    0.453680  0.586190  0.866100  -0.065320
    H   H5    0.546260  0.413860  0.715250  0.082480
    H   H6    0.546310  0.413790  0.866100  0.144611
    C   C21   0.500040  0.274060  0.500010  -0.209136
    C   C22   0.499980  0.231680  0.423450  -0.069171
    C   C23   0.499970  0.150620  0.423220  -0.406982
    C   C24   0.500010  0.109530  0.499990  0.424361
    C   C25   0.500060  0.150590  0.576780  -0.609575
    C   C26   0.500080  0.231650  0.576560  0.677923
    C   C27   0.500000  0.034410  0.499990  -0.166783
    C   C28   0.499990  0.965580  0.499980  -0.158175
    C   C29   0.499980  0.890460  0.499980  0.427832
    C   C30   0.499910  0.849390  0.423200  -0.599233
    C   C31   0.499900  0.768330  0.423430  0.664002
    C   C32   0.499960  0.725930  0.499990  -0.216507
    C   C33   0.500030  0.768320  0.576540  -0.059520
    C   C34   0.500040  0.849380  0.576770  -0.424697
    H   H7    0.499950  0.259810  0.366700  0.106827
    H   H8    0.499930  0.122190  0.366560  0.152115
    H   H9    0.500090  0.122140  0.633430  0.156691
    H   H10   0.499870  0.877840  0.366550  0.149075
    H   H11   0.500070  0.740190  0.633290  0.151961
    H   H12   0.500080  0.877820  0.633420  0.152111
    C   C35   0.622210  0.499800  0.500000  -0.129629
    C   C36   0.840260  0.499640  0.500020  -0.119086
    C   C37   0.644040  0.499910  0.424330  0.200257
    C   C38   0.687430  0.499880  0.423630  -0.377214
    C   C39   0.818430  0.499520  0.575690  0.187696
    C   C40   0.775040  0.499560  0.576390  -0.365926
    C   C41   0.818440  0.499780  0.424340  -0.084048
    C   C42   0.775050  0.499820  0.423640  -0.263907
    C   C43   0.644020  0.499650  0.575670  -0.077877
    C   C44   0.687420  0.499620  0.576380  -0.272277
    C   C45   0.709370  0.499740  0.500010  0.160482
    C   C46   0.753100  0.499700  0.500010  0.145483
    H   H13   0.702110  0.499960  0.370960  0.163340
    H   H14   0.760360  0.499480  0.629060  0.161230
    H   H15   0.833300  0.499860  0.371890  0.127832
    H   H16   0.760380  0.499920  0.370970  0.144221
    H   H17   0.629170  0.499580  0.628130  0.127837
    H   H18   0.702080  0.499520  0.629050  0.145051
    C   C47   0.083910  0.499760  0.500010  -0.091919
    C   C48   0.106700  0.499710  0.576570  -0.117984
    C   C49   0.150270  0.499760  0.576800  -0.315373
    C   C50   0.172350  0.499870  0.500020  0.359555
    C   C51   0.150280  0.499930  0.423240  -0.510642
    C   C52   0.106710  0.499870  0.423460  0.432455
    C   C53   0.212730  0.499920  0.500020  -0.146918
    C   C54   0.249730  0.499970  0.500030  -0.134650
    C   C55   0.290110  0.500020  0.500020  0.356388
    C   C56   0.312190  0.499980  0.576800  -0.514281
    C   C57   0.355760  0.500030  0.576570  0.443644
    C   C58   0.378550  0.500110  0.500010  -0.106882
    C   C59   0.355770  0.500150  0.423460  -0.110360
    C   C60   0.312190  0.500100  0.423240  -0.318127
    H   H19   0.091570  0.499620  0.633320  0.137216
    H   H20   0.165550  0.499720  0.633450  0.114573
    H   H21   0.165570  0.500010  0.366580  0.129611
    H   H22   0.296900  0.499920  0.633460  0.130722
    H   H23   0.370890  0.500210  0.366710  0.134681
    H   H24   0.296910  0.500130  0.366590  0.114704
    N   N3    0.962450  0.502410  0.699640  -0.287284
    C   C61   0.988920  0.551680  0.746290  0.138122
    C   C62   0.989000  0.551520  0.835140  -0.464608
    C   C63   0.962460  0.501780  0.879970  0.414109
    C   C64   0.935920  0.452360  0.834760  -0.555464
    C   C65   0.935990  0.452810  0.745920  0.638242
    C   C66   0.962470  0.501500  0.962300  -0.189410
    C   C67   0.962470  0.501250  0.037740  -0.063509
    C   C68   0.962470  0.500960  0.120080  0.253942
    C   C69   0.989020  0.550360  0.165290  -0.265760
    C   C70   0.988940  0.549910  0.254130  0.415962
    N   N4    0.962470  0.500330  0.300400  -0.215368
    C   C71   0.936000  0.451070  0.253740  0.120763
    C   C72   0.935920  0.451230  0.164900  -0.467376
    H   H25   0.008540  0.588440  0.715600  0.099775
    H   H26   0.008590  0.588000  0.866450  0.116583
    H   H27   0.916340  0.415670  0.865800  0.124379
    H   H28   0.008610  0.587040  0.134260  -0.063711
    H   H29   0.916370  0.414330  0.284430  0.092487
    H   H30   0.916330  0.414770  0.133580  0.145258
    C   C73   0.960870  0.273710  0.503040  -0.279345
    C   C74   0.961010  0.231070  0.579430  -0.030865
    C   C75   0.961190  0.150010  0.579350  -0.425918
    C   C76   0.961230  0.109190  0.502410  0.448031
    C   C77   0.961090  0.150510  0.425790  -0.624328
    C   C78   0.960910  0.231570  0.426330  0.702790
    C   C79   0.961390  0.034060  0.502120  -0.178732
    C   C80   0.961540  0.965240  0.501860  -0.151581
    C   C81   0.961700  0.890110  0.501560  0.427562
    C   C82   0.961850  0.848780  0.578180  -0.604424
    C   C83   0.962020  0.767720  0.577640  0.673299
    C   C84   0.962050  0.725590  0.500920  -0.231818
    C   C85   0.961900  0.768240  0.424530  -0.053915
    C   C86   0.961730  0.849300  0.424620  -0.426615
    H   H31   0.960980  0.259010  0.636290  0.095546
    H   H32   0.961280  0.121380  0.635890  0.155821
    H   H33   0.961110  0.122260  0.369030  0.157816
    H   H34   0.961830  0.877030  0.634950  0.150375
    H   H35   0.961910  0.740300  0.367670  0.150041
    H   H36   0.961620  0.877930  0.368080  0.152490
    O   O17   0.551540  0.404020  0.293000  -0.841129
    Li  Li1   0.587060  0.337850  0.258760  0.873123
    O   O18   0.448440  0.595940  0.706990  -0.546911
    Li  Li2   0.412910  0.662080  0.741220  0.597898
    O   O19   0.500130  0.267310  0.648520  -0.909947
    Li  Li3   0.500190  0.236060  0.750900  0.854599
    O   O20   0.499840  0.732670  0.351470  -0.917954
    Li  Li4   0.499760  0.763910  0.249090  0.868493
    O   O21   0.087540  0.499930  0.351500  -0.645047
    Li  Li5   0.104340  0.500070  0.249120  0.600704
    O   O22   0.374930  0.500000  0.648530  -0.651446
    Li  Li6   0.358140  0.499900  0.750910  0.602154
    O   O23   0.911120  0.406480  0.706650  -0.828367
    Li  Li7   0.875730  0.340250  0.740630  0.871600
    O   O24   0.013830  0.596230  0.293410  -0.539697
    Li  Li8   0.049230  0.662430  0.259440  0.596598
    O   O25   0.960790  0.267470  0.354500  -0.913652
    Li  Li9   0.960790  0.236580  0.252010  0.855003
    O   O26   0.962160  0.731810  0.649450  -0.918702
    Li  Li10  0.962170  0.762700  0.751960  0.867004
    C   C87   0.620030  0.500080  0.339500  -0.125917
    H   H37   0.627120  0.545300  0.307890  0.031102
    H   H38   0.590820  0.499960  0.350560  0.127089
    H   H39   0.627300  0.455060  0.307600  -0.038819
    C   C88   0.842440  0.499360  0.660520  -0.103761
    H   H40   0.835260  0.544490  0.692310  0.027147
    H   H41   0.871640  0.499240  0.649460  0.119407
    H   H42   0.835260  0.454250  0.692240  -0.047793
