# Generated by REPEAT Assigner based on pymatgen
data_DB1-Cu2O8N2-DPAC_A-irmof20_A_No24
_audit_creation_date              2022-05-24
_audit_creation_method            REPEAT_Assigner
_cell_length_a                    29.873300
_cell_length_b                    17.372200
_cell_length_c                    15.850000
_cell_angle_alpha                 89.994400
_cell_angle_beta                  89.992900
_cell_angle_gamma                 89.867700
_cell_volume                      8225.572304
_symmetry_space_group_name_H-M    P1
_symmetry_Int_Tables_number       1
loop_
    _symmetry_equiv_pos_site_id
    _symmetry_equiv_pos_as_xyz
    1  x,y,z
loop_
    _atom_site_type_symbol
    _atom_site_label
    _atom_site_fract_x
    _atom_site_fract_y
    _atom_site_fract_z
    _atom_type_partial_charge
    Cu  Cu1   0.500010  0.500000  0.419710  0.691343
    Cu  Cu2   0.500000  0.499990  0.580290  0.901055
    O   O1    0.558210  0.499980  0.425120  -0.337661
    O   O2    0.441680  0.500240  0.425130  -0.366642
    O   O3    0.499890  0.600300  0.425120  -0.368349
    O   O4    0.500010  0.399920  0.425130  -0.357521
    O   O5    0.500100  0.399690  0.574880  -0.368936
    O   O6    0.500010  0.600070  0.574870  -0.367552
    O   O7    0.441750  0.500120  0.574880  -0.425371
    O   O8    0.558320  0.499720  0.574870  -0.465082
    C   C1    0.583960  0.499830  0.500000  0.436460
    C   C2    0.416050  0.500160  0.500010  0.484274
    C   C3    0.499950  0.644360  0.499990  0.412952
    C   C4    0.500050  0.355630  0.500010  0.448301
    Cu  Cu3   0.918470  0.499410  0.580300  0.651273
    Cu  Cu4   0.918480  0.499960  0.419720  0.914838
    O   O9    0.860270  0.499500  0.574900  -0.342659
    O   O10   0.976790  0.499590  0.574890  -0.353571
    O   O11   0.918370  0.599730  0.575290  -0.360233
    O   O12   0.918690  0.399350  0.574490  -0.381735
    O   O13   0.918590  0.399640  0.424740  -0.410077
    O   O14   0.918250  0.600020  0.425540  -0.365576
    O   O15   0.976730  0.499980  0.425130  -0.421855
    O   O16   0.860150  0.499750  0.425140  -0.481550
    C   C5    0.834520  0.499640  0.500020  0.447625
    C   C6    0.002430  0.499730  0.500010  0.458630
    C   C7    0.918210  0.644050  0.500590  0.424789
    C   C8    0.918740  0.355320  0.499440  0.555783
    N   N1    0.500010  0.500000  0.300380  -0.293171
    C   C9    0.471270  0.549480  0.253920  0.286662
    C   C10   0.471180  0.549620  0.165080  -0.142285
    C   C11   0.500000  0.499990  0.120060  -0.013239
    C   C12   0.528820  0.450370  0.165070  -0.345879
    C   C13   0.528740  0.450520  0.253910  0.511734
    C   C14   0.500000  0.500000  0.037720  0.007423
    C   C15   0.499990  0.500000  0.962280  -0.003842
    C   C16   0.499990  0.499990  0.879950  -0.017481
    C   C17   0.471160  0.549600  0.834930  -0.137973
    C   C18   0.471250  0.549450  0.746080  0.290874
    N   N2    0.499990  0.499990  0.699620  -0.315753
    C   C19   0.528740  0.450530  0.746080  0.474729
    C   C20   0.528820  0.450380  0.834930  -0.308988
    H   H1    0.449910  0.586230  0.133910  -0.200926
    H   H2    0.550090  0.413760  0.133890  -0.042711
    H   H3    0.449890  0.586200  0.866100  -0.199948
    H   H4    0.550100  0.413780  0.866100  -0.057542
    C   C21   0.500040  0.274060  0.500010  -0.204410
    C   C22   0.499980  0.231680  0.423450  0.424453
    C   C23   0.499960  0.150620  0.423220  -0.597641
    C   C24   0.500010  0.109530  0.499990  0.421332
    C   C25   0.500070  0.150590  0.576780  -0.600225
    C   C26   0.500080  0.231650  0.576560  0.426741
    C   C27   0.500000  0.034410  0.499990  -0.153833
    C   C28   0.499990  0.965580  0.499980  -0.103476
    C   C29   0.499980  0.890460  0.499980  0.386144
    C   C30   0.499900  0.849390  0.423200  -0.568495
    C   C31   0.499900  0.768330  0.423430  0.398029
    C   C32   0.499960  0.725930  0.499990  -0.151063
    C   C33   0.500030  0.768320  0.576540  0.404147
    C   C34   0.500040  0.849380  0.576770  -0.568698
    H   H5    0.499920  0.122180  0.366560  0.107733
    H   H6    0.500100  0.122140  0.633430  0.108404
    H   H7    0.499860  0.877840  0.366550  0.087117
    H   H8    0.500090  0.877820  0.633420  0.087091
    C   C35   0.662930  0.499660  0.566920  -0.204424
    H   H9    0.653540  0.499570  0.622910  0.190359
    S   S1    0.660870  0.499940  0.403420  0.025445
    C   C36   0.755550  0.499820  0.433090  -0.203279
    H   H10   0.764930  0.499910  0.377110  0.191087
    S   S2    0.757610  0.499530  0.596590  0.022662
    C   C37   0.633910  0.499790  0.500000  -0.057871
    C   C38   0.784570  0.499680  0.500010  -0.058802
    C   C39   0.709240  0.499810  0.456890  0.022043
    C   C40   0.709230  0.499660  0.543130  0.024834
    C   C41   0.049860  0.499780  0.500010  -0.193406
    C   C42   0.074510  0.499730  0.576570  0.437612
    C   C43   0.121650  0.499780  0.576800  -0.594810
    C   C44   0.145540  0.499890  0.500020  0.396956
    C   C45   0.121660  0.499950  0.423240  -0.603494
    C   C46   0.074520  0.499900  0.423460  0.437823
    C   C47   0.189230  0.499940  0.500020  -0.110378
    C   C48   0.229250  0.499980  0.500030  -0.135289
    C   C49   0.272940  0.500030  0.500020  0.416018
    C   C50   0.296820  0.499990  0.576800  -0.609026
    C   C51   0.343960  0.500040  0.576570  0.446110
    C   C52   0.368610  0.500120  0.500010  -0.215439
    C   C53   0.343960  0.500160  0.423460  0.441181
    C   C54   0.296820  0.500110  0.423240  -0.602296
    H   H11   0.138180  0.499740  0.633450  0.099142
    H   H12   0.138210  0.500030  0.366580  0.100766
    H   H13   0.280280  0.499940  0.633450  0.102022
    H   H14   0.280290  0.500140  0.366590  0.100979
    N   N3    0.918460  0.502440  0.699640  -0.258239
    C   C55   0.947090  0.551710  0.746290  0.278229
    C   C56   0.947190  0.551550  0.835130  -0.141396
    C   C57   0.918470  0.501820  0.879960  -0.022250
    C   C58   0.889760  0.452390  0.834760  -0.332703
    C   C59   0.889840  0.452850  0.745910  0.486176
    C   C60   0.918480  0.501540  0.962300  0.010548
    C   C61   0.918480  0.501280  0.037740  -0.001762
    C   C62   0.918480  0.500990  0.120070  -0.016394
    C   C63   0.947210  0.550400  0.165290  -0.139741
    C   C64   0.947120  0.549940  0.254130  0.288159
    N   N4    0.918480  0.500370  0.300400  -0.303865
    C   C65   0.889840  0.451110  0.253740  0.466134
    C   C66   0.889760  0.451270  0.164890  -0.311936
    H   H15   0.968370  0.588030  0.866440  -0.198503
    H   H16   0.868570  0.415700  0.865790  -0.046418
    H   H17   0.968400  0.587070  0.134260  -0.198749
    H   H18   0.868570  0.414810  0.133580  -0.059687
    C   C67   0.916750  0.273740  0.503040  -0.321466
    C   C68   0.916900  0.231100  0.579430  0.485492
    C   C69   0.917090  0.150040  0.579350  -0.637144
    C   C70   0.917140  0.109220  0.502410  0.471350
    C   C71   0.916990  0.150540  0.425780  -0.629083
    C   C72   0.916800  0.231600  0.426320  0.468462
    C   C73   0.917310  0.034100  0.502120  -0.179124
    C   C74   0.917470  0.965270  0.501860  -0.092035
    C   C75   0.917650  0.890150  0.501560  0.381465
    C   C76   0.917810  0.848820  0.578180  -0.559334
    C   C77   0.917990  0.767760  0.577630  0.388928
    C   C78   0.918020  0.725620  0.500910  -0.154970
    C   C79   0.917860  0.768270  0.424520  0.405431
    C   C80   0.917680  0.849330  0.424620  -0.568800
    H   H19   0.917200  0.121410  0.635890  0.115667
    H   H20   0.917010  0.122290  0.369020  0.111369
    H   H21   0.917790  0.877070  0.634940  0.083786
    H   H22   0.917560  0.877960  0.368080  0.087657
    O   O17   0.444260  0.595980  0.293020  -0.433527
    Li  Li1   0.405830  0.662150  0.258800  0.525808
    O   O18   0.555760  0.404020  0.293000  -0.640139
    Li  Li2   0.594190  0.337850  0.258760  0.635999
    O   O19   0.444220  0.595940  0.706990  -0.445727
    Li  Li3   0.405780  0.662080  0.741220  0.529848
    O   O20   0.555760  0.404040  0.706990  -0.629085
    Li  Li4   0.594200  0.337890  0.741220  0.636498
    O   O21   0.499930  0.267350  0.351490  -0.656250
    Li  Li5   0.499860  0.236140  0.249110  0.666069
    O   O22   0.500140  0.267310  0.648520  -0.655191
    Li  Li6   0.500200  0.236060  0.750900  0.661741
    O   O23   0.499830  0.732670  0.351470  -0.657717
    Li  Li7   0.499740  0.763910  0.249090  0.709684
    O   O24   0.500090  0.732650  0.648500  -0.665558
    Li  Li8   0.500180  0.763870  0.750880  0.712512
    O   O25   0.053760  0.499630  0.648520  -0.665323
    Li  Li9   0.071910  0.499540  0.750900  0.696400
    O   O26   0.053790  0.499950  0.351500  -0.650012
    Li  Li10  0.071960  0.500090  0.249120  0.688611
    O   O27   0.364700  0.500000  0.648530  -0.652360
    Li  Li11  0.346530  0.499910  0.750910  0.687984
    O   O28   0.364710  0.500240  0.351500  -0.659354
    Li  Li12  0.346550  0.500300  0.249120  0.689255
    O   O29   0.974000  0.598320  0.707370  -0.441348
    Li  Li13  0.012290  0.664300  0.741850  0.530509
    O   O30   0.862920  0.406520  0.706640  -0.618287
    Li  Li14  0.824640  0.340290  0.740620  0.633982
    O   O31   0.974040  0.596260  0.293400  -0.452498
    Li  Li15  0.012340  0.662460  0.259430  0.535605
    O   O32   0.862920  0.404520  0.292650  -0.605790
    Li  Li16  0.824630  0.338550  0.258160  0.622565
    O   O33   0.916870  0.266530  0.651530  -0.665932
    Li  Li17  0.917010  0.234960  0.753780  0.659534
    O   O34   0.916660  0.267500  0.354500  -0.652282
    Li  Li18  0.916670  0.236610  0.252000  0.653211
    O   O35   0.918140  0.731850  0.649450  -0.652343
    Li  Li19  0.918160  0.762730  0.751950  0.708182
    O   O36   0.917880  0.732850  0.352430  -0.669808
    Li  Li20  0.917720  0.764420  0.250170  0.714767
