# Generated by REPEAT Assigner based on pymatgen
data_DB1-Zn4O13-irmof14_A-irmof20_A_No47
_audit_creation_date              2022-05-24
_audit_creation_method            REPEAT_Assigner
_cell_length_a                    20.719800
_cell_length_b                    22.478000
_cell_length_c                    36.930700
_cell_angle_alpha                 99.618700
_cell_angle_beta                  106.291000
_cell_angle_gamma                 62.555400
_cell_volume                      14637.031800
_symmetry_space_group_name_H-M    P1
_symmetry_Int_Tables_number       1
loop_
    _symmetry_equiv_pos_site_id
    _symmetry_equiv_pos_as_xyz
    1  x,y,z
loop_
    _atom_site_type_symbol
    _atom_site_label
    _atom_site_fract_x
    _atom_site_fract_y
    _atom_site_fract_z
    _atom_type_partial_charge
    Zn  Zn1   0.407050  0.549320  0.516440  1.219040
    Zn  Zn2   0.478180  0.488940  0.445300  1.213515
    Zn  Zn3   0.554700  0.412420  0.521820  1.212298
    Zn  Zn4   0.560070  0.549320  0.516440  1.221550
    O   O1    0.500000  0.500000  0.500000  -1.436964
    O   O2    0.320440  0.573330  0.475010  -0.528517
    O   O3    0.515830  0.396270  0.427930  -0.566486
    O   O4    0.503130  0.398550  0.553120  -0.527634
    O   O5    0.372730  0.528950  0.422720  -0.537419
    O   O6    0.394600  0.499170  0.549160  -0.525057
    O   O7    0.572070  0.340020  0.484170  -0.564875
    O   O8    0.651440  0.398550  0.553120  -0.528224
    O   O9    0.512290  0.631850  0.543950  -0.574824
    O   O10   0.655400  0.499170  0.549160  -0.530621
    O   O11   0.399810  0.631850  0.543950  -0.571708
    O   O12   0.521040  0.528950  0.422720  -0.536403
    O   O13   0.581240  0.573330  0.475010  -0.522216
    C   C1    0.316590  0.561140  0.438860  0.433978
    C   C2    0.552550  0.342360  0.447450  0.417750
    C   C3    0.438860  0.438860  0.561140  0.413949
    C   C4    0.683420  0.438860  0.561140  0.418102
    C   C5    0.447460  0.657640  0.552550  0.419476
    C   C6    0.561140  0.561140  0.438860  0.413954
    Zn  Zn5   0.342950  0.200680  0.733560  1.216576
    Zn  Zn6   0.195300  0.337580  0.728180  1.214387
    Zn  Zn7   0.271820  0.261060  0.804700  1.212744
    Zn  Zn8   0.189930  0.200680  0.733560  1.220730
    O   O14   0.250000  0.250000  0.750000  -1.435636
    O   O15   0.355410  0.250830  0.700840  -0.525138
    O   O16   0.177930  0.409980  0.765830  -0.566378
    O   O17   0.377270  0.221050  0.827280  -0.523927
    O   O18   0.246880  0.351450  0.696880  -0.528148
    O   O19   0.429560  0.176670  0.775000  -0.522977
    O   O20   0.234170  0.353730  0.822070  -0.574182
    O   O21   0.228960  0.221050  0.827280  -0.526240
    O   O22   0.237710  0.118140  0.706050  -0.568533
    O   O23   0.168760  0.176670  0.775000  -0.532824
    O   O24   0.350190  0.118140  0.706050  -0.571256
    O   O25   0.098560  0.351450  0.696880  -0.532127
    O   O26   0.094610  0.250830  0.700840  -0.543401
    C   C7    0.311140  0.311140  0.688860  0.413500
    C   C8    0.197460  0.407640  0.802550  0.423841
    C   C9    0.433420  0.188860  0.811140  0.416044
    C   C10   0.188860  0.188860  0.811140  0.413511
    C   C11   0.302550  0.092360  0.697450  0.416991
    C   C12   0.066580  0.311140  0.688860  0.435376
    Zn  Zn9   0.771820  0.761060  0.304700  1.213691
    Zn  Zn10  0.689930  0.700680  0.233560  1.221404
    Zn  Zn11  0.842950  0.700680  0.233560  1.218984
    Zn  Zn12  0.695310  0.837570  0.228180  1.212102
    O   O27   0.750000  0.750000  0.250000  -1.436969
    O   O28   0.728960  0.721050  0.327280  -0.536598
    O   O29   0.737710  0.618140  0.206050  -0.574694
    O   O30   0.929560  0.676670  0.274990  -0.528474
    O   O31   0.668760  0.676670  0.274990  -0.522258
    O   O32   0.877280  0.721050  0.327280  -0.537360
    O   O33   0.850190  0.618140  0.206050  -0.571543
    O   O34   0.855410  0.750830  0.200840  -0.525130
    O   O35   0.677930  0.909970  0.265830  -0.565070
    O   O36   0.746880  0.851450  0.196890  -0.527861
    O   O37   0.734170  0.853730  0.322070  -0.566676
    O   O38   0.594610  0.750830  0.200840  -0.530843
    O   O39   0.598560  0.851450  0.196890  -0.527894
    C   C13   0.688860  0.688860  0.311140  0.414259
    C   C14   0.802550  0.592360  0.197450  0.419033
    C   C15   0.933420  0.688860  0.311140  0.433834
    C   C16   0.811140  0.811140  0.188860  0.414309
    C   C17   0.697460  0.907640  0.302550  0.418331
    C   C18   0.566590  0.811140  0.188860  0.418519
    Zn  Zn13  0.054700  0.912420  0.021820  1.214150
    Zn  Zn14  0.060070  0.049320  0.016440  1.220369
    Zn  Zn15  0.907050  0.049320  0.016440  1.216477
    Zn  Zn16  0.978190  0.988940  0.945300  1.212448
    O   O40   0.000000  0.000000  0.000000  -1.435159
    O   O41   0.151440  0.898550  0.053120  -0.532235
    O   O42   0.012290  0.131860  0.043950  -0.568441
    O   O43   0.894600  0.999170  0.049160  -0.524962
    O   O44   0.155400  0.999170  0.049160  -0.543126
    O   O45   0.003130  0.898550  0.053120  -0.527883
    O   O46   0.899810  0.131860  0.043950  -0.571309
    O   O47   0.820440  0.073330  0.975010  -0.523074
    O   O48   0.015830  0.896260  0.927930  -0.574179
    O   O49   0.872730  0.028950  0.922720  -0.523686
    O   O50   0.072070  0.840020  0.984170  -0.566240
    O   O51   0.081240  0.073330  0.975010  -0.532635
    O   O52   0.021040  0.028950  0.922720  -0.525902
    C   C19   0.183420  0.938860  0.061140  0.435197
    C   C20   0.947460  0.157640  0.052550  0.417132
    C   C21   0.938860  0.938860  0.061140  0.413147
    C   C22   0.816580  0.061140  0.938860  0.415897
    C   C23   0.052550  0.842360  0.947450  0.423779
    C   C24   0.061140  0.061140  0.938860  0.412879
    C   C25   0.359610  0.748700  0.582900  -0.362272
    C   C26   0.341900  0.810260  0.603420  0.230066
    C   C27   0.274480  0.844290  0.614760  -0.105084
    H   H1    0.326350  0.729480  0.576500  0.169185
    C   C28   0.474600  0.748700  0.582900  -0.360334
    C   C29   0.451260  0.810260  0.603420  0.208408
    C   C30   0.496000  0.844290  0.614760  -0.071525
    H   H2    0.520660  0.729480  0.576500  0.170433
    C   C31   0.390390  0.001300  0.667100  -0.356014
    C   C32   0.408100  0.939740  0.646580  0.221198
    C   C33   0.475530  0.905700  0.635240  -0.100196
    H   H3    0.423650  0.020510  0.673500  0.168740
    C   C34   0.275410  0.001300  0.667100  -0.347596
    C   C35   0.298740  0.939740  0.646580  0.190009
    C   C36   0.254000  0.905700  0.635240  -0.061522
    H   H4    0.229340  0.020510  0.673500  0.167568
    C   C37   0.427840  0.716480  0.572160  0.344605
    C   C38   0.384680  0.845960  0.615320  -0.030352
    C   C39   0.322160  0.033520  0.677840  0.336949
    C   C40   0.365320  0.904040  0.634680  -0.011885
    C   C41   0.554150  0.280050  0.388350  -0.340154
    C   C42   0.576080  0.217080  0.369240  0.202321
    C   C43   0.559380  0.211090  0.329850  -0.089095
    H   H5    0.527920  0.319090  0.374930  0.168811
    C   C44   0.611650  0.222560  0.445850  -0.339605
    C   C45   0.630760  0.162400  0.423920  0.186881
    C   C46   0.670150  0.100330  0.440620  -0.079149
    H   H6    0.625070  0.221940  0.472080  0.165716
    C   C47   0.695850  0.969950  0.361650  -0.340345
    C   C48   0.673920  0.032920  0.380760  0.202667
    C   C49   0.690620  0.038910  0.420150  -0.089461
    H   H7    0.722080  0.930910  0.375070  0.168882
    C   C50   0.638360  0.027440  0.304150  -0.339769
    C   C51   0.619240  0.087600  0.326080  0.187280
    C   C52   0.579860  0.149670  0.309380  -0.079549
    H   H8    0.624930  0.028060  0.277920  0.165859
    C   C53   0.572160  0.283520  0.427840  0.322717
    C   C54   0.615320  0.154040  0.384680  -0.002389
    C   C55   0.677840  0.966480  0.322160  0.322513
    C   C56   0.634680  0.095960  0.365320  -0.002732
    C   C57   0.448000  0.352810  0.603200  0.102505
    S   S1    0.328380  0.465750  0.597740  0.046082
    C   C58   0.302000  0.397190  0.646810  0.102242
    S   S2    0.421630  0.284250  0.652260  0.046300
    C   C59   0.413400  0.413400  0.586600  -0.030733
    C   C60   0.336600  0.336600  0.663400  -0.029763
    C   C61   0.343170  0.404510  0.623840  -0.106288
    C   C62   0.406830  0.345490  0.626160  -0.105717
    C   C63   0.574000  0.581190  0.374810  0.127447
    S   S3    0.639880  0.629490  0.434000  0.045721
    C   C64   0.676000  0.668800  0.375190  0.127668
    S   S4    0.610120  0.620510  0.316000  0.045743
    C   C65   0.586600  0.586600  0.413400  -0.039797
    C   C66   0.663400  0.663400  0.336600  -0.039981
    C   C67   0.642650  0.638010  0.390330  -0.110103
    C   C68   0.607350  0.611980  0.359670  -0.110379
    C   C69   0.219610  0.581190  0.374810  0.126139
    S   S5    0.164640  0.629490  0.434000  0.042612
    C   C70   0.030390  0.668800  0.375190  0.125940
    S   S6    0.085370  0.620510  0.316000  0.042716
    C   C71   0.240200  0.586600  0.413400  -0.047762
    C   C72   0.009800  0.663400  0.336600  -0.047711
    C   C73   0.109670  0.638010  0.390330  -0.099339
    C   C74   0.140340  0.611980  0.359670  -0.099955
    C   C75   0.805990  0.444400  0.599600  0.084227
    S   S7    0.798420  0.333570  0.602940  0.040768
    C   C76   0.944020  0.305600  0.650400  0.115232
    S   S8    0.951580  0.416430  0.647060  0.045739
    C   C77   0.759800  0.413400  0.586600  -0.027037
    C   C78   0.990200  0.336600  0.663400  -0.046972
    C   C79   0.873840  0.345490  0.626160  -0.096120
    C   C80   0.876160  0.404510  0.623840  -0.095958
    C   C81   0.138360  0.527440  0.804150  -0.342480
    C   C82   0.119240  0.587600  0.826080  0.187741
    C   C83   0.079860  0.649670  0.809380  -0.074498
    H   H9    0.124930  0.528060  0.777920  0.165278
    C   C84   0.195850  0.469950  0.861650  -0.350863
    C   C85   0.173920  0.532920  0.880760  0.216184
    C   C86   0.190620  0.538910  0.920150  -0.098245
    H   H10   0.222080  0.430910  0.875070  0.171251
    C   C87   0.111650  0.722560  0.945850  -0.342151
    C   C88   0.130760  0.662400  0.923920  0.187233
    C   C89   0.170150  0.600320  0.940620  -0.074027
    H   H11   0.125070  0.721940  0.972080  0.165049
    C   C90   0.054150  0.780050  0.888360  -0.350259
    C   C91   0.076080  0.717080  0.869240  0.215352
    C   C92   0.059390  0.711090  0.829850  -0.097626
    H   H12   0.027920  0.819090  0.874930  0.171040
    C   C93   0.177840  0.466480  0.822160  0.325824
    C   C94   0.134680  0.595960  0.865320  -0.007250
    C   C95   0.072160  0.783520  0.927840  0.325739
    C   C96   0.115320  0.654040  0.884680  -0.006612
    C   C97   0.530390  0.168800  0.875190  0.091848
    S   S9    0.585360  0.120510  0.816000  0.036646
    C   C98   0.719610  0.081200  0.874810  0.091676
    S   S10   0.664640  0.129490  0.934000  0.036755
    C   C99   0.509800  0.163400  0.836600  -0.029123
    C   C100  0.740200  0.086600  0.913400  -0.029042
    C   C101  0.640330  0.111980  0.859670  -0.089145
    C   C102  0.609670  0.138020  0.890330  -0.089296
    C   C103  0.121210  0.128400  0.827600  0.110304
    S   S11   0.189200  0.178810  0.884680  0.050428
    C   C104  0.128790  0.121600  0.922400  0.109892
    S   S12   0.060800  0.071190  0.865320  0.050274
    C   C105  0.163400  0.163400  0.836600  -0.032254
    C   C106  0.086600  0.086600  0.913400  -0.031840
    C   C107  0.142650  0.138020  0.890330  -0.101981
    C   C108  0.107350  0.111980  0.859670  -0.101845
    C   C109  0.775410  0.501300  0.167100  -0.360591
    C   C110  0.798740  0.439740  0.146580  0.208359
    C   C111  0.754000  0.405710  0.135240  -0.071383
    H   H13   0.729350  0.520510  0.173500  0.170329
    C   C112  0.890390  0.501300  0.167100  -0.362301
    C   C113  0.908100  0.439740  0.146580  0.229576
    C   C114  0.975530  0.405710  0.135240  -0.104872
    H   H14   0.923650  0.520510  0.173500  0.169265
    C   C115  0.974590  0.248700  0.082900  -0.347505
    C   C116  0.951260  0.310260  0.103420  0.189878
    C   C117  0.996000  0.344290  0.114770  -0.061159
    H   H15   0.020660  0.229490  0.076490  0.167657
    C   C118  0.859610  0.248700  0.082900  -0.356188
    C   C119  0.841900  0.310260  0.103420  0.222040
    C   C120  0.774470  0.344290  0.114770  -0.101026
    H   H16   0.826350  0.229490  0.076490  0.168693
    C   C121  0.822160  0.533520  0.177840  0.345177
    C   C122  0.865320  0.404040  0.134680  -0.029922
    C   C123  0.927840  0.216480  0.072160  0.336724
    C   C124  0.884680  0.345960  0.115320  -0.012380
    C   C125  0.444020  0.805600  0.150400  0.084496
    S   S13   0.451580  0.916430  0.147060  0.040606
    C   C126  0.305990  0.944400  0.099600  0.114937
    S   S14   0.298430  0.833570  0.102940  0.045768
    C   C127  0.490200  0.836600  0.163400  -0.027557
    C   C128  0.259800  0.913400  0.086600  -0.046780
    C   C129  0.376160  0.904510  0.123840  -0.095767
    C   C130  0.373840  0.845490  0.126160  -0.096086
    C   C131  0.802000  0.897190  0.146810  0.102710
    S   S15   0.921630  0.784250  0.152260  0.045973
    C   C132  0.948000  0.852810  0.103190  0.102126
    S   S16   0.828380  0.965750  0.097740  0.046394
    C   C133  0.836600  0.836600  0.163400  -0.030927
    C   C134  0.913400  0.913400  0.086600  -0.029634
    C   C135  0.906830  0.845490  0.126160  -0.105974
    C   C136  0.843170  0.904510  0.123840  -0.106041
    Br  Br1   0.151250  0.948850  0.649620  -0.042161
    Br  Br2   0.200480  0.801150  0.600380  -0.029880
    Br  Br3   0.549520  0.948850  0.649620  -0.030239
    Br  Br4   0.598750  0.801150  0.600380  -0.038646
    Br  Br5   0.550050  0.150720  0.250810  -0.030447
    Br  Br6   0.500820  0.298420  0.300050  -0.037405
    Br  Br7   0.749190  0.951580  0.449950  -0.037305
    Br  Br8   0.699950  0.099280  0.499180  -0.030478
    Br  Br9   0.000820  0.798420  0.800050  -0.035368
    Br  Br10  0.050050  0.650720  0.750820  -0.032738
    Br  Br11  0.199950  0.599280  0.999190  -0.032877
    Br  Br12  0.249190  0.451580  0.949950  -0.035206
    Br  Br13  0.700480  0.301150  0.100380  -0.029908
    Br  Br14  0.651250  0.448850  0.149620  -0.038488
    Br  Br15  0.098750  0.301150  0.100380  -0.042571
    Br  Br16  0.049520  0.448850  0.149620  -0.029918
    C   C137  0.524910  0.296870  0.597730  -0.141053
    H   H17   0.562050  0.313480  0.606650  0.061843
    H   H18   0.538680  0.258800  0.611750  0.092571
    H   H19   0.521570  0.283730  0.571420  0.053595
    C   C138  0.225090  0.453130  0.652270  -0.139218
    H   H20   0.228490  0.466420  0.678570  0.054419
    H   H21   0.211220  0.491120  0.638160  0.091855
    H   H22   0.187990  0.436460  0.643460  0.060871
    C   C139  0.527790  0.545030  0.349570  -0.180790
    H   H23   0.477890  0.566710  0.353420  0.077116
    H   H24   0.526050  0.547020  0.323530  0.096932
    H   H25   0.550860  0.498980  0.356160  0.064534
    C   C140  0.722210  0.704970  0.400430  -0.182025
    H   H26   0.699020  0.751060  0.393920  0.064988
    H   H27   0.724140  0.702800  0.426480  0.097213
    H   H28   0.772050  0.683420  0.396500  0.077348
    C   C141  0.276750  0.545030  0.349570  -0.231087
    H   H29   0.306160  0.498930  0.356080  0.075844
    H   H30   0.250470  0.547200  0.323520  0.117043
    H   H31   0.308970  0.566580  0.353500  0.087546
    C   C142  0.973250  0.704970  0.400430  -0.230983
    H   H32   0.941180  0.683290  0.396580  0.087613
    H   H33   0.999540  0.702980  0.426470  0.116965
    H   H34   0.943690  0.751010  0.393840  0.075760
    C   C143  0.784570  0.516290  0.589110  -0.118881
    H   H35   0.740310  0.547530  0.597450  0.050788
    H   H36   0.824850  0.528110  0.601170  0.086510
    H   H37   0.775310  0.517690  0.562230  0.056663
    C   C144  0.965430  0.233710  0.660890  -0.185815
    H   H38   0.974470  0.232360  0.687760  0.078065
    H   H39   0.925250  0.221810  0.648740  0.100684
    H   H40   0.009820  0.202490  0.652650  0.064934
    C   C145  0.473250  0.204970  0.900430  -0.170584
    H   H41   0.441180  0.183290  0.896580  0.067086
    H   H42   0.499540  0.202980  0.926470  0.104782
    H   H43   0.443690  0.251010  0.893850  0.063566
    C   C146  0.776750  0.045030  0.849570  -0.170082
    H   H44   0.806160  0.998930  0.856080  0.063507
    H   H45   0.750470  0.047200  0.823520  0.104731
    H   H46   0.808970  0.066580  0.853500  0.066786
    C   C147  0.090950  0.108190  0.786410  -0.207010
    H   H47   0.132100  0.080050  0.774960  0.073983
    H   H48   0.062850  0.084190  0.786530  0.103873
    H   H49   0.059180  0.147820  0.772270  0.085575
    C   C148  0.159050  0.141810  0.963590  -0.206613
    H   H50   0.191000  0.102170  0.977700  0.085658
    H   H51   0.186960  0.165980  0.963470  0.103665
    H   H52   0.117910  0.169780  0.975080  0.073925
    C   C149  0.465430  0.733710  0.160890  -0.118962
    H   H53   0.474470  0.732360  0.187760  0.056871
    H   H54   0.425250  0.721810  0.148740  0.086474
    H   H55   0.509820  0.702490  0.152650  0.050700
    C   C150  0.284570  0.016290  0.089110  -0.185823
    H   H56   0.240310  0.047530  0.097450  0.064967
    H   H57   0.324850  0.028110  0.101170  0.100783
    H   H58   0.275310  0.017690  0.062230  0.077870
    C   C151  0.725090  0.953130  0.152270  -0.141230
    H   H59   0.728490  0.966410  0.178570  0.053758
    H   H60   0.711220  0.991120  0.138160  0.092694
    H   H61   0.687990  0.936460  0.143460  0.061743
    C   C152  0.024910  0.796870  0.097730  -0.139194
    H   H62   0.062050  0.813480  0.106650  0.060990
    H   H63   0.038680  0.758800  0.111750  0.091831
    H   H64   0.021570  0.783720  0.071410  0.054295
