# Generated by REPEAT Assigner based on pymatgen
data_DB1-MIL47V-irmof20_B-irmof7_B_No5
_audit_creation_date              2022-05-24
_audit_creation_method            REPEAT_Assigner
_cell_length_a                    12.882600
_cell_length_b                    28.197500
_cell_length_c                    6.818000
_cell_angle_alpha                 97.690700
_cell_angle_beta                  106.069000
_cell_angle_gamma                 61.992200
_cell_volume                      2101.171374
_symmetry_space_group_name_H-M    P1
_symmetry_Int_Tables_number       1
loop_
    _symmetry_equiv_pos_site_id
    _symmetry_equiv_pos_as_xyz
    1  x,y,z
loop_
    _atom_site_type_symbol
    _atom_site_label
    _atom_site_fract_x
    _atom_site_fract_y
    _atom_site_fract_z
    _atom_type_partial_charge
    O   O1   0.651020  0.497510  0.151120  -0.365135
    O   O2   0.420570  0.573850  0.072840  -0.405128
    V   V1   0.496320  0.496340  0.011880  0.928081
    O   O3   0.425530  0.577950  0.407430  -0.404147
    O   O4   0.350230  0.503660  0.497210  -0.465752
    C   C1   0.399970  0.598970  0.239070  0.604773
    O   O5   0.575670  0.423260  0.900340  -0.437463
    C   C2   0.601180  0.402300  0.735450  0.611204
    O   O6   0.346540  0.499140  0.822500  -0.335844
    C   C3   0.302110  0.501330  0.633840  0.601862
    O   O7   0.654710  0.502030  0.485270  -0.442642
    O   O8   0.580630  0.427370  0.575480  -0.379257
    C   C4   0.699090  0.499880  0.340670  0.605291
    V   V2   0.504890  0.504880  0.521090  1.018430
    O   O9   0.523690  0.523630  0.766440  -0.343927
    O   O10  0.477520  0.477580  0.216810  -0.330278
    O   O11  0.071500  0.922810  0.056720  -0.454396
    O   O12  0.151460  0.997080  0.128120  -0.377179
    V   V3   0.993070  0.999610  0.988720  1.137085
    O   O13  0.160520  0.996240  0.462520  -0.411949
    O   O14  0.933350  0.074720  0.545710  -0.413723
    C   C5   0.203090  0.995960  0.317860  0.553726
    O   O15  0.836870  0.008850  0.799060  -0.380913
    C   C6   0.798220  0.005310  0.610700  0.592482
    O   O16  0.916300  0.082710  0.870010  -0.433927
    C   C7   0.901900  0.101720  0.703310  0.576572
    O   O17  0.081000  0.922370  0.391520  -0.372686
    O   O18  0.853480  0.000440  0.474360  -0.425007
    C   C8   0.099300  0.899550  0.225180  0.603395
    V   V4   0.013190  0.996590  0.498460  1.081155
    O   O19  0.067360  0.979960  0.745430  -0.423555
    O   O20  0.933740  0.021410  0.191800  -0.426784
    C   C9   0.888750  0.502460  0.589390  0.123876
    S   S1   0.884760  0.497260  0.205070  0.108052
    C   C10  0.112450  0.498750  0.385130  0.143327
    S   S2   0.116440  0.503950  0.769450  0.078828
    C   C11  0.819300  0.500170  0.399110  -0.253519
    C   C12  0.181900  0.501040  0.575400  -0.255083
    C   C13  0.000860  0.499240  0.386540  -0.045615
    C   C14  0.000340  0.501980  0.587980  0.013565
    C   C15  0.308610  0.694570  0.392300  0.120266
    S   S3   0.302770  0.689970  0.007350  0.114621
    C   C16  0.190660  0.803940  0.071960  0.154158
    S   S4   0.196490  0.808540  0.456900  0.120354
    C   C17  0.340030  0.658890  0.236300  -0.245792
    C   C18  0.159240  0.839630  0.227950  -0.272253
    C   C19  0.247440  0.748700  0.130570  -0.041819
    C   C20  0.251830  0.749810  0.333680  -0.015785
    C   C21  0.692560  0.306690  0.878410  0.140980
    S   S5   0.698390  0.311300  0.504650  0.094379
    C   C22  0.810520  0.197330  0.560360  0.109484
    S   S6   0.804690  0.192720  0.934110  0.138915
    C   C23  0.661130  0.342380  0.729040  -0.253594
    C   C24  0.841950  0.161640  0.709720  -0.226804
    C   C25  0.753730  0.252570  0.620740  0.009505
    C   C26  0.749350  0.251450  0.818020  -0.065908
    C   C27  0.398600  0.992700  0.566830  0.124749
    S   S7   0.388430  0.993660  0.182230  0.115955
    C   C28  0.621250  0.990030  0.362510  0.160110
    S   S8   0.631420  0.989060  0.747120  0.132685
    C   C29  0.325430  0.994130  0.376390  -0.227938
    C   C30  0.694420  0.988600  0.552950  -0.284476
    C   C31  0.508580  0.991600  0.363880  -0.036869
    C   C32  0.511270  0.991130  0.565470  -0.028042
    Cl  Cl1  0.845410  0.505720  0.815960  -0.075352
    Cl  Cl2  0.155790  0.495490  0.158560  -0.070390
    Cl  Cl3  0.335280  0.674660  0.642660  -0.075914
    Cl  Cl4  0.163990  0.823850  0.821600  -0.090805
    Cl  Cl5  0.665890  0.326600  0.122910  -0.071563
    Cl  Cl6  0.837190  0.177420  0.315850  -0.082375
    Cl  Cl7  0.358460  0.992770  0.793560  -0.077423
    Cl  Cl8  0.661390  0.989960  0.135790  -0.090854
