# Generated by REPEAT Assigner based on pymatgen
data_DB1-Zn2O8N2-irmof20_A-irmof6_A_No250
_audit_creation_date              2022-05-24
_audit_creation_method            REPEAT_Assigner
_cell_length_a                    23.706800
_cell_length_b                    12.701400
_cell_length_c                    11.716400
_cell_angle_alpha                 90.038300
_cell_angle_beta                  89.878800
_cell_angle_gamma                 89.818300
_cell_volume                      3527.893489
_symmetry_space_group_name_H-M    P1
_symmetry_Int_Tables_number       1
loop_
    _symmetry_equiv_pos_site_id
    _symmetry_equiv_pos_as_xyz
    1  x,y,z
loop_
    _atom_site_type_symbol
    _atom_site_label
    _atom_site_fract_x
    _atom_site_fract_y
    _atom_site_fract_z
    _atom_type_partial_charge
    O   O1   0.500380  0.348160  0.615900  -0.503071
    O   O2   0.500100  0.348180  0.383910  -0.539608
    C   C1   0.500160  0.294670  0.499920  0.468439
    Zn  Zn1  0.500000  0.500020  0.641480  0.952544
    O   O3   0.581330  0.499880  0.383790  -0.393025
    O   O4   0.581370  0.500020  0.615790  -0.460419
    C   C2   0.610020  0.499840  0.499820  0.291772
    O   O5   0.499730  0.651870  0.384100  -0.478447
    O   O6   0.499800  0.651850  0.616090  -0.512616
    C   C3   0.499800  0.705360  0.500080  0.419788
    Zn  Zn2  0.500000  0.500010  0.358520  0.905132
    O   O7   0.418670  0.499940  0.616210  -0.513536
    O   O8   0.418630  0.500190  0.384220  -0.463167
    C   C4   0.389980  0.499830  0.500180  0.426745
    O   O9   0.964030  0.346260  0.384070  -0.538631
    O   O10  0.964320  0.346570  0.616060  -0.519481
    C   C5   0.964320  0.292910  0.500050  0.474187
    Zn  Zn3  0.964230  0.498080  0.358480  0.920277
    O   O11  0.882890  0.498880  0.616180  -0.529722
    O   O12  0.882860  0.498730  0.384180  -0.339756
    C   C6   0.854200  0.498920  0.500140  0.276557
    O   O13  0.964310  0.650250  0.615860  -0.481121
    O   O14  0.964240  0.649940  0.383870  -0.534576
    C   C7   0.964180  0.703600  0.499880  0.445574
    Zn  Zn4  0.964220  0.498430  0.641450  0.964124
    O   O15  0.045560  0.497410  0.383750  -0.504186
    O   O16  0.045590  0.497950  0.615750  -0.509007
    C   C8   0.074250  0.497230  0.499790  0.447860
    C   C9   0.468250  0.559030  0.882120  0.636083
    S   S1   0.545830  0.414840  0.876390  0.253247
    C   C10  0.531760  0.440990  0.117880  0.715717
    S   S2   0.454180  0.585190  0.123610  0.212306
    N   N1   0.500000  0.500020  0.807930  -0.310350
    N   N2   0.500010  0.500010  0.192070  -0.331318
    C   C11  0.520470  0.461980  0.999880  -0.332637
    C   C12  0.479540  0.538040  0.000120  -0.203452
    C   C13  0.499940  0.891180  0.590560  0.515827
    S   S3   0.499870  0.886120  0.369380  0.018003
    C   C14  0.500020  0.108850  0.409440  0.516040
    S   S4   0.500090  0.113910  0.630630  0.021252
    C   C15  0.499870  0.822840  0.500050  -0.205336
    C   C16  0.500090  0.177190  0.499960  -0.225429
    C   C17  0.499960  0.999970  0.441670  -0.139699
    C   C18  0.500000  0.000070  0.558340  -0.134806
    C   C19  0.793700  0.499150  0.500060  0.144056
    C   C20  0.670520  0.499610  0.499900  0.066275
    C   C21  0.762730  0.499320  0.590170  -0.051172
    C   C22  0.701500  0.499440  0.409800  0.091641
    C   C23  0.701250  0.499550  0.590090  0.004877
    C   C24  0.762980  0.499200  0.409880  -0.022576
    C   C25  0.761250  0.499410  0.718370  0.097402
    C   C26  0.702380  0.499630  0.718290  -0.060282
    H   H1   0.782030  0.430270  0.756100  -0.036726
    H   H2   0.782230  0.568380  0.755410  0.014808
    H   H3   0.681490  0.568810  0.755970  0.033808
    H   H4   0.681300  0.430700  0.755270  0.024462
    C   C27  0.290590  0.499110  0.409520  0.561896
    S   S5   0.292900  0.498890  0.630710  0.063067
    C   C28  0.173640  0.497950  0.590440  0.581770
    S   S6   0.171330  0.498170  0.369250  0.052406
    C   C29  0.327040  0.499310  0.500100  -0.240489
    C   C30  0.137190  0.497750  0.499870  -0.253641
    C   C31  0.232040  0.498470  0.558320  -0.186356
    C   C32  0.232190  0.498590  0.441650  -0.151063
    C   C33  0.995910  0.556550  0.117850  0.574952
    S   S7   0.918500  0.412950  0.123580  0.261128
    C   C34  0.932540  0.438690  0.882080  0.558380
    S   S8   0.009940  0.582290  0.876350  0.207452
    N   N3   0.964220  0.497870  0.192040  -0.267292
    N   N4   0.964220  0.497370  0.807900  -0.272777
    C   C35  0.943800  0.459740  0.000080  -0.230166
    C   C36  0.984640  0.535490  0.999850  -0.203208
    C   C37  0.963810  0.889310  0.409390  0.521094
    S   S9   0.963890  0.884530  0.630570  0.012505
    C   C38  0.963470  0.107210  0.590500  0.485573
    S   S10  0.963390  0.111980  0.369320  0.025269
    C   C39  0.963960  0.821080  0.499900  -0.221802
    C   C40  0.963310  0.175430  0.499990  -0.217473
    C   C41  0.963660  0.998280  0.558280  -0.106677
    C   C42  0.963620  0.998230  0.441610  -0.144820
    H   H5   0.383470  0.643830  0.886670  0.365314
    H   H6   0.435120  0.693380  0.772110  0.399652
    N   N5   0.425140  0.639160  0.843560  -0.870822
    H   H7   0.577550  0.283100  0.113450  0.327026
    H   H8   0.603880  0.379740  0.227770  0.306638
    N   N6   0.574870  0.360870  0.156440  -0.747581
    H   H9   0.527670  0.894910  0.776530  0.371448
    H   H10  0.472250  0.789830  0.740760  0.269081
    N   N7   0.499950  0.855490  0.713470  -0.861153
    H   H11  0.527630  0.104670  0.223170  0.362366
    H   H12  0.472360  0.210640  0.259550  0.324836
    N   N8   0.500000  0.144540  0.286530  -0.865382
    H   H13  0.289010  0.447630  0.223290  0.382291
    H   H14  0.345060  0.551370  0.259680  0.351906
    N   N9   0.309930  0.499400  0.286650  -0.956744
    H   H15  0.175640  0.446110  0.776470  0.382190
    H   H16  0.118750  0.549000  0.740490  0.357651
    N   N10  0.154300  0.497660  0.713320  -0.959774
    H   H17  0.080590  0.640690  0.113290  0.359007
    H   H18  0.028870  0.690790  0.227840  0.384365
    N   N11  0.038920  0.636390  0.156400  -0.832089
    H   H19  0.886940  0.281160  0.886520  0.358295
    H   H20  0.860490  0.377840  0.772200  0.378217
    N   N12  0.889520  0.358850  0.843530  -0.807044
    H   H21  0.936070  0.893010  0.223420  0.368661
    H   H22  0.991630  0.787560  0.259200  0.278257
    N   N13  0.963840  0.853460  0.286480  -0.861588
    H   H23  0.935860  0.103470  0.776780  0.362353
    H   H24  0.991000  0.208980  0.740390  0.341329
    N   N14  0.963440  0.143050  0.713410  -0.876838
    Cl  Cl1  0.670480  0.499490  0.273450  -0.139459
    Cl  Cl2  0.794360  0.498930  0.273610  -0.146790
