# Generated by REPEAT Assigner based on pymatgen
data_DB1-Cu2N8-ADC_B-irmof20_B_No388
_audit_creation_date              2022-05-24
_audit_creation_method            REPEAT_Assigner
_cell_length_a                    29.545800
_cell_length_b                    15.621200
_cell_length_c                    7.052800
_cell_angle_alpha                 90.000000
_cell_angle_beta                  90.000000
_cell_angle_gamma                 58.081600
_cell_volume                      2762.982148
_symmetry_space_group_name_H-M    P1
_symmetry_Int_Tables_number       1
loop_
    _symmetry_equiv_pos_site_id
    _symmetry_equiv_pos_as_xyz
    1  x,y,z
loop_
    _atom_site_type_symbol
    _atom_site_label
    _atom_site_fract_x
    _atom_site_fract_y
    _atom_site_fract_z
    _atom_type_partial_charge
    Cu  Cu1  0.500000  0.500000  0.000000  0.461457
    Cu  Cu2  0.500000  0.500000  0.500000  0.416575
    N   N1   0.556220  0.386700  0.156200  -0.050352
    N   N2   0.598430  0.303460  0.092900  -0.339501
    N   N3   0.443780  0.499130  0.343800  0.035848
    N   N4   0.401570  0.500320  0.407100  -0.389687
    N   N5   0.443780  0.613300  0.656200  0.061273
    N   N6   0.401570  0.696540  0.592900  -0.397683
    N   N7   0.556220  0.500860  0.843800  0.047809
    N   N8   0.598430  0.499680  0.907100  -0.396430
    N   N9   0.443780  0.613300  0.843800  -0.055177
    N   N10  0.401570  0.696540  0.907100  -0.340748
    N   N11  0.556220  0.500860  0.656200  -0.036510
    N   N12  0.598430  0.499680  0.592900  -0.339971
    N   N13  0.556220  0.386700  0.343800  0.056527
    N   N14  0.598430  0.303460  0.407100  -0.398750
    N   N15  0.443780  0.499130  0.156200  -0.024875
    N   N16  0.401570  0.500320  0.092900  -0.346403
    C   C1   0.623410  0.253460  0.250000  0.785526
    C   C2   0.376590  0.500270  0.250000  0.786302
    C   C3   0.376590  0.746540  0.750000  0.785671
    C   C4   0.623410  0.499730  0.750000  0.786243
    Cu  Cu3  0.000000  0.500000  0.000000  0.309247
    Cu  Cu4  0.000000  0.500000  0.500000  0.362021
    N   N17  0.943780  0.613300  0.156200  0.138802
    N   N18  0.901570  0.696540  0.092900  -0.544157
    N   N19  0.056220  0.500860  0.343800  0.020761
    N   N20  0.098430  0.499680  0.407100  -0.453947
    N   N21  0.056220  0.386700  0.656200  -0.008863
    N   N22  0.098430  0.303460  0.592900  -0.444962
    N   N23  0.943780  0.499130  0.843800  0.012011
    N   N24  0.901570  0.500320  0.907100  -0.449568
    N   N25  0.056220  0.386700  0.843800  0.149258
    N   N26  0.098430  0.303460  0.907100  -0.545873
    N   N27  0.943780  0.499130  0.656200  0.124775
    N   N28  0.901570  0.500320  0.592900  -0.544753
    N   N29  0.943780  0.613300  0.343800  0.001995
    N   N30  0.901570  0.696540  0.407100  -0.446886
    N   N31  0.056220  0.500860  0.156200  0.115799
    N   N32  0.098430  0.499680  0.092900  -0.540236
    C   C5   0.876590  0.746540  0.250000  0.842578
    C   C6   0.123410  0.499730  0.250000  0.852499
    C   C7   0.123410  0.253460  0.750000  0.843606
    C   C8   0.876590  0.500270  0.750000  0.851695
    C   C9   0.703210  0.499900  0.900390  0.140068
    S   S1   0.701110  0.499890  0.532950  0.188684
    C   C10  0.796790  0.500100  0.599610  -0.147621
    H   H1   0.806270  0.500120  0.473790  0.181258
    S   S2   0.798880  0.500100  0.967050  0.063310
    C   C11  0.673880  0.499840  0.750000  -0.472934
    C   C12  0.826120  0.500160  0.750000  -0.335277
    C   C13  0.750000  0.500000  0.653090  0.031849
    C   C14  0.750000  0.500000  0.846910  0.046091
    C   C15  0.296790  0.500100  0.400390  0.144715
    S   S3   0.298880  0.500100  0.032950  0.184335
    C   C16  0.203210  0.499900  0.099610  -0.142657
    H   H2   0.193730  0.499880  0.973790  0.179502
    S   S4   0.201110  0.499890  0.467050  0.063760
    C   C17  0.326120  0.500160  0.250000  -0.473305
    C   C18  0.173880  0.499840  0.250000  -0.337856
    C   C19  0.250000  0.500000  0.153090  0.034032
    C   C20  0.250000  0.500000  0.346910  0.041793
    C   C21  0.703210  0.093680  0.400390  0.136591
    S   S5   0.701120  0.097870  0.032950  0.187155
    C   C22  0.796790  0.906320  0.099610  -0.138892
    H   H3   0.806270  0.887340  0.973790  0.177761
    S   S6   0.798880  0.902130  0.467050  0.065420
    C   C23  0.673880  0.152400  0.250000  -0.465406
    C   C24  0.826120  0.847600  0.250000  -0.333511
    C   C25  0.750000  0.000000  0.153090  0.026874
    C   C26  0.750000  0.000000  0.346910  0.044139
    C   C27  0.296790  0.906320  0.599610  0.141472
    S   S7   0.298880  0.902130  0.967050  0.181416
    C   C28  0.203210  0.093680  0.900390  -0.133625
    H   H4   0.193730  0.112660  0.026210  0.176867
    S   S8   0.201110  0.097870  0.532950  0.064249
    C   C29  0.326120  0.847600  0.750000  -0.465458
    C   C30  0.173880  0.152400  0.750000  -0.336117
    C   C31  0.250000  0.000000  0.846910  0.028814
    C   C32  0.250000  0.000000  0.653090  0.040762
    Br  Br1  0.682050  0.499860  0.181240  -0.136999
    Br  Br2  0.317950  0.500140  0.681240  -0.135834
    Br  Br3  0.682050  0.136040  0.681240  -0.135048
    Br  Br4  0.317950  0.863960  0.318760  -0.133327
