data_DB1-Cu2O8N2-AZO_A-fum_A_No145_repeat
_audit_creation_date              2024-02-20
_audit_creation_method            'Materials Studio'
_symmetry_space_group_name_H-M    'P1'
_symmetry_Int_Tables_number       1
_symmetry_cell_setting            triclinic
loop_
_symmetry_equiv_pos_as_xyz
  x,y,z
_cell_length_a                    15.6063
_cell_length_b                    17.2765
_cell_length_c                    8.7576
_cell_angle_alpha                 89.5126
_cell_angle_beta                  94.5790
_cell_angle_gamma                 95.7732
loop_
_atom_site_label
_atom_site_type_symbol
_atom_site_fract_x
_atom_site_fract_y
_atom_site_fract_z
_atom_site_U_iso_or_equiv
_atom_site_adp_type
_atom_site_occupancy
Cu1    Cu    0.41854   0.49673   0.50649   0.00000  Uiso   1.00
Cu2    Cu    0.58146   0.50326   0.49353   0.00000  Uiso   1.00
O1     O     0.43794   0.49755   0.70503   0.00000  Uiso   1.00
O2     O     0.41011   0.49658   0.30667   0.00000  Uiso   1.00
O3     O     0.43032   0.59822   0.50518   0.00000  Uiso   1.00
O4     O     0.41773   0.39590   0.50653   0.00000  Uiso   1.00
O5     O     0.56967   0.40177   0.49479   0.00000  Uiso   1.00
O6     O     0.58227   0.60409   0.49355   0.00000  Uiso   1.00
O7     O     0.56205   0.50255   0.29482   0.00000  Uiso   1.00
O8     O     0.58988   0.50338   0.69335   0.00000  Uiso   1.00
C1     C     0.52005   0.50072   0.78702   0.00000  Uiso   1.00
C2     C     0.47995   0.49927   0.21300   0.00000  Uiso   1.00
C3     C     0.50908   0.64576   0.49917   0.00000  Uiso   1.00
C4     C     0.49092   0.35423   0.50086   0.00000  Uiso   1.00
N1     N     0.29748   0.49187   0.51613   0.00000  Uiso   1.00
C5     C     0.24757   0.53958   0.42145   0.00000  Uiso   1.00
C6     C     0.15786   0.53585   0.42885   0.00000  Uiso   1.00
C7     C     0.11622   0.48442   0.53092   0.00000  Uiso   1.00
C8     C     0.16546   0.43692   0.62521   0.00000  Uiso   1.00
C9     C     0.25515   0.44045   0.61819   0.00000  Uiso   1.00
N2     N     0.02442   0.47927   0.54114   0.00000  Uiso   1.00
N3     N     0.97558   0.52072   0.45888   0.00000  Uiso   1.00
C10    C     0.83454   0.56307   0.37481   0.00000  Uiso   1.00
C11    C     0.88378   0.51557   0.46910   0.00000  Uiso   1.00
C12    C     0.84214   0.46414   0.57117   0.00000  Uiso   1.00
C13    C     0.75243   0.46041   0.57857   0.00000  Uiso   1.00
N4     N     0.70252   0.50812   0.48389   0.00000  Uiso   1.00
C14    C     0.74485   0.55954   0.38184   0.00000  Uiso   1.00
H1     H     0.27841   0.57961   0.34199   0.00000  Uiso   1.00
H2     H     0.12067   0.57289   0.35533   0.00000  Uiso   1.00
H3     H     0.86603   0.60286   0.29584   0.00000  Uiso   1.00
H4     H     0.87933   0.42710   0.64469   0.00000  Uiso   1.00
C15    C     0.48550   0.26748   0.50124   0.00000  Uiso   1.00
C16    C     0.56045   0.22867   0.49548   0.00000  Uiso   1.00
C17    C     0.55515   0.14720   0.49585   0.00000  Uiso   1.00
C18    C     0.47493   0.10287   0.50198   0.00000  Uiso   1.00
C19    C     0.40030   0.14110   0.50771   0.00000  Uiso   1.00
C20    C     0.40530   0.22253   0.50736   0.00000  Uiso   1.00
N5     N     0.46743   0.01933   0.50252   0.00000  Uiso   1.00
N6     N     0.53257   0.98066   0.49751   0.00000  Uiso   1.00
C21    C     0.59970   0.85889   0.49232   0.00000  Uiso   1.00
C22    C     0.52507   0.89712   0.49805   0.00000  Uiso   1.00
C23    C     0.44485   0.85279   0.50417   0.00000  Uiso   1.00
C24    C     0.43956   0.77132   0.50454   0.00000  Uiso   1.00
C25    C     0.51450   0.73251   0.49879   0.00000  Uiso   1.00
C26    C     0.59470   0.77746   0.49267   0.00000  Uiso   1.00
H5     H     0.62291   0.26176   0.49071   0.00000  Uiso   1.00
H6     H     0.61334   0.11848   0.49139   0.00000  Uiso   1.00
H7     H     0.66178   0.89253   0.48758   0.00000  Uiso   1.00
H8     H     0.38666   0.88151   0.50864   0.00000  Uiso   1.00
C27    C     0.46698   0.49874   0.04459   0.00000  Uiso   1.00
C28    C     0.53302   0.50125   0.95543   0.00000  Uiso   1.00
O9     O     0.29918   0.39573   0.70695   0.00000  Uiso   1.00
Li1    Li    0.27073   0.32776   0.84187   0.00000  Uiso   1.00
O10    O     0.12768   0.38918   0.71995   0.00000  Uiso   1.00
Li2    Li    0.02228   0.36890   0.76021   0.00000  Uiso   1.00
O11    O     0.70082   0.60426   0.29307   0.00000  Uiso   1.00
Li3    Li    0.72927   0.67223   0.15816   0.00000  Uiso   1.00
O12    O     0.71547   0.41243   0.67382   0.00000  Uiso   1.00
Li4    Li    0.75407   0.34715   0.80337   0.00000  Uiso   1.00
O13    O     0.33505   0.25642   0.51275   0.00000  Uiso   1.00
Li5    Li    0.22886   0.22184   0.52087   0.00000  Uiso   1.00
O14    O     0.32583   0.10075   0.51339   0.00000  Uiso   1.00
Li6    Li    0.29473   0.00294   0.51573   0.00000  Uiso   1.00
O15    O     0.66495   0.74356   0.48727   0.00000  Uiso   1.00
Li7    Li    0.77114   0.77815   0.47916   0.00000  Uiso   1.00
O16    O     0.36469   0.73166   0.51026   0.00000  Uiso   1.00
Li8    Li    0.26232   0.75796   0.51811   0.00000  Uiso   1.00
C29    C     0.37284   0.49510   0.97089   0.00000  Uiso   1.00
H9     H     0.34646   0.53960   0.00230   0.00000  Uiso   1.00
H10    H     0.37331   0.49498   0.86134   0.00000  Uiso   1.00
H11    H     0.34053   0.44848   0.00343   0.00000  Uiso   1.00
C30    C     0.62716   0.50489   0.02914   0.00000  Uiso   1.00
H12    H     0.65940   0.55163   0.99695   0.00000  Uiso   1.00
H13    H     0.62668   0.50478   0.13869   0.00000  Uiso   1.00
H14    H     0.65363   0.46051   0.99736   0.00000  Uiso   1.00
