# Generated by REPEAT Assigner based on pymatgen
data_DB1-Uio66Zr-irmof6_A-irmof7_A_No16
_audit_creation_date              2022-05-24
_audit_creation_method            REPEAT_Assigner
_cell_length_a                    14.781800
_cell_length_b                    14.781800
_cell_length_c                    14.781800
_cell_angle_alpha                 90.000000
_cell_angle_beta                  60.000000
_cell_angle_gamma                 60.000000
_cell_volume                      2283.846799
_symmetry_space_group_name_H-M    P1
_symmetry_Int_Tables_number       1
loop_
    _symmetry_equiv_pos_site_id
    _symmetry_equiv_pos_as_xyz
    1  x,y,z
loop_
    _atom_site_type_symbol
    _atom_site_label
    _atom_site_fract_x
    _atom_site_fract_y
    _atom_site_fract_z
    _atom_type_partial_charge
    Zr  Zr1  0.500000  0.381280  0.381280  2.415154
    Zr  Zr2  0.500000  0.618720  0.618720  2.458998
    Zr  Zr3  0.737440  0.381280  0.381280  2.473327
    Zr  Zr4  0.262560  0.618720  0.618720  2.404126
    Zr  Zr5  0.500000  0.381280  0.618720  2.523012
    Zr  Zr6  0.500000  0.618720  0.381280  2.521119
    O   O1   0.500000  0.236830  0.425570  -0.676545
    O   O2   0.500000  0.574440  0.763180  -0.593975
    O   O3   0.500000  0.763180  0.574440  -0.667819
    O   O4   0.500000  0.425570  0.236830  -0.524067
    O   O5   0.837610  0.236830  0.236830  -0.545426
    O   O6   0.162390  0.574440  0.574440  -0.389655
    O   O7   0.162390  0.763180  0.763180  -0.707401
    O   O8   0.837610  0.425570  0.425570  -0.529023
    O   O9   0.688740  0.236830  0.574440  -0.630532
    O   O10  0.688740  0.574440  0.236830  -0.738276
    O   O11  0.311260  0.763180  0.425570  -0.431307
    O   O12  0.311260  0.425570  0.763180  -0.481606
    O   O13  0.837610  0.425570  0.236830  -0.611160
    O   O14  0.162390  0.763180  0.574440  -0.544317
    O   O15  0.162390  0.574440  0.763180  -0.691538
    O   O16  0.837610  0.236830  0.425570  -0.576611
    O   O17  0.688740  0.236830  0.236830  -0.515677
    O   O18  0.688740  0.574440  0.574440  -0.485597
    O   O19  0.311260  0.763180  0.763180  -0.757123
    O   O20  0.311260  0.425570  0.425570  -0.457733
    O   O21  0.500000  0.574440  0.236830  -0.557988
    O   O22  0.500000  0.236830  0.574440  -0.755354
    O   O23  0.500000  0.425570  0.763180  -0.460156
    O   O24  0.500000  0.763180  0.425570  -0.543563
    O   O25  0.388900  0.555550  0.444450  -0.991483
    O   O26  0.611110  0.555550  0.444450  -1.099257
    O   O27  0.388900  0.555550  0.666660  -0.996896
    O   O28  0.611110  0.333350  0.444450  -1.046218
    O   O29  0.611110  0.444450  0.555550  -1.088477
    O   O30  0.388900  0.444450  0.555550  -1.162476
    O   O31  0.388900  0.666660  0.555550  -1.106543
    O   O32  0.611110  0.444450  0.333350  -1.113167
    C   C1   0.500000  0.195800  0.500000  0.871818
    C   C2   0.500000  0.500000  0.804200  0.605616
    C   C3   0.500000  0.804200  0.500000  0.777765
    C   C4   0.500000  0.500000  0.195800  0.576820
    C   C5   0.804200  0.195800  0.195800  0.610100
    C   C6   0.195800  0.500000  0.500000  0.411958
    C   C7   0.195800  0.804200  0.804200  0.918434
    C   C8   0.804200  0.500000  0.500000  0.589680
    C   C9   0.804200  0.195800  0.500000  0.694958
    C   C10  0.804200  0.500000  0.195800  0.840114
    C   C11  0.195800  0.804200  0.500000  0.508751
    C   C12  0.195800  0.500000  0.804200  0.683636
    H   H1   0.664880  0.252690  0.417560  0.290546
    H   H2   0.335120  0.582440  0.747320  0.273352
    H   H3   0.664880  0.582440  0.417560  0.243801
    H   H4   0.335120  0.582440  0.417560  0.311982
    C   C13  0.500000  0.098770  0.500000  -0.118340
    C   C14  0.500000  0.901230  0.500000  -0.147496
    C   C15  0.500000  0.049300  0.571450  -0.099247
    C   C16  0.500000  0.950700  0.428550  0.082520
    C   C17  0.500000  0.950700  0.571450  0.049620
    C   C18  0.500000  0.049300  0.428550  0.066989
    C   C19  0.500000  0.047200  0.673070  0.308779
    C   C20  0.500000  0.952800  0.673070  -0.089702
    H   H5   0.416060  0.122520  0.744930  -0.047825
    H   H6   0.583880  0.039070  0.660470  -0.026020
    H   H7   0.583940  0.877480  0.660990  0.020623
    H   H8   0.416120  0.960940  0.744340  0.084681
    C   C21  0.500000  0.500000  0.098770  0.109788
    C   C22  0.500000  0.500000  0.901230  0.036315
    C   C23  0.500000  0.571450  0.049300  -0.064902
    C   C24  0.500000  0.428550  0.950700  -0.021067
    C   C25  0.500000  0.571450  0.950700  0.038754
    C   C26  0.500000  0.428550  0.049300  -0.073336
    C   C27  0.500000  0.673070  0.047200  0.056072
    C   C28  0.500000  0.673070  0.952800  -0.177836
    H   H9   0.583940  0.660980  0.038580  0.031898
    H   H10  0.416120  0.744340  0.122950  0.131419
    H   H11  0.416060  0.744930  0.961420  0.083442
    H   H12  0.583890  0.660460  0.877060  0.176487
    C   C29  0.098770  0.500000  0.901230  -0.014717
    C   C30  0.901230  0.500000  0.098770  -0.133568
    C   C31  0.977850  0.571450  0.950700  0.093963
    C   C32  0.022150  0.428550  0.049300  0.067132
    C   C33  0.879250  0.571450  0.049300  -0.009713
    C   C34  0.120750  0.428550  0.950700  -0.107722
    C   C35  0.874140  0.673070  0.952800  -0.157787
    C   C36  0.779730  0.673070  0.047200  0.177438
    H   H13  0.877600  0.660980  0.877480  0.019195
    H   H14  0.878610  0.744350  0.960940  0.180757
    H   H15  0.716500  0.744930  0.122520  -0.033257
    H   H16  0.716600  0.660460  0.039060  0.020163
    C   C37  0.098780  0.901230  0.500000  0.119225
    C   C38  0.901230  0.098770  0.500000  0.016961
    C   C39  0.977850  0.950700  0.571450  0.007063
    C   C40  0.022150  0.049300  0.428550  -0.001639
    C   C41  0.879250  0.049300  0.571450  -0.028706
    C   C42  0.120750  0.950700  0.428550  -0.089878
    C   C43  0.874140  0.952800  0.673070  -0.158403
    C   C44  0.779730  0.047200  0.673070  0.029638
    H   H17  0.877600  0.961420  0.744930  0.099318
    H   H18  0.878610  0.877060  0.660470  0.177615
    H   H19  0.716490  0.038580  0.660990  0.032257
    H   H20  0.716600  0.122950  0.744340  0.118689
    C   C45  0.920610  0.079400  0.079400  -0.243458
    C   C46  0.908350  0.991680  0.074500  0.266277
    C   C47  0.025470  0.074500  0.991680  0.012476
    C   C48  0.802220  0.000150  0.163880  -0.350634
    C   C49  0.786480  0.914760  0.162260  0.063647
    H   H21  0.740950  0.064060  0.225600  0.147414
    H   H22  0.715820  0.920570  0.221800  0.019477
    C   C50  0.097080  0.902920  0.902920  -0.298229
    C   C51  0.109340  0.990640  0.907810  -0.096267
    C   C52  0.992220  0.907810  0.990640  0.284445
    C   C53  0.983940  0.818440  0.982160  -0.407439
    C   C54  0.881190  0.820060  0.067560  -0.080682
    H   H23  0.048290  0.756720  0.918250  0.187662
    H   H24  0.875870  0.760520  0.061750  0.067238
    H   H25  0.179730  0.985450  0.848610  0.137407
    H   H26  0.031480  0.133700  0.996870  0.101198
    C   C55  0.098780  0.500000  0.500000  0.205907
    C   C56  0.901230  0.500000  0.500000  0.061608
    C   C57  0.120750  0.428550  0.428550  -0.133028
    C   C58  0.879250  0.571450  0.571450  0.019514
    C   C59  0.022150  0.428550  0.428550  -0.085001
    C   C60  0.977850  0.571450  0.571450  -0.103956
    C   C61  0.220270  0.326930  0.326930  0.125949
    C   C62  0.125860  0.326930  0.326930  0.101288
    H   H27  0.283500  0.255080  0.339020  -0.007646
    H   H28  0.283410  0.339540  0.255660  0.115888
    H   H29  0.122400  0.339020  0.255080  -0.031029
    H   H30  0.121400  0.255660  0.339540  0.120556
    O   O33  0.416400  0.871020  0.358880  -0.299789
    O   O34  0.583680  0.902410  0.221980  -0.163695
    N   N1   0.500030  0.907700  0.335740  0.220533
    O   O35  0.583510  0.129040  0.275310  -0.175870
    O   O36  0.416270  0.097590  0.305700  -0.285212
    N   N2   0.499930  0.092320  0.335790  0.269479
    O   O37  0.583600  0.275280  0.787420  -0.314502
    O   O38  0.416320  0.305660  0.986090  -0.144673
    N   N3   0.499970  0.335760  0.907730  0.292157
    O   O39  0.416490  0.358820  0.212550  -0.422809
    O   O40  0.583730  0.221970  0.013860  -0.265959
    N   N4   0.500080  0.335710  0.092240  0.363517
    O   O41  0.012130  0.275280  0.128980  -0.249363
    O   O42  0.180420  0.305660  0.097590  -0.213418
    N   N5   0.071960  0.335760  0.092300  0.240254
    O   O43  0.353740  0.358820  0.870960  -0.374756
    O   O44  0.291890  0.221970  0.902410  -0.256495
    N   N6   0.256530  0.335710  0.907680  0.390375
    O   O45  0.012130  0.212590  0.358880  -0.318378
    O   O46  0.180420  0.013920  0.221980  -0.262558
    N   N7   0.071960  0.092270  0.335740  0.263734
    O   O47  0.353740  0.787450  0.275310  -0.432574
    O   O48  0.291890  0.986140  0.305700  -0.157147
    N   N8   0.256530  0.907760  0.335790  0.396027
    O   O49  0.646300  0.641120  0.724720  -0.343514
    O   O50  0.708070  0.778020  0.694340  -0.252003
    N   N9   0.743470  0.664260  0.664240  0.261441
    O   O51  0.987860  0.724700  0.641180  -0.445716
    O   O52  0.819560  0.694300  0.778030  -0.258743
    N   N10  0.928030  0.664220  0.664290  0.375333
