# Generated by REPEAT Assigner based on pymatgen
data_DB1-Cu2O8N2-DPAC_A-irmof7_A_No933
_audit_creation_date              2022-05-24
_audit_creation_method            REPEAT_Assigner
_cell_length_a                    27.915400
_cell_length_b                    17.372200
_cell_length_c                    15.850000
_cell_angle_alpha                 89.994400
_cell_angle_beta                  89.993100
_cell_angle_gamma                 89.866000
_cell_volume                      7686.466690
_symmetry_space_group_name_H-M    P1
_symmetry_Int_Tables_number       1
loop_
    _symmetry_equiv_pos_site_id
    _symmetry_equiv_pos_as_xyz
    1  x,y,z
loop_
    _atom_site_type_symbol
    _atom_site_label
    _atom_site_fract_x
    _atom_site_fract_y
    _atom_site_fract_z
    _atom_type_partial_charge
    Cu  Cu1  0.500010  0.500000  0.419710  0.882867
    Cu  Cu2  0.500000  0.499990  0.580290  1.021888
    O   O1   0.562290  0.499970  0.425120  -0.468482
    O   O2   0.437590  0.500250  0.425130  -0.452242
    O   O3   0.499880  0.600300  0.425120  -0.544552
    O   O4   0.500010  0.399920  0.425130  -0.465077
    O   O5   0.500110  0.399690  0.574880  -0.487520
    O   O6   0.500010  0.600070  0.574870  -0.528434
    O   O7   0.437660  0.500120  0.574880  -0.505846
    O   O8   0.562410  0.499720  0.574870  -0.558950
    C   C1   0.589840  0.499820  0.500000  0.603630
    C   C2   0.410160  0.500170  0.500010  0.468789
    C   C3   0.499950  0.644360  0.499990  0.547410
    C   C4   0.500060  0.355630  0.500010  0.420932
    Cu  Cu3  0.877680  0.499440  0.580300  0.962290
    Cu  Cu4  0.877690  0.499990  0.419720  0.943162
    O   O9   0.815400  0.499530  0.574890  -0.541819
    O   O10  0.940100  0.499620  0.574880  -0.495459
    O   O11  0.877580  0.599760  0.575290  -0.485846
    O   O12  0.877920  0.399380  0.574490  -0.480260
    O   O13  0.877810  0.399670  0.424730  -0.505553
    O   O14  0.877440  0.600050  0.425530  -0.544484
    O   O15  0.940030  0.500010  0.425130  -0.444466
    O   O16  0.815280  0.499790  0.425140  -0.502388
    C   C5   0.787840  0.499680  0.500010  0.605456
    C   C6   0.967530  0.499750  0.500000  0.449457
    C   C7   0.877400  0.644080  0.500590  0.509626
    C   C8   0.877970  0.355350  0.499430  0.462242
    N   N1   0.500010  0.500000  0.300380  -0.081663
    C   C9   0.469260  0.549480  0.253920  -0.067734
    C   C10  0.469160  0.549620  0.165080  -0.048016
    C   C11  0.500000  0.499990  0.120060  0.272378
    C   C12  0.530840  0.450370  0.165070  -0.079989
    C   C13  0.530760  0.450520  0.253910  0.044932
    C   C14  0.499990  0.500000  0.037720  -0.105969
    C   C15  0.499990  0.500000  0.962280  -0.028422
    C   C16  0.499990  0.499990  0.879950  0.190074
    C   C17  0.469140  0.549600  0.834930  0.013772
    C   C18  0.469230  0.549450  0.746080  -0.035176
    N   N2   0.499990  0.499990  0.699620  -0.039805
    C   C19  0.530750  0.450530  0.746080  -0.102003
    C   C20  0.530840  0.450380  0.834930  0.036434
    H   H1   0.446460  0.586160  0.284760  0.168611
    H   H2   0.553560  0.413840  0.284740  0.109335
    H   H3   0.446420  0.586120  0.715250  0.146718
    H   H4   0.553560  0.413860  0.715250  0.177254
    C   C21  0.500040  0.274060  0.500010  0.139100
    C   C22  0.499980  0.231680  0.423450  -0.197958
    C   C23  0.499960  0.150620  0.423220  0.089809
    C   C24  0.500010  0.109530  0.499990  0.140270
    C   C25  0.500070  0.150590  0.576780  0.059429
    C   C26  0.500090  0.231650  0.576560  -0.196526
    C   C27  0.500000  0.034410  0.499990  -0.041728
    C   C28  0.499990  0.965580  0.499980  -0.032954
    C   C29  0.499970  0.890460  0.499980  0.147224
    C   C30  0.499900  0.849390  0.423200  0.106068
    C   C31  0.499890  0.768330  0.423430  -0.179081
    C   C32  0.499950  0.725930  0.499990  0.057313
    C   C33  0.500030  0.768320  0.576540  -0.182245
    C   C34  0.500040  0.849380  0.576770  0.045984
    H   H5   0.499940  0.259810  0.366700  0.151988
    H   H6   0.500130  0.259770  0.633310  0.161957
    H   H7   0.499830  0.740210  0.366680  0.075628
    H   H8   0.500080  0.740190  0.633290  0.165832
    C   C35  0.735570  0.499720  0.500010  -0.172527
    C   C36  0.711000  0.549660  0.445490  0.281453
    C   C37  0.711100  0.449810  0.554530  -0.104393
    C   C38  0.736850  0.598410  0.392240  -0.683086
    C   C39  0.713760  0.648930  0.337080  0.479580
    H   H9   0.770110  0.597060  0.393680  0.207926
    C   C40  0.642120  0.499790  0.500000  -0.167325
    C   C41  0.666690  0.449840  0.554520  -0.116121
    C   C42  0.666590  0.549690  0.445480  0.293954
    C   C43  0.640630  0.598480  0.392230  -0.699831
    C   C44  0.663610  0.648970  0.337080  0.546496
    H   H10  0.607370  0.597190  0.393660  0.197331
    H   H11  0.649680  0.417290  0.590080  0.145185
    H   H12  0.728180  0.417230  0.590090  0.148077
    C   C45  0.018290  0.499810  0.500010  0.116220
    C   C46  0.044670  0.499750  0.576560  -0.195364
    C   C47  0.095110  0.499800  0.576790  0.065901
    C   C48  0.120680  0.499910  0.500020  0.158976
    C   C49  0.095120  0.499970  0.423230  0.073999
    C   C50  0.044680  0.499920  0.423460  -0.187427
    C   C51  0.167430  0.499960  0.500020  -0.049701
    C   C52  0.210260  0.500000  0.500030  -0.044601
    C   C53  0.257010  0.500040  0.500020  0.152495
    C   C54  0.282570  0.500010  0.576800  0.064846
    C   C55  0.333010  0.500050  0.576570  -0.145621
    C   C56  0.359400  0.500130  0.500010  0.101583
    C   C57  0.333020  0.500170  0.423460  -0.226686
    C   C58  0.282570  0.500120  0.423240  0.084361
    H   H13  0.027160  0.499670  0.633320  0.164368
    H   H14  0.027180  0.499970  0.366700  0.144991
    H   H15  0.350520  0.500020  0.633320  0.130087
    H   H16  0.350530  0.500230  0.366710  0.174773
    N   N3   0.877670  0.502470  0.699640  -0.055849
    C   C59  0.908310  0.551740  0.746290  -0.038582
    C   C60  0.908410  0.551580  0.835130  0.024679
    C   C61  0.877690  0.501850  0.879960  0.217286
    C   C62  0.846960  0.452420  0.834750  -0.030505
    C   C63  0.847040  0.452880  0.745910  -0.028552
    C   C64  0.877690  0.501560  0.962300  -0.064520
    C   C65  0.877700  0.501310  0.037730  -0.041151
    C   C66  0.877700  0.501020  0.120070  0.180658
    C   C67  0.908430  0.550420  0.165280  0.064289
    C   C68  0.908340  0.549970  0.254120  -0.108889
    N   N4   0.877700  0.500400  0.300390  -0.054306
    C   C69  0.847050  0.451140  0.253740  -0.014205
    C   C70  0.846960  0.451300  0.164890  -0.023303
    H   H17  0.931020  0.588490  0.715590  0.146483
    H   H18  0.824330  0.416340  0.714940  0.144683
    H   H19  0.931060  0.586500  0.285100  0.149869
    H   H20  0.824330  0.414400  0.284420  0.146415
    C   C71  0.875840  0.273770  0.503040  0.095425
    C   C72  0.876000  0.231130  0.579430  -0.150789
    C   C73  0.876210  0.150070  0.579340  0.065155
    C   C74  0.876250  0.109250  0.502400  0.144156
    C   C75  0.876090  0.150570  0.425780  0.066181
    C   C76  0.875890  0.231630  0.426320  -0.197880
    C   C77  0.876440  0.034130  0.502120  -0.022862
    C   C78  0.876610  0.965300  0.501860  -0.088909
    C   C79  0.876800  0.890180  0.501560  0.224537
    C   C80  0.876970  0.848850  0.578170  0.051048
    C   C81  0.877170  0.767790  0.577630  -0.143558
    C   C82  0.877210  0.725650  0.500910  0.061453
    C   C83  0.877030  0.768300  0.424520  -0.178060
    C   C84  0.876830  0.849360  0.424610  -0.019179
    H   H21  0.875970  0.259070  0.636290  0.133699
    H   H22  0.875780  0.259950  0.369670  0.174188
    H   H23  0.877300  0.739470  0.634270  0.128064
    H   H24  0.877050  0.740360  0.367660  0.120890
    O   O17  0.591480  0.423940  0.044840  -0.243526
    O   O18  0.570110  0.316060  0.148420  -0.238714
    N   N5   0.564410  0.396360  0.119080  0.370515
    O   O19  0.408510  0.576050  0.044890  -0.203244
    O   O20  0.429890  0.683930  0.148440  -0.280373
    N   N6   0.435590  0.603630  0.119110  0.335536
    O   O21  0.547240  0.352910  0.955150  -0.228467
    O   O22  0.614390  0.387160  0.851560  -0.273640
    N   N7   0.564420  0.396390  0.880910  0.331172
    O   O23  0.452740  0.647070  0.955120  -0.250821
    O   O24  0.385590  0.612810  0.851580  -0.243024
    N   N8   0.435550  0.603590  0.880910  0.324978
    O   O25  0.531440  0.040770  0.672550  -0.249696
    O   O26  0.468860  0.135520  0.729700  -0.257635
    N   N9   0.500130  0.108630  0.660340  0.344871
    O   O27  0.468550  0.041090  0.327420  -0.222667
    O   O28  0.531160  0.135320  0.270290  -0.221879
    N   N10  0.499890  0.108680  0.339650  0.302569
    O   O29  0.468820  0.959170  0.672720  -0.234645
    O   O30  0.531500  0.864420  0.729520  -0.269226
    N   N11  0.500120  0.891320  0.660330  0.351283
    O   O31  0.531140  0.958940  0.327240  -0.261059
    O   O32  0.468430  0.864710  0.270450  -0.218485
    N   N12  0.499820  0.891350  0.339640  0.246100
    O   O33  0.163480  0.449820  0.327320  -0.237221
    O   O34  0.104500  0.550480  0.270450  -0.224016
    N   N13  0.121240  0.500090  0.339670  0.323339
    O   O35  0.163260  0.550100  0.672720  -0.244436
    O   O36  0.104640  0.449320  0.729580  -0.257516
    N   N14  0.121210  0.499740  0.660360  0.346046
    O   O37  0.214240  0.550470  0.327420  -0.244662
    O   O38  0.273220  0.449910  0.270350  -0.256368
    N   N15  0.256470  0.500170  0.339680  0.343206
    O   O39  0.214400  0.449540  0.672620  -0.233658
    O   O40  0.273020  0.550210  0.729690  -0.217414
    N   N16  0.256460  0.499920  0.660370  0.314759
    O   O41  0.786380  0.425670  0.954880  -0.238965
    O   O42  0.808010  0.318110  0.850870  -0.245501
    N   N17  0.813520  0.398310  0.880530  0.356155
    O   O43  0.969000  0.577510  0.955420  -0.207731
    O   O44  0.947360  0.685770  0.852300  -0.234896
    N   N18  0.941860  0.605380  0.881310  0.294640
    O   O45  0.830800  0.354270  0.044290  -0.225517
    O   O46  0.763560  0.388260  0.148010  -0.279900
    N   N19  0.813510  0.397520  0.118700  0.351460
    O   O47  0.924600  0.648280  0.045470  -0.254599
    O   O48  0.991840  0.613570  0.148880  -0.222100
    N   N20  0.941890  0.604520  0.119510  0.271978
    O   O49  0.844980  0.041130  0.329580  -0.240528
    O   O50  0.907340  0.135980  0.272800  -0.258051
    N   N21  0.876140  0.108900  0.342060  0.326062
    O   O51  0.907870  0.040170  0.674710  -0.237442
    O   O52  0.845040  0.134300  0.732210  -0.223646
    N   N22  0.876370  0.107840  0.662740  0.319592
    O   O53  0.907790  0.959440  0.329090  -0.214227
    O   O54  0.845330  0.864980  0.271920  -0.339237
    N   N23  0.876650  0.891590  0.341220  0.358633
    O   O55  0.845470  0.958110  0.674570  -0.251668
    O   O56  0.908400  0.863600  0.730980  -0.220639
    N   N24  0.876950  0.890520  0.661900  0.319522
    O   O57  0.737870  0.694140  0.287700  -0.709619
    Li  Li1  0.797880  0.708240  0.272260  0.827069
    O   O58  0.639400  0.694210  0.287690  -0.766322
    Li  Li2  0.579370  0.708400  0.272240  0.858307
