data_DB1-Zn2O8-BTC_A-irmof8_A_No11_repeat
_audit_creation_date              2024-02-20
_audit_creation_method            'Materials Studio'
_symmetry_space_group_name_H-M    'P1'
_symmetry_Int_Tables_number       1
_symmetry_cell_setting            triclinic
loop_
_symmetry_equiv_pos_as_xyz
  x,y,z
_cell_length_a                    19.1861
_cell_length_b                    19.1861
_cell_length_c                    26.3810
_cell_angle_alpha                 89.7925
_cell_angle_beta                  89.7629
_cell_angle_gamma                 60.0002
loop_
_atom_site_label
_atom_site_type_symbol
_atom_site_fract_x
_atom_site_fract_y
_atom_site_fract_z
_atom_site_U_iso_or_equiv
_atom_site_adp_type
_atom_site_occupancy
O1     O     0.42968   0.57122   0.42689   0.00000  Uiso   1.00
O2     O     0.57098   0.42918   0.42691   0.00000  Uiso   1.00
C1     C     0.50029   0.50019   0.40114   0.00000  Uiso   1.00
Zn1    Zn    0.41370   0.58650   0.50000   0.00000  Uiso   1.00
O3     O     0.62890   0.48697   0.49998   0.00000  Uiso   1.00
O4     O     0.48742   0.62884   0.50003   0.00000  Uiso   1.00
C2     C     0.57859   0.57839   0.49996   0.00000  Uiso   1.00
O5     O     0.57040   0.42885   0.57313   0.00000  Uiso   1.00
O6     O     0.42895   0.57074   0.57310   0.00000  Uiso   1.00
C3     C     0.49967   0.49978   0.59887   0.00000  Uiso   1.00
Zn2    Zn    0.58630   0.41350   0.50002   0.00000  Uiso   1.00
O7     O     0.37110   0.51303   0.49994   0.00000  Uiso   1.00
O8     O     0.51258   0.37116   0.50008   0.00000  Uiso   1.00
C4     C     0.42141   0.42162   0.49988   0.00000  Uiso   1.00
O9     O     0.57122   0.99959   0.42633   0.00000  Uiso   1.00
O10    O     0.42918   0.00033   0.42658   0.00000  Uiso   1.00
C5     C     0.50019   0.00017   0.40070   0.00000  Uiso   1.00
Zn3    Zn    0.58650   0.99980   0.49941   0.00000  Uiso   1.00
O11    O     0.48697   0.88414   0.49980   0.00000  Uiso   1.00
O12    O     0.62884   0.88374   0.49962   0.00000  Uiso   1.00
C6     C     0.57838   0.84303   0.49972   0.00000  Uiso   1.00
O13    O     0.42884   0.00028   0.57280   0.00000  Uiso   1.00
O14    O     0.57073   0.99984   0.57254   0.00000  Uiso   1.00
C7     C     0.49977   0.99991   0.59843   0.00000  Uiso   1.00
Zn4    Zn    0.41350   0.00021   0.49971   0.00000  Uiso   1.00
O15    O     0.51302   0.11588   0.49922   0.00000  Uiso   1.00
O16    O     0.37115   0.11627   0.49959   0.00000  Uiso   1.00
C8     C     0.42161   0.15698   0.49923   0.00000  Uiso   1.00
O17    O     0.99958   0.42968   0.42630   0.00000  Uiso   1.00
O18    O     0.00033   0.57098   0.42625   0.00000  Uiso   1.00
C9     C     0.00018   0.50030   0.40052   0.00000  Uiso   1.00
Zn5    Zn    0.99980   0.41371   0.49942   0.00000  Uiso   1.00
O19    O     0.88413   0.62891   0.49953   0.00000  Uiso   1.00
O20    O     0.88374   0.48743   0.49966   0.00000  Uiso   1.00
C10    C     0.84302   0.57860   0.49963   0.00000  Uiso   1.00
O21    O     0.00027   0.57041   0.57247   0.00000  Uiso   1.00
O22    O     0.99982   0.42896   0.57251   0.00000  Uiso   1.00
C11    C     0.99989   0.49969   0.59825   0.00000  Uiso   1.00
Zn6    Zn    0.00021   0.58631   0.49935   0.00000  Uiso   1.00
O23    O     0.11587   0.37111   0.49913   0.00000  Uiso   1.00
O24    O     0.11626   0.51259   0.49919   0.00000  Uiso   1.00
C12    C     0.15698   0.42142   0.49896   0.00000  Uiso   1.00
O25    O     0.57073   0.42923   0.07313   0.00000  Uiso   1.00
O26    O     0.42914   0.57097   0.07310   0.00000  Uiso   1.00
C13    C     0.49990   0.50005   0.09887   0.00000  Uiso   1.00
Zn7    Zn    0.58602   0.41326   0.00002   0.00000  Uiso   1.00
O27    O     0.48752   0.62841   0.99946   0.00000  Uiso   1.00
O28    O     0.62895   0.48649   0.99941   0.00000  Uiso   1.00
C14    C     0.57891   0.57769   0.99927   0.00000  Uiso   1.00
O29    O     0.42891   0.57051   0.92689   0.00000  Uiso   1.00
O30    O     0.57036   0.42862   0.92692   0.00000  Uiso   1.00
C15    C     0.49964   0.49958   0.90115   0.00000  Uiso   1.00
Zn8    Zn    0.41356   0.58640   0.00000   0.00000  Uiso   1.00
O31    O     0.51205   0.37125   0.00066   0.00000  Uiso   1.00
O32    O     0.37062   0.51317   0.00052   0.00000  Uiso   1.00
C16    C     0.42067   0.42197   0.00092   0.00000  Uiso   1.00
O33    O     0.42919   0.99627   0.07280   0.00000  Uiso   1.00
O34    O     0.57092   0.99613   0.07254   0.00000  Uiso   1.00
C17    C     0.50000   0.99612   0.09843   0.00000  Uiso   1.00
Zn9    Zn    0.41322   0.99744   0.99971   0.00000  Uiso   1.00
O35    O     0.62837   0.88079   0.99906   0.00000  Uiso   1.00
O36    O     0.48644   0.88128   0.99923   0.00000  Uiso   1.00
C18    C     0.57764   0.84013   0.99904   0.00000  Uiso   1.00
O37    O     0.57047   0.99778   0.92633   0.00000  Uiso   1.00
O38    O     0.42858   0.99822   0.92659   0.00000  Uiso   1.00
C19    C     0.49955   0.99815   0.90070   0.00000  Uiso   1.00
Zn10   Zn    0.58636   0.99677   0.99942   0.00000  Uiso   1.00
O39    O     0.37122   0.11341   0.00018   0.00000  Uiso   1.00
O40    O     0.51313   0.11292   0.99981   0.00000  Uiso   1.00
C20    C     0.42194   0.15407   0.00027   0.00000  Uiso   1.00
O41    O     0.99623   0.57078   0.07247   0.00000  Uiso   1.00
O42    O     0.99609   0.42918   0.07252   0.00000  Uiso   1.00
C21    C     0.99608   0.49995   0.09825   0.00000  Uiso   1.00
Zn11   Zn    0.99740   0.58606   0.99935   0.00000  Uiso   1.00
O43    O     0.88075   0.48757   0.99909   0.00000  Uiso   1.00
O44    O     0.88125   0.62899   0.99896   0.00000  Uiso   1.00
C22    C     0.84009   0.57895   0.99894   0.00000  Uiso   1.00
O45    O     0.99774   0.42895   0.92630   0.00000  Uiso   1.00
O46    O     0.99819   0.57040   0.92626   0.00000  Uiso   1.00
C23    C     0.99812   0.49968   0.90052   0.00000  Uiso   1.00
Zn12   Zn    0.99673   0.41360   0.99942   0.00000  Uiso   1.00
O47    O     0.11337   0.51209   0.99979   0.00000  Uiso   1.00
O48    O     0.11288   0.37067   0.99972   0.00000  Uiso   1.00
C24    C     0.15404   0.42071   0.00001   0.00000  Uiso   1.00
C25    C     0.62376   0.75239   0.49975   0.00000  Uiso   1.00
C26    C     0.58236   0.70877   0.49984   0.00000  Uiso   1.00
C27    C     0.62386   0.62376   0.49986   0.00000  Uiso   1.00
C28    C     0.70887   0.58237   0.49979   0.00000  Uiso   1.00
C29    C     0.75238   0.62387   0.49970   0.00000  Uiso   1.00
C30    C     0.70877   0.70887   0.49968   0.00000  Uiso   1.00
H1     H     0.51720   0.74131   0.49989   0.00000  Uiso   1.00
H2     H     0.74131   0.74149   0.49961   0.00000  Uiso   1.00
H3     H     0.74148   0.51721   0.49981   0.00000  Uiso   1.00
C31    C     0.24762   0.37615   0.49917   0.00000  Uiso   1.00
C32    C     0.29114   0.41764   0.49942   0.00000  Uiso   1.00
C33    C     0.37614   0.37624   0.49961   0.00000  Uiso   1.00
C34    C     0.41763   0.29124   0.49955   0.00000  Uiso   1.00
C35    C     0.37624   0.24763   0.49929   0.00000  Uiso   1.00
C36    C     0.29123   0.29114   0.49911   0.00000  Uiso   1.00
H4     H     0.25852   0.48280   0.49947   0.00000  Uiso   1.00
H5     H     0.25869   0.25853   0.49891   0.00000  Uiso   1.00
H6     H     0.48279   0.25869   0.49969   0.00000  Uiso   1.00
C37    C     0.55058   0.44854   0.81078   0.00000  Uiso   1.00
C38    C     0.42878   0.57071   0.82978   0.00000  Uiso   1.00
C39    C     0.40996   0.58963   0.77834   0.00000  Uiso   1.00
C40    C     0.46444   0.53501   0.74204   0.00000  Uiso   1.00
C41    C     0.44873   0.55082   0.68924   0.00000  Uiso   1.00
C42    C     0.57053   0.42865   0.67024   0.00000  Uiso   1.00
C43    C     0.58935   0.40973   0.72168   0.00000  Uiso   1.00
C44    C     0.53487   0.46435   0.75798   0.00000  Uiso   1.00
C45    C     0.49964   0.49962   0.84503   0.00000  Uiso   1.00
C46    C     0.49966   0.49974   0.65499   0.00000  Uiso   1.00
H7     H     0.60505   0.39391   0.82261   0.00000  Uiso   1.00
H8     H     0.38863   0.61097   0.85850   0.00000  Uiso   1.00
H9     H     0.39426   0.60544   0.67741   0.00000  Uiso   1.00
H10    H     0.61067   0.38840   0.64151   0.00000  Uiso   1.00
C47    C     0.55090   0.44894   0.18918   0.00000  Uiso   1.00
C48    C     0.42920   0.57124   0.17032   0.00000  Uiso   1.00
C49    C     0.41047   0.59017   0.22177   0.00000  Uiso   1.00
C50    C     0.46493   0.53548   0.25801   0.00000  Uiso   1.00
C51    C     0.44930   0.55130   0.31083   0.00000  Uiso   1.00
C52    C     0.57099   0.42899   0.32970   0.00000  Uiso   1.00
C53    C     0.58973   0.41007   0.27824   0.00000  Uiso   1.00
C54    C     0.53526   0.46475   0.24200   0.00000  Uiso   1.00
C55    C     0.49997   0.50007   0.15499   0.00000  Uiso   1.00
C56    C     0.50022   0.50016   0.34502   0.00000  Uiso   1.00
H11    H     0.60528   0.39424   0.17729   0.00000  Uiso   1.00
H12    H     0.38906   0.61154   0.14163   0.00000  Uiso   1.00
H13    H     0.39492   0.60600   0.32272   0.00000  Uiso   1.00
H14    H     0.61113   0.38870   0.35838   0.00000  Uiso   1.00
C57    C     0.44852   0.99883   0.81042   0.00000  Uiso   1.00
C58    C     0.57069   0.99834   0.82922   0.00000  Uiso   1.00
C59    C     0.58961   0.99858   0.77776   0.00000  Uiso   1.00
C60    C     0.53499   0.99896   0.74154   0.00000  Uiso   1.00
C61    C     0.55080   0.99922   0.68871   0.00000  Uiso   1.00
C62    C     0.42863   0.99971   0.66991   0.00000  Uiso   1.00
C63    C     0.40971   0.99947   0.72137   0.00000  Uiso   1.00
C64    C     0.46433   0.99909   0.75759   0.00000  Uiso   1.00
C65    C     0.49959   0.99848   0.84458   0.00000  Uiso   1.00
C66    C     0.49973   0.99958   0.65455   0.00000  Uiso   1.00
H15    H     0.39389   0.99892   0.82233   0.00000  Uiso   1.00
H16    H     0.61094   0.99804   0.85788   0.00000  Uiso   1.00
H17    H     0.60543   0.99914   0.67679   0.00000  Uiso   1.00
H18    H     0.38838   0.00001   0.64124   0.00000  Uiso   1.00
C67    C     0.44896   0.00221   0.18881   0.00000  Uiso   1.00
C68    C     0.57126   0.00173   0.16975   0.00000  Uiso   1.00
C69    C     0.59019   0.00120   0.22118   0.00000  Uiso   1.00
C70    C     0.53549   0.00119   0.25751   0.00000  Uiso   1.00
C71    C     0.55130   0.00066   0.31030   0.00000  Uiso   1.00
C72    C     0.42900   0.00114   0.32936   0.00000  Uiso   1.00
C73    C     0.41008   0.00167   0.27794   0.00000  Uiso   1.00
C74    C     0.46477   0.00169   0.24161   0.00000  Uiso   1.00
C75    C     0.50009   0.00223   0.15454   0.00000  Uiso   1.00
C76    C     0.50017   0.00064   0.34458   0.00000  Uiso   1.00
H19    H     0.39426   0.00262   0.17701   0.00000  Uiso   1.00
H20    H     0.61157   0.00177   0.14101   0.00000  Uiso   1.00
H21    H     0.60601   0.00026   0.32211   0.00000  Uiso   1.00
H22    H     0.38870   0.00111   0.35811   0.00000  Uiso   1.00
C77    C     0.99881   0.55061   0.81013   0.00000  Uiso   1.00
C78    C     0.99832   0.42881   0.82919   0.00000  Uiso   1.00
C79    C     0.99856   0.40999   0.77777   0.00000  Uiso   1.00
C80    C     0.99894   0.46447   0.74144   0.00000  Uiso   1.00
C81    C     0.99920   0.44875   0.68864   0.00000  Uiso   1.00
C82    C     0.99970   0.57055   0.66958   0.00000  Uiso   1.00
C83    C     0.99945   0.58937   0.72100   0.00000  Uiso   1.00
C84    C     0.99907   0.53489   0.75733   0.00000  Uiso   1.00
C85    C     0.99845   0.49968   0.84440   0.00000  Uiso   1.00
C86    C     0.99956   0.49968   0.65437   0.00000  Uiso   1.00
H23    H     0.99889   0.60508   0.82193   0.00000  Uiso   1.00
H24    H     0.99801   0.38866   0.85794   0.00000  Uiso   1.00
H25    H     0.99912   0.39428   0.67684   0.00000  Uiso   1.00
H26    H     0.99999   0.61069   0.64082   0.00000  Uiso   1.00
C87    C     0.00223   0.55089   0.18853   0.00000  Uiso   1.00
C88    C     0.00175   0.42919   0.16973   0.00000  Uiso   1.00
C89    C     0.00122   0.41046   0.22119   0.00000  Uiso   1.00
C90    C     0.00120   0.46493   0.25740   0.00000  Uiso   1.00
C91    C     0.00067   0.44929   0.31023   0.00000  Uiso   1.00
C92    C     0.00115   0.57099   0.32903   0.00000  Uiso   1.00
C93    C     0.00168   0.58972   0.27757   0.00000  Uiso   1.00
C94    C     0.00170   0.53525   0.24136   0.00000  Uiso   1.00
C95    C     0.00225   0.49996   0.15436   0.00000  Uiso   1.00
C96    C     0.00065   0.50022   0.34440   0.00000  Uiso   1.00
H27    H     0.00263   0.60527   0.17661   0.00000  Uiso   1.00
H28    H     0.00179   0.38904   0.14107   0.00000  Uiso   1.00
H29    H     0.00027   0.39492   0.32215   0.00000  Uiso   1.00
H30    H     0.00112   0.61113   0.35770   0.00000  Uiso   1.00
C97    C     0.75373   0.62162   0.99838   0.00000  Uiso   1.00
C98    C     0.70972   0.58063   0.99872   0.00000  Uiso   1.00
C99    C     0.62471   0.62253   0.99891   0.00000  Uiso   1.00
C100   C     0.58372   0.70753   0.99876   0.00000  Uiso   1.00
C101   C     0.62561   0.75065   0.99842   0.00000  Uiso   1.00
C102   C     0.71061   0.70664   0.99824   0.00000  Uiso   1.00
H31    H     0.74196   0.51547   0.99883   0.00000  Uiso   1.00
H32    H     0.74353   0.73887   0.99798   0.00000  Uiso   1.00
H33    H     0.51856   0.74045   0.99890   0.00000  Uiso   1.00
C103   C     0.37397   0.24901   0.00274   0.00000  Uiso   1.00
C104   C     0.41587   0.29213   0.00206   0.00000  Uiso   1.00
C105   C     0.37487   0.37713   0.00165   0.00000  Uiso   1.00
C106   C     0.28986   0.41902   0.00193   0.00000  Uiso   1.00
C107   C     0.24585   0.37803   0.00261   0.00000  Uiso   1.00
C108   C     0.28897   0.29302   0.00301   0.00000  Uiso   1.00
H34    H     0.48102   0.25921   0.00185   0.00000  Uiso   1.00
H35    H     0.25605   0.26078   0.00353   0.00000  Uiso   1.00
H36    H     0.25762   0.48418   0.00162   0.00000  Uiso   1.00
O49    O     0.65390   0.34496   0.73612   0.00000  Uiso   1.00
Li1    Li    0.73111   0.26754   0.70377   0.00000  Uiso   1.00
O50    O     0.34541   0.65440   0.76390   0.00000  Uiso   1.00
Li2    Li    0.26821   0.73182   0.79626   0.00000  Uiso   1.00
O51    O     0.65420   0.34523   0.26373   0.00000  Uiso   1.00
Li3    Li    0.73135   0.26772   0.29600   0.00000  Uiso   1.00
O52    O     0.34599   0.65500   0.23629   0.00000  Uiso   1.00
Li4    Li    0.26884   0.73251   0.20401   0.00000  Uiso   1.00
O53    O     0.34494   0.99959   0.73592   0.00000  Uiso   1.00
Li5    Li    0.26752   0.00002   0.70369   0.00000  Uiso   1.00
O54    O     0.65438   0.99846   0.76321   0.00000  Uiso   1.00
Li6    Li    0.73180   0.99803   0.79544   0.00000  Uiso   1.00
O55    O     0.34524   0.00214   0.26353   0.00000  Uiso   1.00
Li7    Li    0.26773   0.00227   0.29592   0.00000  Uiso   1.00
O56    O     0.65502   0.00075   0.23559   0.00000  Uiso   1.00
Li8    Li    0.73252   0.00062   0.20319   0.00000  Uiso   1.00
O57    O     0.99957   0.65393   0.73541   0.00000  Uiso   1.00
Li9    Li    0.00000   0.73113   0.70302   0.00000  Uiso   1.00
O58    O     0.99843   0.34544   0.76336   0.00000  Uiso   1.00
Li10   Li    0.99800   0.26824   0.79576   0.00000  Uiso   1.00
O59    O     0.00215   0.65419   0.26302   0.00000  Uiso   1.00
Li11   Li    0.00228   0.73135   0.29524   0.00000  Uiso   1.00
O60    O     0.00076   0.34599   0.23574   0.00000  Uiso   1.00
Li12   Li    0.00063   0.26883   0.20351   0.00000  Uiso   1.00
