data_DB1-Cu2O8-ADC_A-fum_A_No299_repeat
_audit_creation_date              2024-02-24
_audit_creation_method            'Materials Studio'
_symmetry_space_group_name_H-M    'P1'
_symmetry_Int_Tables_number       1
_symmetry_cell_setting            triclinic
loop_
_symmetry_equiv_pos_as_xyz
  x,y,z
_cell_length_a                    34.9964
_cell_length_b                    43.6607
_cell_length_c                    10.0000
_cell_angle_alpha                 90.0000
_cell_angle_beta                  90.0000
_cell_angle_gamma                 36.8571
loop_
_atom_site_label
_atom_site_type_symbol
_atom_site_fract_x
_atom_site_fract_y
_atom_site_fract_z
_atom_site_U_iso_or_equiv
_atom_site_adp_type
_atom_site_occupancy
Cu1    Cu    0.50033   0.49967   0.37274   0.00000  Uiso   1.00
Cu2    Cu    0.49967   0.50033   0.62726   0.00000  Uiso   1.00
O1     O     0.43392   0.56609   0.38014   0.00000  Uiso   1.00
O2     O     0.56671   0.43317   0.38251   0.00000  Uiso   1.00
O3     O     0.45066   0.49955   0.38133   0.00000  Uiso   1.00
O4     O     0.54998   0.49970   0.38132   0.00000  Uiso   1.00
O5     O     0.54936   0.50044   0.61867   0.00000  Uiso   1.00
O6     O     0.45001   0.50032   0.61868   0.00000  Uiso   1.00
O7     O     0.56608   0.43386   0.61986   0.00000  Uiso   1.00
O8     O     0.43330   0.56684   0.61749   0.00000  Uiso   1.00
C1     C     0.40431   0.59577   0.49830   0.00000  Uiso   1.00
C2     C     0.59568   0.40424   0.50170   0.00000  Uiso   1.00
C3     C     0.42840   0.49994   0.50001   0.00000  Uiso   1.00
C4     C     0.57160   0.50007   0.50000   0.00000  Uiso   1.00
Cu3    Cu    0.99924   0.50076   0.71812   0.00000  Uiso   1.00
Cu4    Cu    0.00015   0.49985   0.46361   0.00000  Uiso   1.00
O9     O     0.93310   0.56712   0.70791   0.00000  Uiso   1.00
O10    O     0.06568   0.43421   0.71117   0.00000  Uiso   1.00
O11    O     0.04920   0.50059   0.70955   0.00000  Uiso   1.00
O12    O     0.94959   0.50074   0.70952   0.00000  Uiso   1.00
O13    O     0.95021   0.50000   0.47217   0.00000  Uiso   1.00
O14    O     0.04979   0.49990   0.47220   0.00000  Uiso   1.00
O15    O     0.06640   0.43344   0.47382   0.00000  Uiso   1.00
O16    O     0.93370   0.56641   0.47056   0.00000  Uiso   1.00
C5     C     0.90419   0.59607   0.58851   0.00000  Uiso   1.00
C6     C     0.09520   0.40454   0.59321   0.00000  Uiso   1.00
C7     C     0.07142   0.50025   0.59088   0.00000  Uiso   1.00
C8     C     0.92797   0.50037   0.59084   0.00000  Uiso   1.00
Cu5    Cu    0.16787   0.83243   0.73000   0.00000  Uiso   1.00
Cu6    Cu    0.16826   0.83177   0.47549   0.00000  Uiso   1.00
O17    O     0.23424   0.76601   0.72260   0.00000  Uiso   1.00
O18    O     0.10127   0.89893   0.72024   0.00000  Uiso   1.00
O19    O     0.11821   0.83229   0.72207   0.00000  Uiso   1.00
O20    O     0.21731   0.83266   0.72077   0.00000  Uiso   1.00
O21    O     0.21790   0.83192   0.48342   0.00000  Uiso   1.00
O22    O     0.11884   0.83152   0.48472   0.00000  Uiso   1.00
O23    O     0.10177   0.89824   0.48289   0.00000  Uiso   1.00
O24    O     0.23487   0.76526   0.48525   0.00000  Uiso   1.00
C9     C     0.26385   0.73633   0.60444   0.00000  Uiso   1.00
C10    C     0.07227   0.92786   0.60104   0.00000  Uiso   1.00
C11    C     0.09671   0.83179   0.60368   0.00000  Uiso   1.00
C12    C     0.23942   0.83240   0.60180   0.00000  Uiso   1.00
Cu7    Cu    0.66961   0.83127   0.34681   0.00000  Uiso   1.00
Cu8    Cu    0.66896   0.83218   0.60132   0.00000  Uiso   1.00
O25    O     0.73578   0.76491   0.35702   0.00000  Uiso   1.00
O26    O     0.60338   0.89782   0.35375   0.00000  Uiso   1.00
O27    O     0.71949   0.83118   0.35476   0.00000  Uiso   1.00
O28    O     0.61966   0.83155   0.35602   0.00000  Uiso   1.00
O29    O     0.61906   0.83228   0.59337   0.00000  Uiso   1.00
O30    O     0.71893   0.83188   0.59211   0.00000  Uiso   1.00
O31    O     0.60280   0.89859   0.59110   0.00000  Uiso   1.00
O32    O     0.73518   0.76562   0.59437   0.00000  Uiso   1.00
C13    C     0.76469   0.73596   0.47642   0.00000  Uiso   1.00
C14    C     0.57388   0.92748   0.47171   0.00000  Uiso   1.00
C15    C     0.74126   0.83141   0.47316   0.00000  Uiso   1.00
C16    C     0.59732   0.83203   0.47497   0.00000  Uiso   1.00
C17    C     0.88530   0.50037   0.59083   0.00000  Uiso   1.00
C18    C     0.86506   0.49999   0.46992   0.00000  Uiso   1.00
C19    C     0.82504   0.49999   0.46976   0.00000  Uiso   1.00
C20    C     0.80407   0.50036   0.59107   0.00000  Uiso   1.00
C21    C     0.82437   0.50074   0.71167   0.00000  Uiso   1.00
C22    C     0.86435   0.50074   0.71176   0.00000  Uiso   1.00
C23    C     0.76144   0.50038   0.59856   0.00000  Uiso   1.00
C24    C     0.73813   0.50006   0.49223   0.00000  Uiso   1.00
C25    C     0.67520   0.49970   0.37913   0.00000  Uiso   1.00
C26    C     0.69550   0.50008   0.49974   0.00000  Uiso   1.00
C27    C     0.67453   0.50045   0.62106   0.00000  Uiso   1.00
C28    C     0.63451   0.50045   0.62090   0.00000  Uiso   1.00
C29    C     0.61427   0.50007   0.49999   0.00000  Uiso   1.00
C30    C     0.63521   0.49970   0.37906   0.00000  Uiso   1.00
H1     H     0.88045   0.49970   0.37539   0.00000  Uiso   1.00
H2     H     0.81115   0.49969   0.37406   0.00000  Uiso   1.00
H3     H     0.80921   0.50103   0.80665   0.00000  Uiso   1.00
H4     H     0.69035   0.49941   0.28415   0.00000  Uiso   1.00
H5     H     0.68841   0.50075   0.71675   0.00000  Uiso   1.00
H6     H     0.61912   0.50074   0.71543   0.00000  Uiso   1.00
H7     H     0.74921   0.50069   0.69795   0.00000  Uiso   1.00
H8     H     0.75035   0.49975   0.39284   0.00000  Uiso   1.00
C31    C     0.11410   0.50025   0.59087   0.00000  Uiso   1.00
C32    C     0.13510   0.49985   0.46996   0.00000  Uiso   1.00
C33    C     0.17513   0.49985   0.46979   0.00000  Uiso   1.00
C34    C     0.19533   0.50024   0.59109   0.00000  Uiso   1.00
C35    C     0.17427   0.50063   0.71171   0.00000  Uiso   1.00
C36    C     0.13428   0.50064   0.71179   0.00000  Uiso   1.00
C37    C     0.23792   0.50026   0.59858   0.00000  Uiso   1.00
C38    C     0.26190   0.49992   0.49226   0.00000  Uiso   1.00
C39    C     0.32555   0.49955   0.37915   0.00000  Uiso   1.00
C40    C     0.30449   0.49994   0.49976   0.00000  Uiso   1.00
C41    C     0.32469   0.50033   0.62107   0.00000  Uiso   1.00
C42    C     0.36472   0.50033   0.62091   0.00000  Uiso   1.00
C43    C     0.38573   0.49994   0.50000   0.00000  Uiso   1.00
C44    C     0.36554   0.49955   0.37908   0.00000  Uiso   1.00
H9     H     0.12031   0.49955   0.37543   0.00000  Uiso   1.00
H10    H     0.18961   0.49954   0.37409   0.00000  Uiso   1.00
H11    H     0.18883   0.50094   0.80668   0.00000  Uiso   1.00
H12    H     0.31099   0.49924   0.28417   0.00000  Uiso   1.00
H13    H     0.31021   0.50064   0.71677   0.00000  Uiso   1.00
H14    H     0.37951   0.50064   0.71544   0.00000  Uiso   1.00
H15    H     0.24952   0.50059   0.69797   0.00000  Uiso   1.00
H16    H     0.25030   0.49960   0.39286   0.00000  Uiso   1.00
C45    C     0.32005   0.68011   0.60727   0.00000  Uiso   1.00
C46    C     0.34811   0.65199   0.49547   0.00000  Uiso   1.00
C47    C     0.01523   0.98488   0.60002   0.00000  Uiso   1.00
C48    C     0.98796   0.01211   0.47861   0.00000  Uiso   1.00
C49    C     0.93445   0.06560   0.47750   0.00000  Uiso   1.00
C50    C     0.90663   0.09344   0.59832   0.00000  Uiso   1.00
C51    C     0.93398   0.06613   0.71942   0.00000  Uiso   1.00
C52    C     0.98744   0.01269   0.72045   0.00000  Uiso   1.00
C53    C     0.84965   0.15040   0.60479   0.00000  Uiso   1.00
C54    C     0.81831   0.18170   0.49791   0.00000  Uiso   1.00
C55    C     0.73397   0.26597   0.38330   0.00000  Uiso   1.00
C56    C     0.76132   0.23866   0.50440   0.00000  Uiso   1.00
C57    C     0.73351   0.26650   0.62522   0.00000  Uiso   1.00
C58    C     0.68000   0.31999   0.62411   0.00000  Uiso   1.00
C59    C     0.65273   0.34722   0.50271   0.00000  Uiso   1.00
C60    C     0.68052   0.31941   0.38228   0.00000  Uiso   1.00
H17    H     0.00836   0.99170   0.38444   0.00000  Uiso   1.00
H18    H     0.91572   0.08430   0.38146   0.00000  Uiso   1.00
H19    H     0.91389   0.08624   0.81404   0.00000  Uiso   1.00
H20    H     0.75406   0.24587   0.28867   0.00000  Uiso   1.00
H21    H     0.75224   0.24780   0.72126   0.00000  Uiso   1.00
H22    H     0.65961   0.34040   0.71829   0.00000  Uiso   1.00
H23    H     0.83349   0.16658   0.70390   0.00000  Uiso   1.00
H24    H     0.83447   0.16552   0.39879   0.00000  Uiso   1.00
C61    C     0.82074   0.67973   0.47597   0.00000  Uiso   1.00
C62    C     0.84814   0.65230   0.58895   0.00000  Uiso   1.00
C63    C     0.51346   0.98464   0.51267   0.00000  Uiso   1.00
C64    C     0.48562   0.01261   0.63291   0.00000  Uiso   1.00
C65    C     0.43234   0.06610   0.63176   0.00000  Uiso   1.00
C66    C     0.40533   0.09319   0.50978   0.00000  Uiso   1.00
C67    C     0.43325   0.06514   0.38985   0.00000  Uiso   1.00
C68    C     0.48648   0.01170   0.39108   0.00000  Uiso   1.00
C69    C     0.34864   0.15010   0.50089   0.00000  Uiso   1.00
C70    C     0.31682   0.18206   0.60644   0.00000  Uiso   1.00
C71    C     0.23221   0.26703   0.71746   0.00000  Uiso   1.00
C72    C     0.26013   0.23897   0.59754   0.00000  Uiso   1.00
C73    C     0.23312   0.26606   0.47554   0.00000  Uiso   1.00
C74    C     0.17984   0.31955   0.47439   0.00000  Uiso   1.00
C75    C     0.15201   0.34752   0.59462   0.00000  Uiso   1.00
C76    C     0.17898   0.32046   0.71622   0.00000  Uiso   1.00
H25    H     0.50540   0.99278   0.72793   0.00000  Uiso   1.00
H26    H     0.41315   0.08539   0.72699   0.00000  Uiso   1.00
H27    H     0.41378   0.08466   0.29439   0.00000  Uiso   1.00
H28    H     0.25168   0.24751   0.81293   0.00000  Uiso   1.00
H29    H     0.25232   0.24677   0.38031   0.00000  Uiso   1.00
H30    H     0.16008   0.33937   0.37936   0.00000  Uiso   1.00
H31    H     0.33311   0.16567   0.40111   0.00000  Uiso   1.00
H32    H     0.33235   0.16649   0.70622   0.00000  Uiso   1.00
C77    C     0.55197   0.83375   0.50682   0.00000  Uiso   1.00
C78    C     0.53122   0.83402   0.62801   0.00000  Uiso   1.00
C79    C     0.49140   0.83381   0.62870   0.00000  Uiso   1.00
C80    C     0.47116   0.83333   0.50766   0.00000  Uiso   1.00
C81    C     0.49196   0.83307   0.38679   0.00000  Uiso   1.00
C82    C     0.53174   0.83327   0.38618   0.00000  Uiso   1.00
C83    C     0.42878   0.83309   0.50074   0.00000  Uiso   1.00
C84    C     0.40506   0.83329   0.60737   0.00000  Uiso   1.00
C85    C     0.34187   0.83331   0.72130   0.00000  Uiso   1.00
C86    C     0.36268   0.83305   0.60043   0.00000  Uiso   1.00
C87    C     0.34244   0.83257   0.47938   0.00000  Uiso   1.00
C88    C     0.30262   0.83236   0.48007   0.00000  Uiso   1.00
C89    C     0.28187   0.83263   0.60125   0.00000  Uiso   1.00
C90    C     0.30209   0.83311   0.72190   0.00000  Uiso   1.00
H33    H     0.54605   0.83439   0.72234   0.00000  Uiso   1.00
H34    H     0.47710   0.83404   0.72458   0.00000  Uiso   1.00
H35    H     0.47737   0.83269   0.29201   0.00000  Uiso   1.00
H36    H     0.35647   0.83368   0.81609   0.00000  Uiso   1.00
H37    H     0.35674   0.83234   0.38350   0.00000  Uiso   1.00
H38    H     0.28780   0.83199   0.38574   0.00000  Uiso   1.00
H39    H     0.41713   0.83272   0.40150   0.00000  Uiso   1.00
H40    H     0.41671   0.83366   0.70661   0.00000  Uiso   1.00
C91    C     0.78457   0.82983   0.51696   0.00000  Uiso   1.00
C92    C     0.80481   0.83033   0.63760   0.00000  Uiso   1.00
C93    C     0.84462   0.83055   0.63724   0.00000  Uiso   1.00
C94    C     0.86537   0.83026   0.51567   0.00000  Uiso   1.00
C95    C     0.84508   0.82976   0.39533   0.00000  Uiso   1.00
C96    C     0.80530   0.82955   0.39577   0.00000  Uiso   1.00
C97    C     0.90777   0.83046   0.50762   0.00000  Uiso   1.00
C98    C     0.93105   0.83093   0.61363   0.00000  Uiso   1.00
C99    C     0.99376   0.83163   0.72590   0.00000  Uiso   1.00
C100   C     0.97346   0.83113   0.60557   0.00000  Uiso   1.00
C101   C     0.99421   0.83085   0.48398   0.00000  Uiso   1.00
C102   C     0.03402   0.83106   0.48361   0.00000  Uiso   1.00
C103   C     0.05426   0.83156   0.60425   0.00000  Uiso   1.00
C104   C     0.03353   0.83185   0.72544   0.00000  Uiso   1.00
H41    H     0.78959   0.83056   0.73233   0.00000  Uiso   1.00
H42    H     0.85852   0.83093   0.73275   0.00000  Uiso   1.00
H43    H     0.86007   0.82953   0.30016   0.00000  Uiso   1.00
H44    H     0.97877   0.83186   0.82107   0.00000  Uiso   1.00
H45    H     0.98031   0.83046   0.38847   0.00000  Uiso   1.00
H46    H     0.04924   0.83084   0.38888   0.00000  Uiso   1.00
H47    H     0.91985   0.83020   0.40807   0.00000  Uiso   1.00
H48    H     0.91898   0.83119   0.71318   0.00000  Uiso   1.00
O33    O     0.88206   0.50109   0.82513   0.00000  Uiso   1.00
Li1    Li    0.86656   0.50159   0.98797   0.00000  Uiso   1.00
O34    O     0.61750   0.49935   0.26569   0.00000  Uiso   1.00
Li2    Li    0.63300   0.49885   0.10285   0.00000  Uiso   1.00
O35    O     0.11586   0.50100   0.82516   0.00000  Uiso   1.00
Li3    Li    0.13034   0.50153   0.98801   0.00000  Uiso   1.00
O36    O     0.38397   0.49918   0.26571   0.00000  Uiso   1.00
Li4    Li    0.36949   0.49865   0.10286   0.00000  Uiso   1.00
O37    O     0.01131   0.98886   0.83426   0.00000  Uiso   1.00
Li5    Li    0.99088   0.00933   0.99675   0.00000  Uiso   1.00
O38    O     0.65664   0.34325   0.26848   0.00000  Uiso   1.00
Li6    Li    0.67707   0.32278   0.10598   0.00000  Uiso   1.00
O39    O     0.51089   0.98717   0.27830   0.00000  Uiso   1.00
Li7    Li    0.49147   0.00663   0.11496   0.00000  Uiso   1.00
O40    O     0.15457   0.34500   0.82900   0.00000  Uiso   1.00
Li8    Li    0.17399   0.32554   0.99233   0.00000  Uiso   1.00
O41    O     0.54994   0.83302   0.27256   0.00000  Uiso   1.00
Li9    Li    0.53534   0.83244   0.10992   0.00000  Uiso   1.00
O42    O     0.28390   0.83336   0.83551   0.00000  Uiso   1.00
Li10   Li    0.29849   0.83394   0.99816   0.00000  Uiso   1.00
O43    O     0.78758   0.82909   0.28263   0.00000  Uiso   1.00
Li11   Li    0.80286   0.82864   0.11960   0.00000  Uiso   1.00
O44    O     0.05125   0.83231   0.83858   0.00000  Uiso   1.00
Li12   Li    0.03598   0.83276   0.00162   0.00000  Uiso   1.00
Cl1    Cl    0.35028   0.64996   0.76457   0.00000  Uiso   1.00
Cl2    Cl    0.31789   0.68214   0.33818   0.00000  Uiso   1.00
Cl3    Cl    0.85168   0.64861   0.31998   0.00000  Uiso   1.00
Cl4    Cl    0.81720   0.68342   0.74495   0.00000  Uiso   1.00
