# Generated by REPEAT Assigner based on pymatgen
data_DB1-Zn2O8N2-irmof14_A-irmof6_A_No138
_audit_creation_date              2022-05-24
_audit_creation_method            REPEAT_Assigner
_cell_length_a                    11.005200
_cell_length_b                    26.102200
_cell_length_c                    14.421900
_cell_angle_alpha                 90.040800
_cell_angle_beta                  89.880700
_cell_angle_gamma                 89.777600
_cell_volume                      4142.792741
_symmetry_space_group_name_H-M    P1
_symmetry_Int_Tables_number       1
loop_
    _symmetry_equiv_pos_site_id
    _symmetry_equiv_pos_as_xyz
    1  x,y,z
loop_
    _atom_site_type_symbol
    _atom_site_label
    _atom_site_fract_x
    _atom_site_fract_y
    _atom_site_fract_z
    _atom_type_partial_charge
    O   O1    0.501130  0.426120  0.594150  -0.601339
    O   O2    0.500520  0.426120  0.405680  -0.561914
    C   C1    0.500760  0.400090  0.499930  0.490885
    Zn  Zn1   0.500000  0.500010  0.614940  0.892534
    O   O3    0.675200  0.500020  0.405590  -0.474350
    O   O4    0.675280  0.500090  0.594070  -0.287123
    C   C2    0.737010  0.500030  0.499860  0.288892
    O   O5    0.499100  0.573900  0.405850  -0.310803
    O   O6    0.499260  0.573890  0.594320  -0.481345
    C   C3    0.499140  0.599930  0.500070  0.293384
    Zn  Zn2   0.500010  0.500010  0.385060  0.898818
    O   O7    0.324810  0.499890  0.594410  -0.552958
    O   O8    0.324730  0.500010  0.405930  -0.613782
    C   C4    0.263000  0.499810  0.500140  0.544579
    O   O9    0.500150  0.995510  0.405910  -0.604610
    O   O10   0.499850  0.995500  0.594380  -0.565427
    C   C5    0.499870  0.021530  0.500130  0.458147
    Zn  Zn3   0.499200  0.921620  0.385120  0.903394
    O   O11   0.674750  0.921120  0.593750  -0.537801
    O   O12   0.674520  0.921050  0.405270  -0.304390
    C   C6    0.736400  0.920940  0.499220  0.360149
    O   O13   0.498860  0.847730  0.594220  -0.569052
    O   O14   0.498710  0.847730  0.405750  -0.498033
    C   C7    0.498820  0.821700  0.499990  0.422178
    Zn  Zn4   0.499590  0.921620  0.615000  0.987118
    O   O15   0.324040  0.922220  0.406380  -0.557199
    O   O16   0.324270  0.922090  0.594860  -0.584479
    C   C8    0.262390  0.922470  0.500910  0.544762
    C   C9    0.576960  0.467790  0.800770  -0.199990
    C   C10   0.573200  0.469370  0.897810  0.145740
    C   C11   0.648270  0.437930  0.951290  -0.022064
    H   H1    0.630050  0.445560  0.770380  0.183721
    C   C12   0.423050  0.532230  0.801110  -0.274320
    C   C13   0.426820  0.530650  0.898130  0.230593
    C   C14   0.351750  0.562080  0.951930  -0.033084
    H   H2    0.369960  0.554450  0.770950  0.186168
    C   C15   0.423060  0.532230  0.199220  -0.320896
    C   C16   0.426830  0.530650  0.102190  0.267341
    C   C17   0.351750  0.562080  0.048710  -0.125773
    H   H3    0.369980  0.554450  0.229620  0.236637
    C   C18   0.576980  0.467790  0.198890  -0.244499
    C   C19   0.573210  0.469360  0.101870  0.187123
    C   C20   0.648280  0.437930  0.048070  -0.012513
    H   H4    0.630070  0.445560  0.229050  0.173313
    N   N1    0.500000  0.500010  0.750160  0.173215
    C   C21   0.500010  0.500010  0.954230  -0.030233
    N   N2    0.500020  0.500000  0.249840  0.193066
    C   C22   0.500020  0.500010  0.045770  -0.063409
    C   C23   0.498900  0.766750  0.500010  0.054362
    C   C24   0.499060  0.654880  0.500050  0.049586
    C   C25   0.499000  0.738770  0.573260  0.084047
    C   C26   0.498960  0.682860  0.426810  0.058853
    C   C27   0.499080  0.682930  0.573280  0.071361
    C   C28   0.498880  0.738700  0.426790  -0.194780
    C   C29   0.499090  0.737630  0.677410  -0.081790
    C   C30   0.499170  0.684170  0.677430  -0.136260
    H   H5    0.498850  0.756160  0.358400  0.149301
    H   H6    0.578810  0.756420  0.707870  0.060704
    H   H7    0.419420  0.756900  0.707640  0.056266
    H   H8    0.419500  0.665410  0.708230  0.066222
    H   H9    0.578890  0.664940  0.707340  0.088425
    C   C31   0.500310  0.320750  0.417370  -0.165269
    C   C32   0.500190  0.267140  0.421450  0.118018
    C   C33   0.499860  0.237460  0.340890  -0.021293
    H   H10   0.500160  0.337450  0.360390  0.117829
    C   C34   0.500840  0.320840  0.582570  -0.154692
    C   C35   0.500700  0.267230  0.578550  0.092749
    C   C36   0.500890  0.237640  0.659150  0.008155
    H   H11   0.501070  0.337600  0.639540  0.130452
    C   C37   0.500320  0.100870  0.582690  -0.187515
    C   C38   0.500440  0.154480  0.578610  0.117525
    C   C39   0.500770  0.184160  0.659170  -0.015681
    H   H12   0.500470  0.084180  0.639670  0.124022
    C   C40   0.499790  0.100780  0.417490  -0.165013
    C   C41   0.499930  0.154390  0.421510  0.083964
    C   C42   0.499740  0.183980  0.340920  0.017566
    H   H13   0.499560  0.084020  0.360520  0.132695
    C   C43   0.500640  0.348850  0.499960  0.060287
    C   C44   0.500370  0.236100  0.500020  -0.010724
    C   C45   0.499990  0.072770  0.500100  0.099219
    C   C46   0.500260  0.185520  0.500040  -0.005905
    C   C47   0.132680  0.499870  0.500070  -0.065672
    C   C48   0.867330  0.499970  0.499930  0.047717
    C   C49   0.066490  0.499860  0.426800  0.127920
    C   C50   0.933520  0.499980  0.573200  0.045864
    C   C51   0.934050  0.499920  0.426730  0.073808
    C   C52   0.065960  0.499920  0.573270  -0.141196
    C   C53   0.064050  0.499830  0.322650  -0.022680
    C   C54   0.937250  0.499880  0.322580  -0.176321
    H   H14   0.107220  0.499950  0.641680  0.140319
    H   H15   0.108720  0.533410  0.292040  0.023556
    H   H16   0.109790  0.466210  0.292600  0.051421
    H   H17   0.892790  0.466270  0.291920  0.068477
    H   H18   0.891730  0.533480  0.292500  0.093258
    C   C55   0.575770  0.953620  0.198970  -0.189331
    C   C56   0.571850  0.952060  0.101950  0.134703
    C   C57   0.646750  0.983280  0.048170  -0.013788
    H   H19   0.628840  0.975700  0.229140  0.187551
    C   C58   0.422040  0.889610  0.199270  -0.186850
    C   C59   0.425650  0.891180  0.102240  0.175743
    C   C60   0.350580  0.859960  0.048750  -0.013215
    H   H20   0.369070  0.867530  0.229660  0.156425
    C   C61   0.421410  0.889610  0.801160  -0.266491
    C   C62   0.425330  0.891180  0.898180  0.254179
    C   C63   0.350430  0.859960  0.951960  -0.126804
    H   H21   0.368340  0.867540  0.770990  0.205341
    C   C64   0.575140  0.953630  0.800860  -0.200702
    C   C65   0.571530  0.952060  0.897890  0.170736
    C   C66   0.646600  0.983280  0.951380  -0.023418
    H   H22   0.628110  0.975710  0.770480  0.178948
    N   N3    0.498990  0.921620  0.249900  0.150572
    C   C67   0.498660  0.921620  0.045840  -0.011801
    N   N4    0.498190  0.921620  0.750230  0.088387
    C   C68   0.498520  0.921620  0.954290  -0.050908
    C   C69   0.132070  0.920010  0.497380  -0.066590
    C   C70   0.866730  0.920630  0.498610  -0.018150
    C   C71   0.066000  0.920190  0.570920  0.089358
    C   C72   0.932790  0.920450  0.425070  0.053096
    C   C73   0.933560  0.920510  0.571540  0.127663
    C   C74   0.065230  0.920140  0.424450  -0.115976
    C   C75   0.063730  0.920240  0.675090  -0.075061
    C   C76   0.936930  0.920540  0.675670  -0.132789
    H   H23   0.106380  0.920000  0.355880  0.130508
    H   H24   0.108550  0.886530  0.705510  0.052636
    H   H25   0.109430  0.953730  0.704940  0.060804
    H   H26   0.892430  0.954270  0.706520  0.060188
    H   H27   0.891550  0.887060  0.705950  0.067688
    Cl  Cl1   0.748510  0.395970  0.105470  -0.040341
    Cl  Cl2   0.748500  0.395970  0.893450  0.006009
    Cl  Cl3   0.251520  0.604040  0.106550  0.030790
    Cl  Cl4   0.251520  0.604040  0.894530  -0.028644
    Cl  Cl5   0.499310  0.152090  0.233350  -0.075115
    Cl  Cl6   0.499590  0.269240  0.233290  -0.056708
    Cl  Cl7   0.501040  0.152380  0.766770  -0.058522
    Cl  Cl8   0.501320  0.269530  0.766710  -0.071294
    Cl  Cl9   0.746620  0.024970  0.893570  -0.037245
    Cl  Cl10  0.746950  0.024970  0.105590  0.013093
    Cl  Cl11  0.250230  0.818270  0.894550  -0.008860
    Cl  Cl12  0.250560  0.818270  0.106560  0.007861
    O   O17   0.578370  0.613890  0.312420  -0.260223
    O   O18   0.419360  0.679230  0.258140  -0.349554
    N   N5    0.498900  0.658470  0.331700  0.242092
    O   O19   0.769700  0.533560  0.687370  -0.276634
    O   O20   0.924470  0.466540  0.742030  -0.353038
    N   N6    0.875440  0.500030  0.668290  0.245807
    O   O21   0.768890  0.887320  0.311580  -0.275288
    O   O22   0.923370  0.953920  0.256280  -0.361376
    N   N7    0.874560  0.920560  0.330230  0.255002
