# Generated by REPEAT Assigner based on pymatgen
data_DB1-Cu2O8N2-DPAC_A-irmof6_A_No149
_audit_creation_date              2022-05-24
_audit_creation_method            REPEAT_Assigner
_cell_length_a                    28.176800
_cell_length_b                    17.372200
_cell_length_c                    15.850000
_cell_angle_alpha                 89.994400
_cell_angle_beta                  89.993100
_cell_angle_gamma                 89.866200
_cell_volume                      7758.442881
_symmetry_space_group_name_H-M    P1
_symmetry_Int_Tables_number       1
loop_
    _symmetry_equiv_pos_site_id
    _symmetry_equiv_pos_as_xyz
    1  x,y,z
loop_
    _atom_site_type_symbol
    _atom_site_label
    _atom_site_fract_x
    _atom_site_fract_y
    _atom_site_fract_z
    _atom_type_partial_charge
    Cu  Cu1   0.500010  0.500000  0.419710  0.826993
    Cu  Cu2   0.500000  0.499990  0.580290  0.774962
    O   O1    0.561710  0.499970  0.425120  -0.470448
    O   O2    0.438170  0.500250  0.425130  -0.458899
    O   O3    0.499880  0.600300  0.425120  -0.487213
    O   O4    0.500010  0.399920  0.425130  -0.493153
    O   O5    0.500110  0.399690  0.574880  -0.418764
    O   O6    0.500010  0.600070  0.574870  -0.522333
    O   O7    0.438240  0.500120  0.574880  -0.455683
    O   O8    0.561830  0.499720  0.574870  -0.346944
    C   C1    0.589010  0.499820  0.500000  0.373681
    C   C2    0.410990  0.500160  0.500010  0.505471
    C   C3    0.499950  0.644360  0.499990  0.589263
    C   C4    0.500060  0.355630  0.500010  0.559023
    Cu  Cu3   0.883460  0.499440  0.580300  0.768682
    Cu  Cu4   0.883460  0.499990  0.419720  0.863178
    O   O9    0.821750  0.499520  0.574890  -0.345118
    O   O10   0.945290  0.499610  0.574880  -0.455659
    O   O11   0.883350  0.599760  0.575290  -0.527472
    O   O12   0.883690  0.399380  0.574490  -0.436611
    O   O13   0.883590  0.399660  0.424730  -0.532989
    O   O14   0.883220  0.600040  0.425530  -0.503206
    O   O15   0.945220  0.500010  0.425130  -0.455667
    O   O16   0.821630  0.499780  0.425140  -0.472168
    C   C5    0.794450  0.499670  0.500010  0.374792
    C   C6    0.972470  0.499750  0.500000  0.502138
    C   C7    0.883180  0.644080  0.500590  0.596904
    C   C8    0.883740  0.355340  0.499430  0.587167
    N   N1    0.500010  0.500000  0.300380  -0.115912
    C   C9    0.469540  0.549480  0.253920  0.044914
    C   C10   0.469440  0.549620  0.165080  0.073392
    C   C11   0.500000  0.499990  0.120060  -0.110447
    C   C12   0.530560  0.450370  0.165070  0.068665
    C   C13   0.530470  0.450520  0.253910  0.043400
    C   C14   0.499990  0.500000  0.037720  -0.066383
    C   C15   0.499990  0.500000  0.962280  0.111668
    C   C16   0.499990  0.499990  0.879950  -0.334309
    C   C17   0.469420  0.549600  0.834930  0.149111
    C   C18   0.469510  0.549450  0.746080  0.019590
    N   N2    0.499990  0.499990  0.699620  -0.186320
    C   C19   0.530470  0.450530  0.746080  0.116381
    C   C20   0.530560  0.450380  0.834930  0.226474
    C   C21   0.500040  0.274060  0.500010  -0.249239
    C   C22   0.499980  0.231680  0.423450  -0.022081
    C   C23   0.499960  0.150620  0.423220  0.094257
    C   C24   0.500010  0.109530  0.499990  -0.122725
    C   C25   0.500070  0.150590  0.576780  0.054812
    C   C26   0.500090  0.231650  0.576560  0.062350
    C   C27   0.500000  0.034410  0.499990  -0.000474
    C   C28   0.499990  0.965580  0.499980  -0.010568
    C   C29   0.499980  0.890460  0.499980  -0.146608
    C   C30   0.499900  0.849390  0.423200  0.118931
    C   C31   0.499890  0.768330  0.423430  -0.028669
    C   C32   0.499950  0.725930  0.499990  -0.227626
    C   C33   0.500030  0.768320  0.576540  -0.033032
    C   C34   0.500040  0.849380  0.576770  0.119931
    C   C35   0.743550  0.499710  0.500010  0.032764
    C   C36   0.639910  0.499790  0.500000  0.040013
    C   C37   0.717600  0.499840  0.433370  -0.014409
    C   C38   0.665860  0.499650  0.566640  -0.002895
    C   C39   0.665870  0.499880  0.433370  -0.019060
    C   C40   0.717590  0.499620  0.566640  0.003522
    C   C41   0.716510  0.500010  0.338600  -0.004447
    C   C42   0.666980  0.500040  0.338600  -0.002319
    H   H1    0.734060  0.449540  0.310640  0.011083
    H   H2    0.734190  0.550510  0.311350  0.039519
    H   H3    0.649430  0.550610  0.310820  0.037320
    H   H4    0.649310  0.449630  0.311140  0.014661
    C   C43   0.022760  0.499800  0.500010  -0.186035
    C   C44   0.048890  0.499750  0.576560  -0.034464
    C   C45   0.098870  0.499800  0.576790  0.120834
    C   C46   0.124200  0.499910  0.500020  -0.165138
    C   C47   0.098880  0.499970  0.423230  0.125783
    C   C48   0.048910  0.499920  0.423460  -0.051217
    C   C49   0.170510  0.499960  0.500020  0.001262
    C   C50   0.212950  0.500000  0.500030  -0.001392
    C   C51   0.259260  0.500040  0.500020  -0.163554
    C   C52   0.284590  0.500000  0.576800  0.121907
    C   C53   0.334560  0.500050  0.576570  -0.038088
    C   C54   0.360700  0.500130  0.500010  -0.188246
    C   C55   0.334570  0.500170  0.423460  -0.048227
    C   C56   0.284590  0.500120  0.423240  0.124095
    N   N3    0.883450  0.502470  0.699640  -0.181903
    C   C57   0.913800  0.551740  0.746290  0.020236
    C   C58   0.913900  0.551580  0.835130  0.148529
    C   C59   0.883460  0.501840  0.879960  -0.335034
    C   C60   0.853020  0.452420  0.834750  0.227146
    C   C61   0.853100  0.452870  0.745910  0.109152
    C   C62   0.883470  0.501560  0.962300  0.113211
    C   C63   0.883470  0.501300  0.037730  -0.068401
    C   C64   0.883470  0.501020  0.120070  -0.105856
    C   C65   0.913920  0.550420  0.165280  0.070383
    C   C66   0.913830  0.549970  0.254120  0.047971
    N   N4    0.883470  0.500390  0.300390  -0.124178
    C   C67   0.853110  0.451140  0.253740  0.048882
    C   C68   0.853020  0.451300  0.164890  0.065562
    C   C69   0.881630  0.273770  0.503040  -0.260846
    C   C70   0.881790  0.231120  0.579430  0.057625
    C   C71   0.882000  0.150060  0.579340  0.058164
    C   C72   0.882040  0.109240  0.502400  -0.118421
    C   C73   0.881880  0.150570  0.425780  0.099167
    C   C74   0.881680  0.231630  0.426320  -0.026520
    C   C75   0.882230  0.034120  0.502120  -0.007051
    C   C76   0.882400  0.965290  0.501860  -0.006655
    C   C77   0.882580  0.890170  0.501560  -0.150290
    C   C78   0.882760  0.848840  0.578180  0.124570
    C   C79   0.882950  0.767780  0.577630  -0.042138
    C   C80   0.882980  0.725650  0.500910  -0.225619
    C   C81   0.882810  0.768300  0.424520  -0.030260
    C   C82   0.882610  0.849360  0.424610  0.123131
    C   C83   0.435290  0.605100  0.300690  -0.471967
    H   H5    0.442510  0.657230  0.285320  0.147116
    H   H6    0.439030  0.598870  0.360500  0.162896
    H   H7    0.403150  0.593600  0.285150  0.151091
    C   C84   0.564730  0.394900  0.300660  -0.337157
    H   H8    0.557510  0.342770  0.285320  0.094500
    H   H9    0.561000  0.401130  0.360480  0.129627
    H   H10   0.596870  0.406390  0.285100  0.135490
    C   C85   0.564710  0.394910  0.117840  -0.109205
    H   H11   0.596890  0.406500  0.133010  0.038169
    H   H12   0.560740  0.401190  0.058080  0.057863
    H   H13   0.557610  0.342740  0.133230  0.045246
    C   C86   0.435290  0.605080  0.117870  -0.083710
    H   H14   0.403110  0.593490  0.133070  0.036105
    H   H15   0.439250  0.598800  0.058110  0.043751
    H   H16   0.442390  0.657250  0.133240  0.038264
    C   C87   0.435260  0.605040  0.882140  -0.077885
    H   H17   0.442440  0.657230  0.866950  0.037775
    H   H18   0.439120  0.598600  0.941910  0.035131
    H   H19   0.403090  0.593570  0.866770  0.030492
    C   C88   0.564720  0.394940  0.882150  -0.233423
    H   H20   0.557540  0.342750  0.866970  0.049721
    H   H21   0.560850  0.401380  0.941910  0.059740
    H   H22   0.596890  0.406400  0.866760  0.103410
    C   C89   0.564730  0.394920  0.699330  -0.006548
    H   H23   0.596880  0.406590  0.714680  0.052543
    H   H24   0.560890  0.400990  0.639510  0.048062
    H   H25   0.557610  0.342800  0.714880  -0.052523
    C   C90   0.435250  0.605050  0.699330  -0.452396
    H   H26   0.403100  0.593390  0.714690  0.141585
    H   H27   0.439090  0.598990  0.639510  0.167213
    H   H28   0.442370  0.657170  0.714870  0.136407
    C   C91   0.499920  0.274350  0.337390  -0.028219
    H   H29   0.527750  0.260220  0.306000  0.041868
    H   H30   0.499870  0.328920  0.346910  0.072580
    H   H31   0.472110  0.260290  0.306030  0.013939
    C   C92   0.500160  0.274300  0.662630  -0.133985
    H   H32   0.472320  0.260400  0.694010  0.042765
    H   H33   0.500230  0.328870  0.653110  0.012716
    H   H34   0.527960  0.259990  0.693980  0.102198
    C   C93   0.500130  0.107500  0.662590  -0.180284
    H   H35   0.528010  0.121230  0.693920  0.047854
    H   H36   0.500040  0.052970  0.652740  0.080587
    H   H37   0.472370  0.121640  0.694160  0.068201
    C   C94   0.499890  0.107550  0.337400  -0.193410
    H   H38   0.472020  0.121530  0.306070  0.073682
    H   H39   0.499960  0.053020  0.347230  0.070465
    H   H40   0.527650  0.121470  0.305830  0.054515
    C   C95   0.499820  0.892480  0.337390  -0.213487
    H   H41   0.527650  0.878510  0.305900  0.077433
    H   H42   0.499770  0.947000  0.347230  0.078298
    H   H43   0.472010  0.878560  0.305970  0.058843
    C   C96   0.500120  0.892450  0.662580  -0.184565
    H   H44   0.472290  0.878710  0.694060  0.052484
    H   H45   0.500190  0.946980  0.652740  0.060095
    H   H46   0.527930  0.878310  0.694000  0.075312
    C   C97   0.500100  0.725660  0.662610  -0.069696
    H   H47   0.527990  0.739550  0.693840  0.014858
    H   H48   0.500020  0.671080  0.653090  0.120744
    H   H49   0.472350  0.739950  0.694110  0.044536
    C   C98   0.499800  0.725680  0.337370  -0.049176
    H   H50   0.471920  0.739800  0.306140  0.037554
    H   H51   0.499880  0.671100  0.346890  0.083461
    H   H52   0.527560  0.739750  0.305860  0.021831
    C   C99   0.022580  0.499630  0.662630  -0.065225
    H   H53   0.031300  0.454420  0.693890  0.022372
    H   H54   0.988940  0.499720  0.653110  0.092806
    H   H55   0.031240  0.544660  0.694110  0.041629
    C   C100  0.022610  0.499990  0.337390  -0.010933
    H   H56   0.031170  0.545210  0.306130  0.028628
    H   H57   0.988960  0.499820  0.346900  0.064285
    H   H58   0.031440  0.454970  0.305910  0.011852
    C   C101  0.125450  0.500090  0.337420  -0.211454
    H   H59   0.116990  0.454940  0.305970  0.075596
    H   H60   0.159070  0.500230  0.347270  0.076119
    H   H61   0.116720  0.545180  0.305970  0.059794
    C   C102  0.125420  0.499730  0.662610  -0.201309
    H   H62   0.116790  0.544870  0.694060  0.058412
    H   H63   0.159040  0.499660  0.652770  0.071134
    H   H64   0.116850  0.454630  0.694060  0.074463
    C   C103  0.258020  0.499910  0.662610  -0.203975
    H   H65   0.266640  0.454720  0.693980  0.074536
    H   H66   0.224400  0.500010  0.652780  0.073213
    H   H67   0.266590  0.544960  0.694160  0.058792
    C   C104  0.258030  0.500170  0.337430  -0.208348
    H   H68   0.266500  0.545380  0.306060  0.059661
    H   H69   0.224420  0.500020  0.347270  0.074259
    H   H70   0.266770  0.455140  0.305880  0.074632
    C   C105  0.360870  0.500260  0.337390  -0.014027
    H   H71   0.352320  0.455100  0.306040  0.013159
    H   H72   0.394520  0.500400  0.346910  0.067015
    H   H73   0.352050  0.545340  0.306010  0.027823
    C   C106  0.360860  0.500000  0.662630  -0.052441
    H   H74   0.352140  0.545150  0.693990  0.038605
    H   H75   0.394510  0.499920  0.653110  0.086661
    H   H76   0.352190  0.454910  0.694020  0.020403
    C   C107  0.947930  0.607470  0.699740  -0.470036
    H   H77   0.940580  0.659560  0.715310  0.144294
    H   H78   0.944200  0.601450  0.639900  0.171055
    H   H79   0.980090  0.595870  0.715230  0.144430
    C   C108  0.818970  0.397460  0.698950  0.023214
    H   H80   0.826320  0.345270  0.714080  -0.066508
    H   H81   0.822690  0.403900  0.639150  0.049607
    H   H82   0.786810  0.408950  0.714550  0.047586
    C   C109  0.819000  0.396850  0.881760  -0.236148
    H   H83   0.786790  0.408540  0.866640  0.104992
    H   H84   0.822950  0.402910  0.941550  0.059185
    H   H85   0.826210  0.344720  0.866170  0.050587
    C   C110  0.947930  0.606820  0.882560  -0.071016
    H   H86   0.980140  0.595230  0.867310  0.029566
    H   H87   0.943980  0.600350  0.942300  0.033132
    H   H88   0.940710  0.659060  0.867390  0.035307
    C   C111  0.947960  0.605970  0.118280  -0.077083
    H   H89   0.940660  0.658120  0.133680  0.037423
    H   H90   0.944110  0.599750  0.058500  0.040635
    H   H91   0.980160  0.594410  0.133610  0.034678
    C   C112  0.818980  0.396070  0.117460  -0.107500
    H   H92   0.826280  0.343820  0.132430  0.045251
    H   H93   0.822840  0.402710  0.057720  0.057987
    H   H94   0.786790  0.407520  0.132890  0.037329
    C   C113  0.818970  0.395420  0.300270  -0.361602
    H   H95   0.786800  0.407180  0.284970  0.143774
    H   H96   0.822800  0.401280  0.360110  0.141594
    H   H97   0.826210  0.343340  0.284510  0.099092
    C   C114  0.947970  0.605360  0.301100  -0.481769
    H   H98   0.980140  0.593700  0.285690  0.153982
    H   H99   0.944140  0.599090  0.360890  0.164837
    H   H100  0.940730  0.657540  0.285760  0.148613
    C   C115  0.881750  0.273500  0.665660  -0.104994
    H   H101  0.853950  0.259310  0.696990  0.098452
    H   H102  0.881680  0.328110  0.656350  0.007594
    H   H103  0.909590  0.259290  0.696950  0.035765
    C   C116  0.881510  0.274570  0.340420  -0.043402
    H   H104  0.909380  0.260740  0.308980  0.015041
    H   H105  0.881310  0.329110  0.350150  0.097550
    H   H106  0.853740  0.260410  0.309010  0.041982
    C   C117  0.881930  0.107770  0.339800  -0.194959
    H   H107  0.854020  0.121650  0.308530  0.055223
    H   H108  0.882140  0.053210  0.349430  0.068639
    H   H109  0.909650  0.121980  0.308280  0.074129
    C   C118  0.882170  0.106700  0.664990  -0.189079
    H   H110  0.910010  0.120530  0.696370  0.070034
    H   H111  0.882220  0.052210  0.654940  0.086228
    H   H112  0.854370  0.120560  0.696620  0.048334
    C   C119  0.882730  0.891630  0.664160  -0.187034
    H   H113  0.854940  0.877600  0.695590  0.076143
    H   H114  0.882660  0.946190  0.654530  0.058771
    H   H115  0.910580  0.877570  0.695520  0.052846
    C   C120  0.882430  0.892730  0.338970  -0.222298
    H   H116  0.910290  0.879050  0.307430  0.060552
    H   H117  0.882230  0.947220  0.349030  0.082674
    H   H118  0.854650  0.878730  0.307500  0.079125
    C   C121  0.882840  0.725930  0.338290  -0.049323
    H   H119  0.854920  0.739970  0.307110  0.021419
    H   H120  0.883050  0.671320  0.347590  0.086033
    H   H121  0.910560  0.740290  0.306840  0.037936
    C   C122  0.883140  0.724830  0.663530  -0.055649
    H   H122  0.910990  0.738810  0.694810  0.042026
    H   H123  0.883190  0.670290  0.653790  0.120264
    H   H124  0.855350  0.738840  0.695090  0.011054
    Br  Br1   0.634870  0.499490  0.685550  -0.162450
    Br  Br2   0.748560  0.499330  0.685560  -0.167868
