# Generated by REPEAT Assigner based on pymatgen
data_DB1-Cu2O8-AZO_A-irmof6_A_No337
_audit_creation_date              2022-05-24
_audit_creation_method            REPEAT_Assigner
_cell_length_a                    10.804600
_cell_length_b                    34.497600
_cell_length_c                    10.000000
_cell_angle_alpha                 90.000000
_cell_angle_beta                  90.000000
_cell_angle_gamma                 90.093900
_cell_volume                      3727.322684
_symmetry_space_group_name_H-M    P1
_symmetry_Int_Tables_number       1
loop_
    _symmetry_equiv_pos_site_id
    _symmetry_equiv_pos_as_xyz
    1  x,y,z
loop_
    _atom_site_type_symbol
    _atom_site_label
    _atom_site_fract_x
    _atom_site_fract_y
    _atom_site_fract_z
    _atom_type_partial_charge
    Cu  Cu1  0.500000  0.500000  0.627260  1.120266
    Cu  Cu2  0.500020  0.500000  0.372740  1.115755
    O   O1   0.660930  0.499970  0.618690  -0.280099
    O   O2   0.338750  0.499920  0.618670  -0.582463
    O   O3   0.499660  0.449490  0.618680  -0.650116
    O   O4   0.500020  0.550400  0.618680  -0.621476
    O   O5   0.500320  0.550510  0.381320  -0.624799
    O   O6   0.500040  0.449610  0.381320  -0.621088
    O   O7   0.338950  0.499980  0.381310  -0.565105
    O   O8   0.661270  0.500100  0.381330  -0.524920
    C   C1   0.732130  0.500030  0.500010  0.381183
    C   C2   0.267890  0.499970  0.499990  0.593978
    C   C3   0.499850  0.427300  0.500000  0.630159
    C   C4   0.500170  0.572700  0.500000  0.667578
    Cu  Cu3  0.500500  0.000000  0.275020  1.044274
    Cu  Cu4  0.499880  0.000000  0.529530  1.088998
    O   O9   0.661400  0.000190  0.284050  -0.306123
    O   O10  0.339220  0.999930  0.283140  -0.588603
    O   O11  0.500140  0.050510  0.283590  -0.532420
    O   O12  0.500490  0.949610  0.283590  -0.508574
    O   O13  0.500190  0.949490  0.520950  -0.639343
    O   O14  0.499930  0.050400  0.520960  -0.630583
    O   O15  0.338840  0.999870  0.520490  -0.570117
    O   O16  0.661150  0.000070  0.521410  -0.536315
    C   C5   0.732310  0.000210  0.402940  0.362965
    C   C6   0.268060  0.999800  0.401620  0.559177
    C   C7   0.500040  0.072700  0.402280  0.658369
    C   C8   0.500340  0.927300  0.402280  0.700225
    C   C9   0.500330  0.884040  0.402270  -0.277787
    C   C10  0.500180  0.863130  0.523420  -0.233767
    C   C11  0.500170  0.822500  0.523100  -0.153894
    C   C12  0.500320  0.801940  0.401820  -0.003434
    C   C13  0.500470  0.822550  0.281220  0.264693
    C   C14  0.500480  0.863170  0.281080  0.511724
    N   N1   0.500320  0.760320  0.398240  0.000295
    N   N2   0.500190  0.739680  0.504030  -0.170895
    C   C15  0.500040  0.677450  0.621060  -0.050235
    C   C16  0.500190  0.698060  0.500460  0.159942
    C   C17  0.500340  0.677510  0.379170  -0.040051
    C   C18  0.500330  0.636870  0.378850  0.049618
    C   C19  0.500180  0.615970  0.500000  -0.017433
    C   C20  0.500030  0.636840  0.621200  0.068569
    H   H1   0.500060  0.878420  0.617990  0.145138
    H   H2   0.500060  0.806980  0.617030  0.043542
    H   H3   0.499920  0.693030  0.714970  -0.180824
    H   H4   0.500450  0.693030  0.285250  -0.273044
    C   C21  0.500040  0.115970  0.402270  -0.236427
    C   C22  0.499840  0.136870  0.523420  -0.258034
    C   C23  0.499840  0.177510  0.523100  -0.144049
    C   C24  0.500030  0.198060  0.401820  -0.014112
    C   C25  0.500220  0.177450  0.281220  0.270692
    C   C26  0.500230  0.136840  0.281080  0.484428
    N   N3   0.500030  0.239680  0.398240  0.009339
    N   N4   0.499860  0.260320  0.504030  -0.170986
    C   C27  0.499660  0.322550  0.621050  -0.011120
    C   C28  0.499860  0.301940  0.500460  0.135156
    C   C29  0.500050  0.322500  0.379170  -0.009017
    C   C30  0.500050  0.363130  0.378850  0.004448
    C   C31  0.499850  0.384040  0.500000  0.037206
    C   C32  0.499660  0.363170  0.621200  0.013511
    H   H5   0.499690  0.121580  0.617990  0.152157
    H   H6   0.499680  0.193030  0.617030  0.043178
    H   H7   0.499520  0.306980  0.714970  -0.193989
    H   H8   0.500200  0.306980  0.285250  -0.281007
    C   C33  0.135140  0.499990  0.499990  -0.023132
    C   C34  0.864880  0.500020  0.500000  0.108603
    C   C35  0.067450  0.500050  0.394380  0.025586
    C   C36  0.932570  0.499950  0.605620  -0.160178
    C   C37  0.932560  0.500070  0.394380  -0.017506
    C   C38  0.067460  0.499940  0.605610  -0.160982
    C   C39  0.064580  0.500130  0.244170  0.057981
    C   C40  0.935420  0.500150  0.244180  0.064033
    H   H9   0.109740  0.499860  0.704240  0.119109
    H   H10  0.110040  0.474720  0.199830  0.003198
    H   H11  0.110980  0.525570  0.200970  -0.001383
    H   H12  0.889960  0.525610  0.200160  0.012122
    H   H13  0.889020  0.474760  0.200660  0.007043
    C   C41  0.135320  0.000650  0.404120  -0.002096
    C   C42  0.865050  0.000360  0.403330  0.126492
    C   C43  0.067360  0.000520  0.509540  0.044298
    C   C44  0.933000  0.000490  0.297910  -0.182249
    C   C45  0.932470  0.000370  0.509150  -0.010368
    C   C46  0.067900  0.000640  0.298310  -0.167383
    C   C47  0.064120  0.000440  0.659740  -0.015813
    C   C48  0.934960  0.000300  0.659360  0.033833
    H   H14  0.110420  0.000750  0.199810  0.121022
    H   H15  0.109470  0.025900  0.704210  0.032137
    H   H16  0.110410  0.975050  0.703080  0.028789
    H   H17  0.889380  0.974790  0.703240  0.030220
    H   H18  0.888460  0.025640  0.702750  0.025808
    O   O17  0.500620  0.881520  0.167770  -0.822619
    Li  Li1  0.500820  0.866350  0.004860  0.870357
    O   O18  0.500610  0.803870  0.168560  -0.863386
    Li  Li2  0.500660  0.755580  0.129420  0.733787
    O   O19  0.499890  0.618480  0.734510  -0.524189
    Li  Li3  0.499690  0.633650  0.897410  0.593163
    O   O20  0.500470  0.618540  0.265500  -0.509099
    Li  Li4  0.500670  0.633750  0.102630  0.573963
    O   O21  0.500410  0.118490  0.167770  -0.812056
    Li  Li5  0.500670  0.133650  0.004860  0.867280
    O   O22  0.500400  0.196140  0.168560  -0.860711
    Li  Li6  0.500460  0.244420  0.129420  0.726303
    O   O23  0.499480  0.381520  0.734510  -0.496665
    Li  Li7  0.499220  0.366350  0.897410  0.578384
    O   O24  0.500230  0.381460  0.265490  -0.488312
    Li  Li8  0.500490  0.366260  0.102630  0.560690
    C   C49  0.873510  0.499890  0.743380  0.559368
    O   O25  0.931390  0.482900  0.844660  -0.475405
    O   O26  0.770970  0.514680  0.759840  -0.440613
    H   H19  0.019030  0.476770  0.815210  0.322358
    C   C50  0.874290  0.000490  0.159980  0.582515
    O   O27  0.932430  0.017540  0.058870  -0.483071
    O   O28  0.771790  0.985590  0.143220  -0.437460
    H   H20  0.020000  0.023760  0.088570  0.331916
