data_DB1-Cu2O8N2-irmof7_A-pmof1_A_No17_repeat
_audit_creation_date              2024-02-20
_audit_creation_method            'Materials Studio'
_symmetry_space_group_name_H-M    'P1'
_symmetry_Int_Tables_number       1
_symmetry_cell_setting            triclinic
loop_
_symmetry_equiv_pos_as_xyz
  x,y,z
_cell_length_a                    16.4229
_cell_length_b                    23.6231
_cell_length_c                    8.9366
_cell_angle_alpha                 90.0001
_cell_angle_beta                  89.4937
_cell_angle_gamma                 45.9572
loop_
_atom_site_label
_atom_site_type_symbol
_atom_site_fract_x
_atom_site_fract_y
_atom_site_fract_z
_atom_site_U_iso_or_equiv
_atom_site_adp_type
_atom_site_occupancy
Cu1    Cu    0.49999   0.50000   0.35759   0.00000  Uiso   1.00
Cu2    Cu    0.49999   0.50000   0.64240   0.00000  Uiso   1.00
O1     O     0.35273   0.57277   0.36959   0.00000  Uiso   1.00
O2     O     0.64756   0.42724   0.36480   0.00000  Uiso   1.00
O3     O     0.50319   0.57220   0.36714   0.00000  Uiso   1.00
O4     O     0.49710   0.42782   0.36724   0.00000  Uiso   1.00
O5     O     0.49683   0.42778   0.63285   0.00000  Uiso   1.00
O6     O     0.50285   0.57220   0.63275   0.00000  Uiso   1.00
O7     O     0.64738   0.42724   0.63040   0.00000  Uiso   1.00
O8     O     0.35242   0.57274   0.63519   0.00000  Uiso   1.00
C1     C     0.28757   0.60487   0.50345   0.00000  Uiso   1.00
C2     C     0.71241   0.39513   0.49655   0.00000  Uiso   1.00
C3     C     0.50429   0.60407   0.49993   0.00000  Uiso   1.00
C4     C     0.49569   0.39593   0.50007   0.00000  Uiso   1.00
N1     N     0.49999   0.50000   0.14595   0.00000  Uiso   1.00
C5     C     0.57482   0.49972   0.06815   0.00000  Uiso   1.00
C6     C     0.42517   0.50028   0.07058   0.00000  Uiso   1.00
C7     C     0.64791   0.49945   0.14788   0.00000  Uiso   1.00
C8     C     0.72360   0.49917   0.07469   0.00000  Uiso   1.00
H1     H     0.64594   0.49946   0.25182   0.00000  Uiso   1.00
H2     H     0.77215   0.49899   0.12795   0.00000  Uiso   1.00
N2     N     0.49999   0.50000   0.85404   0.00000  Uiso   1.00
C9     C     0.42517   0.50028   0.93185   0.00000  Uiso   1.00
C10    C     0.57482   0.49972   0.92942   0.00000  Uiso   1.00
C11    C     0.64791   0.49945   0.84731   0.00000  Uiso   1.00
C12    C     0.72360   0.49917   0.91804   0.00000  Uiso   1.00
H3     H     0.64593   0.49946   0.74344   0.00000  Uiso   1.00
H4     H     0.77215   0.49899   0.86321   0.00000  Uiso   1.00
C13    C     0.98090   0.76061   0.63727   0.00000  Uiso   1.00
C14    C     0.50040   0.75858   0.36478   0.00000  Uiso   1.00
C15    C     0.01589   0.24093   0.63307   0.00000  Uiso   1.00
C16    C     0.50278   0.23989   0.36489   0.00000  Uiso   1.00
C17    C     0.01909   0.23939   0.36273   0.00000  Uiso   1.00
C18    C     0.49959   0.24142   0.63523   0.00000  Uiso   1.00
C19    C     0.98409   0.75907   0.36694   0.00000  Uiso   1.00
C20    C     0.49721   0.76011   0.63511   0.00000  Uiso   1.00
H5     H     0.93420   0.78386   0.74193   0.00000  Uiso   1.00
H6     H     0.50169   0.78068   0.25992   0.00000  Uiso   1.00
H7     H     0.06011   0.21887   0.73813   0.00000  Uiso   1.00
H8     H     0.50396   0.21659   0.26003   0.00000  Uiso   1.00
H9     H     0.06578   0.21614   0.25807   0.00000  Uiso   1.00
H10    H     0.49830   0.21932   0.74008   0.00000  Uiso   1.00
H11    H     0.93987   0.78113   0.26188   0.00000  Uiso   1.00
H12    H     0.49602   0.78341   0.73997   0.00000  Uiso   1.00
C21    C     0.09937   0.70097   0.63791   0.00000  Uiso   1.00
C22    C     0.50145   0.69882   0.36464   0.00000  Uiso   1.00
C23    C     0.89742   0.30057   0.63268   0.00000  Uiso   1.00
C24    C     0.50173   0.29965   0.36478   0.00000  Uiso   1.00
C25    C     0.90062   0.29903   0.36209   0.00000  Uiso   1.00
C26    C     0.49854   0.30118   0.63536   0.00000  Uiso   1.00
C27    C     0.10256   0.69944   0.36733   0.00000  Uiso   1.00
C28    C     0.49825   0.70036   0.63522   0.00000  Uiso   1.00
H13    H     0.14221   0.67924   0.74386   0.00000  Uiso   1.00
H14    H     0.50335   0.67585   0.25888   0.00000  Uiso   1.00
H15    H     0.85208   0.32349   0.73825   0.00000  Uiso   1.00
H16    H     0.50232   0.32142   0.25902   0.00000  Uiso   1.00
H17    H     0.85777   0.32076   0.25614   0.00000  Uiso   1.00
H18    H     0.49663   0.32415   0.74112   0.00000  Uiso   1.00
H19    H     0.14790   0.67651   0.26175   0.00000  Uiso   1.00
H20    H     0.49766   0.67858   0.74098   0.00000  Uiso   1.00
N3     N     0.62144   0.87868   0.50052   0.00000  Uiso   1.00
N4     N     0.37855   0.12132   0.49949   0.00000  Uiso   1.00
C29    C     0.74129   0.82784   0.50104   0.00000  Uiso   1.00
C30    C     0.60351   0.82770   0.50042   0.00000  Uiso   1.00
C31    C     0.25869   0.17216   0.49896   0.00000  Uiso   1.00
C32    C     0.39648   0.17230   0.49958   0.00000  Uiso   1.00
C33    C     0.79474   0.74586   0.50126   0.00000  Uiso   1.00
C34    C     0.71412   0.74578   0.50090   0.00000  Uiso   1.00
C35    C     0.20524   0.25414   0.49874   0.00000  Uiso   1.00
C36    C     0.28586   0.25422   0.49910   0.00000  Uiso   1.00
H21    H     0.88461   0.69336   0.50165   0.00000  Uiso   1.00
H22    H     0.72945   0.69320   0.50096   0.00000  Uiso   1.00
H23    H     0.11538   0.30664   0.49835   0.00000  Uiso   1.00
H24    H     0.27053   0.30680   0.49904   0.00000  Uiso   1.00
C37    C     0.74020   0.93568   0.50106   0.00000  Uiso   1.00
C38    C     0.38893   0.93532   0.49949   0.00000  Uiso   1.00
C39    C     0.25979   0.06433   0.49894   0.00000  Uiso   1.00
C40    C     0.61105   0.06469   0.50051   0.00000  Uiso   1.00
C41    C     0.79694   0.95961   0.50132   0.00000  Uiso   1.00
C42    C     0.28442   0.95909   0.49903   0.00000  Uiso   1.00
C43    C     0.20304   0.04039   0.49868   0.00000  Uiso   1.00
C44    C     0.71557   0.04091   0.50097   0.00000  Uiso   1.00
H25    H     0.88765   0.92235   0.50171   0.00000  Uiso   1.00
H26    H     0.26842   0.92172   0.49895   0.00000  Uiso   1.00
H27    H     0.11233   0.07765   0.49829   0.00000  Uiso   1.00
H28    H     0.73156   0.07828   0.50105   0.00000  Uiso   1.00
C45    C     0.79700   0.85124   0.50129   0.00000  Uiso   1.00
C46    C     0.50111   0.85094   0.49997   0.00000  Uiso   1.00
C47    C     0.20299   0.14876   0.49871   0.00000  Uiso   1.00
C48    C     0.49887   0.14906   0.50003   0.00000  Uiso   1.00
C49    C     0.92263   0.78970   0.50184   0.00000  Uiso   1.00
C50    C     0.49882   0.78927   0.49995   0.00000  Uiso   1.00
C51    C     0.07735   0.21030   0.49816   0.00000  Uiso   1.00
C52    C     0.50116   0.21073   0.50005   0.00000  Uiso   1.00
C53    C     0.16180   0.66931   0.50288   0.00000  Uiso   1.00
C54    C     0.50092   0.66864   0.49993   0.00000  Uiso   1.00
C55    C     0.83818   0.33069   0.49712   0.00000  Uiso   1.00
C56    C     0.49906   0.33136   0.50007   0.00000  Uiso   1.00
N5     N     0.62745   0.00013   0.50057   0.00000  Uiso   1.00
N6     N     0.37253   0.99987   0.49943   0.00000  Uiso   1.00
H29    H     0.56508   0.00007   0.50029   0.00000  Uiso   1.00
H30    H     0.43490   0.99993   0.49971   0.00000  Uiso   1.00
H31    H     0.30024   0.53924   0.74805   0.00000  Uiso   1.00
H32    H     0.33325   0.46213   0.88259   0.00000  Uiso   1.00
N7     N     0.34589   0.50057   0.84664   0.00000  Uiso   1.00
H33    H     0.37722   0.46196   0.25718   0.00000  Uiso   1.00
H34    H     0.25628   0.53940   0.12408   0.00000  Uiso   1.00
N8     N     0.34589   0.50057   0.15836   0.00000  Uiso   1.00
