data_DB1-Cu2N8-ADC_B-DPAC_B_No1350_repeat
_audit_creation_date              2024-02-23
_audit_creation_method            'Materials Studio'
_symmetry_space_group_name_H-M    'P1'
_symmetry_Int_Tables_number       1
_symmetry_cell_setting            triclinic
loop_
_symmetry_equiv_pos_as_xyz
  x,y,z
_cell_length_a                    20.7814
_cell_length_b                    39.2883
_cell_length_c                    7.0528
_cell_angle_alpha                 89.9989
_cell_angle_beta                  89.9952
_cell_angle_gamma                 58.0590
loop_
_atom_site_label
_atom_site_type_symbol
_atom_site_fract_x
_atom_site_fract_y
_atom_site_fract_z
_atom_site_U_iso_or_equiv
_atom_site_adp_type
_atom_site_occupancy
Cu1    Cu    0.50000   0.50000  -0.00000   0.00000  Uiso   1.00
Cu2    Cu    0.50000   0.50000   0.50000   0.00000  Uiso   1.00
N1     N     0.41479   0.54229   0.15622   0.00000  Uiso   1.00
N2     N     0.35220   0.57404   0.09293   0.00000  Uiso   1.00
N3     N     0.49939   0.45771   0.34380   0.00000  Uiso   1.00
N4     N     0.50031   0.42596   0.40711   0.00000  Uiso   1.00
N5     N     0.58521   0.45771   0.65618   0.00000  Uiso   1.00
N6     N     0.64780   0.42596   0.59287   0.00000  Uiso   1.00
N7     N     0.50061   0.54229   0.84380   0.00000  Uiso   1.00
N8     N     0.49969   0.57404   0.90709   0.00000  Uiso   1.00
N9     N     0.58521   0.45771   0.84378   0.00000  Uiso   1.00
N10    N     0.64780   0.42596   0.90707   0.00000  Uiso   1.00
N11    N     0.50061   0.54229   0.65620   0.00000  Uiso   1.00
N12    N     0.49969   0.57404   0.59289   0.00000  Uiso   1.00
N13    N     0.41479   0.54229   0.34382   0.00000  Uiso   1.00
N14    N     0.35220   0.57404   0.40713   0.00000  Uiso   1.00
N15    N     0.49939   0.45771   0.15621   0.00000  Uiso   1.00
N16    N     0.50031   0.42596   0.09291   0.00000  Uiso   1.00
C1     C     0.31460   0.59283   0.25003   0.00000  Uiso   1.00
C2     C     0.50029   0.40717   0.25001   0.00000  Uiso   1.00
C3     C     0.68541   0.40717   0.74997   0.00000  Uiso   1.00
C4     C     0.49972   0.59283   0.74999   0.00000  Uiso   1.00
Cu3    Cu    0.50009   0.99998   0.00012   0.00000  Uiso   1.00
Cu4    Cu    0.50000  -0.00000   0.50012   0.00000  Uiso   1.00
N17    N     0.58526   0.95769   0.15639   0.00000  Uiso   1.00
N18    N     0.64786   0.92593   0.09315   0.00000  Uiso   1.00
N19    N     0.50066   0.04228   0.34394   0.00000  Uiso   1.00
N20    N     0.49975   0.07403   0.40726   0.00000  Uiso   1.00
N21    N     0.41477   0.04230   0.65625   0.00000  Uiso   1.00
N22    N     0.35220   0.07405   0.59290   0.00000  Uiso   1.00
N23    N     0.49930   0.95773   0.84390   0.00000  Uiso   1.00
N24    N     0.50020   0.92598   0.90719   0.00000  Uiso   1.00
N25    N     0.41474   0.04231   0.84385   0.00000  Uiso   1.00
N26    N     0.35214   0.07407   0.90710   0.00000  Uiso   1.00
N27    N     0.49934   0.95772   0.65630   0.00000  Uiso   1.00
N28    N     0.50025   0.92597   0.59299   0.00000  Uiso   1.00
N29    N     0.58523   0.95770   0.34399   0.00000  Uiso   1.00
N30    N     0.64781   0.92594   0.40735   0.00000  Uiso   1.00
N31    N     0.50070   0.04227   0.15634   0.00000  Uiso   1.00
N32    N     0.49981   0.07402   0.09306   0.00000  Uiso   1.00
C5     C     0.68543   0.90715   0.25028   0.00000  Uiso   1.00
C6     C     0.49981   0.09280   0.25016   0.00000  Uiso   1.00
C7     C     0.31457   0.09285   0.74997   0.00000  Uiso   1.00
C8     C     0.50019   0.90719   0.75008   0.00000  Uiso   1.00
C9     C     0.50013   0.87114   0.75006   0.00000  Uiso   1.00
C10    C     0.50012   0.85241   0.57801   0.00000  Uiso   1.00
C11    C     0.50006   0.81658   0.57748   0.00000  Uiso   1.00
C12    C     0.50001   0.79843   0.75002   0.00000  Uiso   1.00
C13    C     0.50002   0.81658   0.92259   0.00000  Uiso   1.00
C14    C     0.50007   0.85241   0.92210   0.00000  Uiso   1.00
C15    C     0.49996   0.76523   0.75000   0.00000  Uiso   1.00
C16    C     0.49991   0.73480   0.74998   0.00000  Uiso   1.00
C17    C     0.49986   0.70160   0.74999   0.00000  Uiso   1.00
C18    C     0.49983   0.68345   0.57744   0.00000  Uiso   1.00
C19    C     0.49978   0.64762   0.57794   0.00000  Uiso   1.00
C20    C     0.49976   0.62888   0.74999   0.00000  Uiso   1.00
C21    C     0.49979   0.64762   0.92203   0.00000  Uiso   1.00
C22    C     0.49984   0.68345   0.92254   0.00000  Uiso   1.00
H1     H     0.50006   0.80401   0.45015   0.00000  Uiso   1.00
H2     H     0.49998   0.80402   0.04990   0.00000  Uiso   1.00
H3     H     0.49985   0.69602   0.45012   0.00000  Uiso   1.00
H4     H     0.49986   0.69602   0.04986   0.00000  Uiso   1.00
C23    C     0.49987   0.12886   0.25014   0.00000  Uiso   1.00
C24    C     0.49988   0.14759   0.07808   0.00000  Uiso   1.00
C25    C     0.49994   0.18342   0.07755   0.00000  Uiso   1.00
C26    C     0.49999   0.20157   0.25009   0.00000  Uiso   1.00
C27    C     0.49998   0.18341   0.42265   0.00000  Uiso   1.00
C28    C     0.49993   0.14759   0.42217   0.00000  Uiso   1.00
C29    C     0.50004   0.23477   0.25006   0.00000  Uiso   1.00
C30    C     0.50009   0.26520   0.25003   0.00000  Uiso   1.00
C31    C     0.50014   0.29840   0.25003   0.00000  Uiso   1.00
C32    C     0.50017   0.31655   0.07748   0.00000  Uiso   1.00
C33    C     0.50022   0.35238   0.07798   0.00000  Uiso   1.00
C34    C     0.50024   0.37112   0.25001   0.00000  Uiso   1.00
C35    C     0.50021   0.35238   0.42206   0.00000  Uiso   1.00
C36    C     0.50016   0.31655   0.42258   0.00000  Uiso   1.00
H5     H     0.49995   0.19599   0.95022   0.00000  Uiso   1.00
H6     H     0.50002   0.19598   0.54996   0.00000  Uiso   1.00
H7     H     0.50015   0.30398   0.95016   0.00000  Uiso   1.00
H8     H     0.50015   0.30398   0.54990   0.00000  Uiso   1.00
C37    C     0.75750   0.87118   0.25024   0.00000  Uiso   1.00
C38    C     0.79501   0.85245   0.07818   0.00000  Uiso   1.00
C39    C     0.86672   0.81662   0.07763   0.00000  Uiso   1.00
C40    C     0.90306   0.79845   0.25017   0.00000  Uiso   1.00
C41    C     0.86672   0.81660   0.42274   0.00000  Uiso   1.00
C42    C     0.79500   0.85243   0.42227   0.00000  Uiso   1.00
C43    C     0.96951   0.76524   0.25013   0.00000  Uiso   1.00
C44    C     0.03041   0.73482   0.25010   0.00000  Uiso   1.00
C45    C     0.09687   0.70161   0.25009   0.00000  Uiso   1.00
C46    C     0.13320   0.68345   0.07753   0.00000  Uiso   1.00
C47    C     0.20492   0.64762   0.07802   0.00000  Uiso   1.00
C48    C     0.24243   0.62888   0.25005   0.00000  Uiso   1.00
C49    C     0.20492   0.64762   0.42210   0.00000  Uiso   1.00
C50    C     0.13321   0.68345   0.42263   0.00000  Uiso   1.00
H9     H     0.89188   0.80405   0.95030   0.00000  Uiso   1.00
H10    H     0.89188   0.80402   0.55005   0.00000  Uiso   1.00
H11    H     0.10804   0.69602   0.95021   0.00000  Uiso   1.00
H12    H     0.10805   0.69602   0.54996   0.00000  Uiso   1.00
C51    C     0.24256   0.12886   0.74976   0.00000  Uiso   1.00
C52    C     0.20506   0.14760   0.92182   0.00000  Uiso   1.00
C53    C     0.13334   0.18342   0.92237   0.00000  Uiso   1.00
C54    C     0.09698   0.20157   0.74983   0.00000  Uiso   1.00
C55    C     0.13331   0.18341   0.57726   0.00000  Uiso   1.00
C56    C     0.20503   0.14759   0.57773   0.00000  Uiso   1.00
C57    C     0.03051   0.23477   0.74987   0.00000  Uiso   1.00
C58    C     0.96961   0.26519   0.74990   0.00000  Uiso   1.00
C59    C     0.90314   0.29840   0.74991   0.00000  Uiso   1.00
C60    C     0.86680   0.31655   0.92247   0.00000  Uiso   1.00
C61    C     0.79508   0.35238   0.92198   0.00000  Uiso   1.00
C62    C     0.75758   0.37112   0.74995   0.00000  Uiso   1.00
C63    C     0.79508   0.35238   0.57790   0.00000  Uiso   1.00
C64    C     0.86680   0.31655   0.57737   0.00000  Uiso   1.00
H13    H     0.10819   0.19599   0.04970   0.00000  Uiso   1.00
H14    H     0.10813   0.19598   0.44995   0.00000  Uiso   1.00
H15    H     0.89197   0.30398   0.04979   0.00000  Uiso   1.00
H16    H     0.89196   0.30398   0.45004   0.00000  Uiso   1.00
C65    C     0.50017   0.87126   0.38460   0.00000  Uiso   1.00
H17    H     0.54468   0.85259   0.31424   0.00000  Uiso   1.00
H18    H     0.50010   0.89541   0.40600   0.00000  Uiso   1.00
H19    H     0.45578   0.87742   0.31396   0.00000  Uiso   1.00
C66    C     0.50008   0.87127   0.11552   0.00000  Uiso   1.00
H20    H     0.45556   0.87755   0.18587   0.00000  Uiso   1.00
H21    H     0.50024   0.89535   0.09414   0.00000  Uiso   1.00
H22    H     0.54445   0.85256   0.18616   0.00000  Uiso   1.00
C67    C     0.49975   0.62877   0.38453   0.00000  Uiso   1.00
H23    H     0.45526   0.64743   0.31416   0.00000  Uiso   1.00
H24    H     0.49984   0.60461   0.40592   0.00000  Uiso   1.00
H25    H     0.54415   0.62260   0.31389   0.00000  Uiso   1.00
C68    C     0.49976   0.62876   0.11545   0.00000  Uiso   1.00
H26    H     0.54428   0.62249   0.18582   0.00000  Uiso   1.00
H27    H     0.49961   0.60467   0.09406   0.00000  Uiso   1.00
H28    H     0.45538   0.64747   0.18608   0.00000  Uiso   1.00
C69    C     0.49983   0.12874   0.88468   0.00000  Uiso   1.00
H29    H     0.45533   0.14740   0.81434   0.00000  Uiso   1.00
H30    H     0.49991   0.10459   0.90609   0.00000  Uiso   1.00
H31    H     0.54422   0.12258   0.81401   0.00000  Uiso   1.00
C70    C     0.49992   0.12873   0.61560   0.00000  Uiso   1.00
H32    H     0.54444   0.12245   0.68593   0.00000  Uiso   1.00
H33    H     0.49976   0.10464   0.59423   0.00000  Uiso   1.00
H34    H     0.45555   0.14744   0.68626   0.00000  Uiso   1.00
C71    C     0.50025   0.37123   0.88455   0.00000  Uiso   1.00
H35    H     0.54475   0.35257   0.81417   0.00000  Uiso   1.00
H36    H     0.50017   0.39539   0.90594   0.00000  Uiso   1.00
H37    H     0.45585   0.37740   0.81394   0.00000  Uiso   1.00
C72    C     0.50024   0.37124   0.61548   0.00000  Uiso   1.00
H38    H     0.45573   0.37751   0.68587   0.00000  Uiso   1.00
H39    H     0.50039   0.39533   0.59408   0.00000  Uiso   1.00
H40    H     0.54462   0.35253   0.68609   0.00000  Uiso   1.00
C73    C     0.75727   0.87132   0.88478   0.00000  Uiso   1.00
H41    H     0.78924   0.87759   0.81442   0.00000  Uiso   1.00
H42    H     0.70894   0.89541   0.90620   0.00000  Uiso   1.00
H43    H     0.75030   0.85262   0.81413   0.00000  Uiso   1.00
C74    C     0.75726   0.87128   0.61570   0.00000  Uiso   1.00
H44    H     0.75008   0.85262   0.68605   0.00000  Uiso   1.00
H45    H     0.70903   0.89544   0.59434   0.00000  Uiso   1.00
H46    H     0.78934   0.87743   0.68635   0.00000  Uiso   1.00
C75    C     0.24266   0.62876   0.88459   0.00000  Uiso   1.00
H47    H     0.21069   0.62249   0.81422   0.00000  Uiso   1.00
H48    H     0.29099   0.60467   0.90597   0.00000  Uiso   1.00
H49    H     0.24963   0.64747   0.81396   0.00000  Uiso   1.00
C76    C     0.24267   0.62876   0.61551   0.00000  Uiso   1.00
H50    H     0.24984   0.64742   0.68589   0.00000  Uiso   1.00
H51    H     0.29090   0.60461   0.59411   0.00000  Uiso   1.00
H52    H     0.21059   0.62260   0.68614   0.00000  Uiso   1.00
C77    C     0.24283   0.12874   0.11522   0.00000  Uiso   1.00
H53    H     0.25000   0.14740   0.18557   0.00000  Uiso   1.00
H54    H     0.29106   0.10459   0.09380   0.00000  Uiso   1.00
H55    H     0.21077   0.12258   0.18588   0.00000  Uiso   1.00
C78    C     0.24276   0.12873   0.38430   0.00000  Uiso   1.00
H56    H     0.21079   0.12245   0.31396   0.00000  Uiso   1.00
H57    H     0.29110   0.10464   0.40566   0.00000  Uiso   1.00
H58    H     0.24971   0.14744   0.31364   0.00000  Uiso   1.00
C79    C     0.75734   0.37123   0.11541   0.00000  Uiso   1.00
H59    H     0.75017   0.35257   0.18579   0.00000  Uiso   1.00
H60    H     0.70910   0.39539   0.09403   0.00000  Uiso   1.00
H61    H     0.78941   0.37739   0.18602   0.00000  Uiso   1.00
C80    C     0.75734   0.37124   0.38449   0.00000  Uiso   1.00
H62    H     0.78930   0.37751   0.31410   0.00000  Uiso   1.00
H63    H     0.70900   0.39533   0.40589   0.00000  Uiso   1.00
H64    H     0.75037   0.35253   0.31387   0.00000  Uiso   1.00
