# Generated by REPEAT Assigner based on pymatgen
data_DB1-Cu2O8-ADC_A-fum_A_No144
_audit_creation_date              2022-05-24
_audit_creation_method            REPEAT_Assigner
_cell_length_a                    34.996400
_cell_length_b                    43.660700
_cell_length_c                    10.000000
_cell_angle_alpha                 90.000000
_cell_angle_beta                  90.000000
_cell_angle_gamma                 36.857100
_cell_volume                      9165.073393
_symmetry_space_group_name_H-M    P1
_symmetry_Int_Tables_number       1
loop_
    _symmetry_equiv_pos_site_id
    _symmetry_equiv_pos_as_xyz
    1  x,y,z
loop_
    _atom_site_type_symbol
    _atom_site_label
    _atom_site_fract_x
    _atom_site_fract_y
    _atom_site_fract_z
    _atom_type_partial_charge
    Cu  Cu1   0.500330  0.499670  0.372740  1.101866
    Cu  Cu2   0.499670  0.500330  0.627260  1.127213
    O   O1    0.433920  0.566090  0.380140  -0.620244
    O   O2    0.566710  0.433170  0.382510  -0.495061
    O   O3    0.450660  0.499550  0.381330  -0.460656
    O   O4    0.549980  0.499700  0.381320  -0.461439
    O   O5    0.549360  0.500440  0.618670  -0.593801
    O   O6    0.450010  0.500320  0.618680  -0.592956
    O   O7    0.566080  0.433860  0.619860  -0.552631
    O   O8    0.433300  0.566840  0.617490  -0.519342
    C   C1    0.404310  0.595770  0.498300  0.587465
    C   C2    0.595680  0.404240  0.501700  0.416302
    C   C3    0.428400  0.499940  0.500010  0.418948
    C   C4    0.571600  0.500070  0.500000  0.418168
    Cu  Cu3   0.999240  0.500760  0.718120  1.102311
    Cu  Cu4   0.000150  0.499850  0.463610  1.127890
    O   O9    0.933100  0.567120  0.707910  -0.621235
    O   O10   0.065680  0.434210  0.711170  -0.496283
    O   O11   0.049200  0.500590  0.709550  -0.459480
    O   O12   0.949590  0.500740  0.709520  -0.463833
    O   O13   0.950210  0.500000  0.472170  -0.592103
    O   O14   0.049790  0.499900  0.472200  -0.594952
    O   O15   0.066400  0.433440  0.473820  -0.553659
    O   O16   0.933700  0.566410  0.470560  -0.520017
    C   C5    0.904190  0.596070  0.588510  0.586060
    C   C6    0.095200  0.404540  0.593210  0.418863
    C   C7    0.071420  0.500250  0.590880  0.419146
    C   C8    0.927970  0.500370  0.590840  0.420447
    Cu  Cu5   0.167870  0.832430  0.730000  1.103666
    Cu  Cu6   0.168260  0.831770  0.475490  1.128220
    O   O17   0.234240  0.766010  0.722600  -0.620972
    O   O18   0.101270  0.898930  0.720240  -0.496356
    O   O19   0.118210  0.832290  0.722070  -0.459507
    O   O20   0.217310  0.832660  0.720770  -0.464669
    O   O21   0.217900  0.831920  0.483420  -0.592440
    O   O22   0.118840  0.831520  0.484720  -0.594707
    O   O23   0.101770  0.898240  0.482890  -0.553689
    O   O24   0.234870  0.765260  0.485250  -0.521158
    C   C9    0.263850  0.736330  0.604440  0.590046
    C   C10   0.072270  0.927860  0.601040  0.415996
    C   C11   0.096710  0.831790  0.603680  0.419909
    C   C12   0.239420  0.832400  0.601800  0.422072
    Cu  Cu7   0.669610  0.831270  0.346810  1.023916
    Cu  Cu8   0.668960  0.832180  0.601320  1.083347
    O   O25   0.735780  0.764910  0.357020  -0.624434
    O   O26   0.603380  0.897820  0.353750  -0.431672
    O   O27   0.719490  0.831180  0.354760  -0.359805
    O   O28   0.619660  0.831550  0.356020  -0.393786
    O   O29   0.619060  0.832280  0.593370  -0.573756
    O   O30   0.718930  0.831880  0.592110  -0.569261
    O   O31   0.602800  0.898590  0.591100  -0.535109
    O   O32   0.735180  0.765620  0.594370  -0.501353
    C   C13   0.764690  0.735960  0.476420  0.581587
    C   C14   0.573880  0.927480  0.471710  0.367153
    C   C15   0.741260  0.831410  0.473160  0.347075
    C   C16   0.597320  0.832030  0.474970  0.379662
    C   C17   0.885300  0.500370  0.590830  0.099949
    C   C18   0.865060  0.499990  0.469920  -0.181133
    C   C19   0.825040  0.499990  0.469760  -0.175270
    C   C20   0.804070  0.500360  0.591070  0.234754
    C   C21   0.824370  0.500740  0.711670  -0.182227
    C   C22   0.864350  0.500740  0.711760  0.028939
    C   C23   0.761440  0.500380  0.598560  -0.245901
    C   C24   0.738130  0.500060  0.492230  -0.243840
    C   C25   0.675200  0.499700  0.379130  -0.185423
    C   C26   0.695500  0.500080  0.499740  0.238793
    C   C27   0.674530  0.500450  0.621060  -0.173201
    C   C28   0.634510  0.500450  0.620900  -0.180232
    C   C29   0.614270  0.500070  0.499990  0.101240
    C   C30   0.635210  0.499700  0.379060  0.028845
    H   H1    0.880450  0.499700  0.375390  0.167180
    H   H2    0.811150  0.499690  0.374060  0.123458
    H   H3    0.809210  0.501030  0.806650  0.102755
    H   H4    0.690350  0.499410  0.284150  0.102335
    H   H5    0.688410  0.500750  0.716750  0.122975
    H   H6    0.619120  0.500740  0.715430  0.166158
    H   H7    0.749210  0.500690  0.697950  0.172835
    H   H8    0.750350  0.499750  0.392840  0.173536
    C   C31   0.114100  0.500250  0.590870  0.099408
    C   C32   0.135100  0.499850  0.469960  -0.179841
    C   C33   0.175130  0.499850  0.469790  -0.172073
    C   C34   0.195330  0.500240  0.591090  0.238660
    C   C35   0.174270  0.500630  0.711710  -0.185464
    C   C36   0.134280  0.500640  0.711790  0.029749
    C   C37   0.237920  0.500260  0.598580  -0.246595
    C   C38   0.261900  0.499920  0.492260  -0.244479
    C   C39   0.325550  0.499550  0.379150  -0.180385
    C   C40   0.304490  0.499940  0.499760  0.234191
    C   C41   0.324690  0.500330  0.621070  -0.174658
    C   C42   0.364720  0.500330  0.620910  -0.182147
    C   C43   0.385730  0.499940  0.500000  0.102091
    C   C44   0.365540  0.499550  0.379080  0.026449
    H   H9    0.120310  0.499550  0.375430  0.165664
    H   H10   0.189610  0.499540  0.374090  0.122224
    H   H11   0.188830  0.500940  0.806680  0.102583
    H   H12   0.310990  0.499240  0.284170  0.101643
    H   H13   0.310210  0.500640  0.716770  0.123815
    H   H14   0.379510  0.500640  0.715440  0.167351
    H   H15   0.249520  0.500590  0.697970  0.174372
    H   H16   0.250300  0.499600  0.392860  0.173153
    C   C45   0.320050  0.680110  0.607270  -0.107241
    C   C46   0.348110  0.651990  0.495470  -0.105081
    C   C47   0.015230  0.984880  0.600020  0.137283
    C   C48   0.987960  0.012110  0.478610  -0.226374
    C   C49   0.934450  0.065600  0.477500  -0.157285
    C   C50   0.906630  0.093440  0.598320  0.239142
    C   C51   0.933980  0.066130  0.719420  -0.178874
    C   C52   0.987440  0.012690  0.720450  -0.008345
    C   C53   0.849650  0.150400  0.604790  -0.243588
    C   C54   0.818310  0.181700  0.497910  -0.249974
    C   C55   0.733970  0.265970  0.383300  -0.174704
    C   C56   0.761320  0.238660  0.504400  0.240923
    C   C57   0.733510  0.266500  0.625220  -0.158607
    C   C58   0.680000  0.319990  0.624110  -0.225570
    C   C59   0.652730  0.347220  0.502710  0.136730
    C   C60   0.680520  0.319410  0.382280  -0.011043
    H   H17   0.008360  0.991700  0.384440  0.175876
    H   H18   0.915720  0.084300  0.381460  0.119620
    H   H19   0.913890  0.086240  0.814040  0.104165
    H   H20   0.754060  0.245870  0.288670  0.103204
    H   H21   0.752240  0.247800  0.721260  0.120045
    H   H22   0.659610  0.340400  0.718290  0.175962
    H   H23   0.833490  0.166580  0.703900  0.173780
    H   H24   0.834470  0.165520  0.398790  0.175056
    C   C61   0.820740  0.679730  0.475970  -0.105891
    C   C62   0.848140  0.652300  0.588950  -0.104179
    C   C63   0.513460  0.984640  0.512670  0.181519
    C   C64   0.485620  0.012610  0.632910  -0.252176
    C   C65   0.432340  0.066100  0.631760  -0.135258
    C   C66   0.405330  0.093190  0.509780  0.218524
    C   C67   0.433250  0.065140  0.389850  -0.155507
    C   C68   0.486480  0.011700  0.391080  -0.042107
    C   C69   0.348640  0.150100  0.500890  -0.235601
    C   C70   0.316820  0.182060  0.606440  -0.255238
    C   C71   0.232210  0.267030  0.717460  -0.172324
    C   C72   0.260130  0.238970  0.597540  0.242617
    C   C73   0.233120  0.266060  0.475540  -0.165221
    C   C74   0.179840  0.319550  0.474390  -0.218412
    C   C75   0.152010  0.347520  0.594620  0.133929
    C   C76   0.178980  0.320460  0.716220  -0.012671
    H   H25   0.505400  0.992780  0.727930  0.180329
    H   H26   0.413150  0.085390  0.726990  0.120279
    H   H27   0.413780  0.084660  0.294390  0.093264
    H   H28   0.251680  0.247510  0.812930  0.101641
    H   H29   0.252320  0.246770  0.380310  0.123058
    H   H30   0.160080  0.339370  0.379360  0.172361
    H   H31   0.333110  0.165670  0.401110  0.173147
    H   H32   0.332350  0.166490  0.706220  0.176745
    C   C77   0.551970  0.833750  0.506820  0.121142
    C   C78   0.531220  0.834020  0.628010  -0.192964
    C   C79   0.491400  0.833810  0.628700  -0.157443
    C   C80   0.471160  0.833330  0.507660  0.224968
    C   C81   0.491960  0.833070  0.386790  -0.169732
    C   C82   0.531740  0.833270  0.386180  0.009911
    C   C83   0.428780  0.833090  0.500740  -0.241234
    C   C84   0.405060  0.833290  0.607370  -0.244601
    C   C85   0.341870  0.833310  0.721300  -0.175073
    C   C86   0.362680  0.833050  0.600430  0.229309
    C   C87   0.342440  0.832570  0.479380  -0.170897
    C   C88   0.302620  0.832360  0.480070  -0.184252
    C   C89   0.281870  0.832630  0.601250  0.102169
    C   C90   0.302090  0.833110  0.721900  0.025449
    H   H33   0.546050  0.834390  0.722340  0.169015
    H   H34   0.477100  0.834040  0.724580  0.122486
    H   H35   0.477370  0.832690  0.292010  0.096226
    H   H36   0.356470  0.833680  0.816090  0.100484
    H   H37   0.356740  0.832340  0.383500  0.122620
    H   H38   0.287800  0.831990  0.385740  0.168786
    H   H39   0.417130  0.832720  0.401500  0.174490
    H   H40   0.416710  0.833660  0.706610  0.173731
    C   C91   0.784570  0.829830  0.516960  0.170639
    C   C92   0.804810  0.830330  0.637600  -0.218060
    C   C93   0.844620  0.830550  0.637240  -0.149143
    C   C94   0.865370  0.830260  0.515670  0.211950
    C   C95   0.845080  0.829760  0.395330  -0.160689
    C   C96   0.805300  0.829550  0.395770  -0.010894
    C   C97   0.907770  0.830460  0.507620  -0.235480
    C   C98   0.931050  0.830930  0.613630  -0.248714
    C   C99   0.993760  0.831630  0.725900  -0.187571
    C   C100  0.973460  0.831130  0.605570  0.240077
    C   C101  0.994210  0.830850  0.483980  -0.176465
    C   C102  0.034020  0.831060  0.483610  -0.173489
    C   C103  0.054260  0.831560  0.604250  0.096723
    C   C104  0.033530  0.831850  0.725440  0.032354
    H   H41   0.789590  0.830560  0.732330  0.173158
    H   H42   0.858520  0.830930  0.732750  0.123700
    H   H43   0.860070  0.829530  0.300160  0.092658
    H   H44   0.978770  0.831860  0.821070  0.102328
    H   H45   0.980310  0.830460  0.388470  0.123242
    H   H46   0.049240  0.830840  0.388880  0.163572
    H   H47   0.919850  0.830200  0.408070  0.172634
    H   H48   0.918980  0.831190  0.713180  0.175373
    Cl  Cl1   0.888360  0.501220  0.865490  -0.068382
    Cl  Cl2   0.611200  0.499230  0.225340  -0.067390
    Cl  Cl3   0.109300  0.501130  0.865520  -0.068115
    Cl  Cl4   0.390530  0.499050  0.225350  -0.067185
    Cl  Cl5   0.019810  0.980380  0.874770  -0.059217
    Cl  Cl6   0.648140  0.351730  0.227970  -0.058703
    Cl  Cl7   0.519580  0.978430  0.238160  -0.068006
    Cl  Cl8   0.145880  0.353730  0.869140  -0.056679
    Cl  Cl9   0.556410  0.832930  0.232120  -0.078074
    Cl  Cl10  0.277420  0.833450  0.875950  -0.066981
    Cl  Cl11  0.781280  0.828920  0.242370  -0.081508
    Cl  Cl12  0.057560  0.832470  0.878850  -0.067432
    C   C105  0.346710  0.653520  0.746020  -0.004000
    H   H49   0.359210  0.663480  0.794690  0.029671
    H   H50   0.383010  0.617150  0.734010  0.037270
    H   H51   0.314410  0.663480  0.795140  0.027900
    C   C106  0.321450  0.678580  0.356730  -0.000759
    H   H52   0.353690  0.668740  0.307760  0.028042
    H   H53   0.285040  0.714950  0.368730  0.035861
    H   H54   0.309130  0.668500  0.307890  0.028006
    C   C107  0.848030  0.652280  0.338370  -0.004520
    H   H55   0.815950  0.661940  0.289280  0.028891
    H   H56   0.884270  0.615990  0.351920  0.038308
    H   H57   0.860740  0.661940  0.288840  0.028206
    C   C108  0.820850  0.679750  0.726550  -0.011215
    H   H58   0.807960  0.670200  0.775930  0.032871
    H   H59   0.784730  0.716040  0.713010  0.033359
    H   H60   0.852990  0.669970  0.775810  0.030168
