# Generated by REPEAT Assigner based on pymatgen
data_DB12-NOMQAJ01_clean
_audit_creation_date              2022-05-24
_audit_creation_method            REPEAT_Assigner
_cell_length_a                    15.364500
_cell_length_b                    15.127500
_cell_length_c                    8.311000
_cell_angle_alpha                 90.000000
_cell_angle_beta                  91.850000
_cell_angle_gamma                 90.000000
_cell_volume                      1930.689563
_symmetry_space_group_name_H-M    P1
_symmetry_Int_Tables_number       1
loop_
    _symmetry_equiv_pos_site_id
    _symmetry_equiv_pos_as_xyz
    1  x,y,z
loop_
    _atom_site_type_symbol
    _atom_site_label
    _atom_site_fract_x
    _atom_site_fract_y
    _atom_site_fract_z
    _atom_type_partial_charge
    C   C1   0.318910  0.085660  0.948500  0.454188
    H   H1   0.365400  0.116800  0.907500  0.038803
    C   C2   0.320460  0.993690  0.941800  -0.243664
    C   C3   0.248560  0.948270  0.998600  0.064178
    H   H2   0.246900  0.886900  0.993900  0.096384
    C   C4   0.179200  0.994660  0.062400  -0.258421
    C   C5   0.185640  0.086430  0.069600  0.450495
    H   H3   0.141200  0.118000  0.116500  0.046051
    C   C6   0.397080  0.946690  0.878900  0.160999
    C   C7   0.446770  0.984020  0.757800  -0.257722
    H   H4   0.431700  0.038900  0.714900  0.180108
    C   C8   0.518500  0.939010  0.702100  -0.063347
    H   H5   0.551000  0.964100  0.621400  0.109501
    C   C9   0.542620  0.857110  0.764500  -0.038030
    C   C10  0.493210  0.819800  0.884900  -0.126559
    H   H6   0.508800  0.765100  0.928200  0.118683
    C   C11  0.420890  0.863910  0.940200  -0.141566
    H   H7   0.387800  0.838000  0.019300  0.101909
    C   C12  0.622200  0.809320  0.709100  0.730063
    C   C13  0.099820  0.948910  0.117300  0.169977
    C   C14  0.050870  0.983050  0.242300  -0.270289
    H   H8   0.067400  0.035800  0.292000  0.178218
    C   C15  0.977690  0.938190  0.291900  -0.037339
    H   H9   0.945500  0.961200  0.375000  0.099549
    C   C16  0.951660  0.859210  0.219100  -0.051295
    C   C17  0.999980  0.825490  0.094500  -0.139433
    H   H10  0.983100  0.772800  0.045000  0.114981
    C   C18  0.073090  0.869730  0.043400  -0.123176
    H   H11  0.104600  0.846700  0.959500  0.098825
    C   C19  0.871290  0.811020  0.270400  0.761216
    N   N1   0.253310  0.131390  0.011610  -0.713712
    O   O1   0.832270  0.842310  0.388900  -0.668050
    O   O2   0.847790  0.742590  0.194900  -0.732127
    O   O3   0.659940  0.841460  0.589700  -0.656635
    O   O4   0.646500  0.740450  0.782200  -0.721522
    Zn  Zn1  0.254100  0.267280  0.012960  1.268743
    C   C20  0.681090  0.585660  0.551500  0.454105
    H   H12  0.634600  0.616800  0.592500  0.038817
    C   C21  0.679540  0.493690  0.558200  -0.243619
    C   C22  0.751440  0.448270  0.501400  0.064164
    H   H13  0.753100  0.386900  0.506100  0.096387
    C   C23  0.820800  0.494660  0.437600  -0.258435
    C   C24  0.814360  0.586430  0.430400  0.450539
    H   H14  0.858800  0.618000  0.383500  0.046023
    C   C25  0.602920  0.446690  0.621100  0.160994
    C   C26  0.553230  0.484020  0.742200  -0.257725
    H   H15  0.568300  0.538900  0.785100  0.180104
    C   C27  0.481500  0.439010  0.797900  -0.063334
    H   H16  0.449000  0.464100  0.878600  0.109502
    C   C28  0.457380  0.357110  0.735500  -0.038021
    C   C29  0.506790  0.319800  0.615100  -0.126573
    H   H17  0.491200  0.265100  0.571800  0.118688
    C   C30  0.579110  0.363910  0.559800  -0.141568
    H   H18  0.612200  0.338000  0.480700  0.101911
    C   C31  0.377800  0.309320  0.790900  0.730110
    C   C32  0.900180  0.448910  0.382700  0.169975
    C   C33  0.949130  0.483050  0.257700  -0.270277
    H   H19  0.932600  0.535800  0.208000  0.178227
    C   C34  0.022310  0.438190  0.208100  -0.037365
    H   H20  0.054500  0.461200  0.125000  0.099523
    C   C35  0.048340  0.359210  0.280900  -0.051162
    C   C36  0.000020  0.325490  0.405500  -0.139440
    H   H21  0.016900  0.272800  0.455000  0.114987
    C   C37  0.926910  0.369730  0.456600  -0.123196
    H   H22  0.895400  0.346700  0.540500  0.098830
    C   C38  0.128710  0.311020  0.229600  0.760932
    N   N2   0.746690  0.631390  0.488390  -0.713686
    O   O5   0.167730  0.342310  0.111100  -0.667877
    O   O6   0.152210  0.242590  0.305100  -0.732043
    O   O7   0.340060  0.341460  0.910300  -0.656698
    O   O8   0.353500  0.240450  0.717800  -0.721545
    Zn  Zn2  0.745900  0.767280  0.487040  1.268762
    C   C39  0.681090  0.914340  0.051500  0.454263
    H   H23  0.634600  0.883200  0.092500  0.038784
    C   C40  0.679540  0.006310  0.058200  -0.243665
    C   C41  0.751440  0.051730  0.001400  0.064207
    H   H24  0.753100  0.113100  0.006100  0.096377
    C   C42  0.820800  0.005340  0.937600  -0.258499
    C   C43  0.814360  0.913570  0.930400  0.450571
    H   H25  0.858800  0.882000  0.883500  0.046059
    C   C44  0.602920  0.053310  0.121100  0.160974
    C   C45  0.553230  0.015980  0.242200  -0.257717
    H   H26  0.568300  0.961100  0.285100  0.180103
    C   C46  0.481500  0.060990  0.297900  -0.063338
    H   H27  0.449000  0.035900  0.378600  0.109507
    C   C47  0.457380  0.142890  0.235500  -0.038022
    C   C48  0.506790  0.180200  0.115100  -0.126573
    H   H28  0.491200  0.234900  0.071800  0.118683
    C   C49  0.579110  0.136090  0.059800  -0.141551
    H   H29  0.612200  0.162000  0.980700  0.101907
    C   C50  0.377800  0.190680  0.290900  0.730113
    C   C51  0.900180  0.051090  0.882700  0.170036
    C   C52  0.949130  0.016950  0.757700  -0.270365
    H   H30  0.932600  0.964200  0.708000  0.178283
    C   C53  0.022310  0.061810  0.708100  -0.037368
    H   H31  0.054500  0.038800  0.625000  0.099517
    C   C54  0.048340  0.140790  0.780900  -0.051138
    C   C55  0.000020  0.174510  0.905500  -0.139438
    H   H32  0.016900  0.227200  0.955000  0.114987
    C   C56  0.926910  0.130270  0.956600  -0.123213
    H   H33  0.895400  0.153300  0.040500  0.098831
    C   C57  0.128710  0.188980  0.729600  0.760909
    N   N3   0.746690  0.868610  0.988390  -0.713806
    O   O9   0.167730  0.157690  0.611100  -0.667865
    O   O10  0.152210  0.257410  0.805100  -0.732039
    O   O11  0.340060  0.158540  0.410300  -0.656705
    O   O12  0.353500  0.259550  0.217800  -0.721544
    Zn  Zn3  0.745900  0.732720  0.987040  1.268780
    C   C58  0.318910  0.414340  0.448500  0.454198
    H   H34  0.365400  0.383200  0.407500  0.038804
    C   C59  0.320460  0.506310  0.441800  -0.243680
    C   C60  0.248560  0.551730  0.498600  0.064196
    H   H35  0.246900  0.613100  0.493900  0.096376
    C   C61  0.179200  0.505340  0.562400  -0.258410
    C   C62  0.185640  0.413570  0.569600  0.450477
    H   H36  0.141200  0.382000  0.616500  0.046055
    C   C63  0.397080  0.553310  0.378900  0.161008
    C   C64  0.446770  0.515980  0.257800  -0.257748
    H   H37  0.431700  0.461100  0.214900  0.180113
    C   C65  0.518500  0.560990  0.202100  -0.063325
    H   H38  0.551000  0.535900  0.121400  0.109506
    C   C66  0.542620  0.642890  0.264500  -0.038012
    C   C67  0.493210  0.680200  0.384900  -0.126580
    H   H39  0.508800  0.734900  0.428200  0.118685
    C   C68  0.420890  0.636090  0.440200  -0.141551
    H   H40  0.387800  0.662000  0.519300  0.101908
    C   C69  0.622200  0.690680  0.209100  0.730104
    C   C70  0.099820  0.551090  0.617300  0.169958
    C   C71  0.050870  0.516950  0.742300  -0.270256
    H   H41  0.067400  0.464200  0.792000  0.178217
    C   C72  0.977690  0.561810  0.791900  -0.037371
    H   H42  0.945500  0.538800  0.875000  0.099515
    C   C73  0.951660  0.640790  0.719100  -0.051189
    C   C74  0.999980  0.674510  0.594500  -0.139422
    H   H43  0.983100  0.727200  0.545000  0.114994
    C   C75  0.073090  0.630270  0.543400  -0.123208
    H   H44  0.104600  0.653300  0.459500  0.098832
    C   C76  0.871290  0.688980  0.770400  0.761027
    N   N4   0.253310  0.368610  0.511610  -0.713716
    O   O13  0.832270  0.657690  0.888900  -0.667894
    O   O14  0.847790  0.757410  0.694900  -0.732144
    O   O15  0.659940  0.658540  0.089700  -0.656711
    O   O16  0.646500  0.759550  0.282200  -0.721546
    Zn  Zn4  0.254100  0.232720  0.512960  1.268743
