# Generated by REPEAT Assigner based on pymatgen
data_DB12-XUNSOQ_clean
_audit_creation_date              2022-05-24
_audit_creation_method            REPEAT_Assigner
_cell_length_a                    5.401300
_cell_length_b                    17.644000
_cell_length_c                    17.825000
_cell_angle_alpha                 89.391000
_cell_angle_beta                  85.708000
_cell_angle_gamma                 86.268000
_cell_volume                      1690.347650
_symmetry_space_group_name_H-M    P1
_symmetry_Int_Tables_number       1
loop_
    _symmetry_equiv_pos_site_id
    _symmetry_equiv_pos_as_xyz
    1  x,y,z
loop_
    _atom_site_type_symbol
    _atom_site_label
    _atom_site_fract_x
    _atom_site_fract_y
    _atom_site_fract_z
    _atom_type_partial_charge
    O   O1   0.364400  0.568370  0.498130  -0.612199
    O   O2   0.051800  0.004080  0.400880  -0.627406
    O   O3   0.346800  0.066850  0.013640  -0.718444
    N   N1   0.292700  0.853700  0.464700  -0.501425
    O   O4   0.947300  0.092610  0.992020  -0.656388
    O   O5   0.142300  0.497230  0.932380  -0.662097
    O   O6   0.961100  0.597560  0.487510  -0.628381
    O   O7   0.642700  0.002810  0.432620  -0.707877
    C   C1   0.186600  0.195800  0.016000  0.041761
    C   C2   0.228600  0.697000  0.478100  0.167161
    N   N2   0.714200  0.028400  0.147900  -0.497709
    N   N3   0.213900  0.352800  0.032400  -0.466227
    N   N4   0.271700  0.474300  0.648700  -0.491902
    C   C3   0.565000  0.045800  0.278000  -0.393313
    H   H1   0.433600  0.063800  0.313000  0.167237
    C   C4   0.430800  0.728700  0.504900  -0.429049
    H   H2   0.554300  0.697500  0.527800  0.169028
    C   C5   0.179800  0.614400  0.488700  0.590187
    C   C6   0.382800  0.303400  0.057900  0.219307
    H   H3   0.515800  0.322400  0.082500  0.031944
    C   C7   0.376500  0.224600  0.050800  -0.180803
    H   H4   0.503100  0.191500  0.069900  0.084037
    O   O8   0.549700  0.503490  0.904940  -0.642097
    C   C8   0.831500  0.005100  0.385200  0.666942
    C   C9   0.155200  0.112100  0.007400  0.690272
    C   C10  0.332400  0.499000  0.886300  0.657530
    C   C11  0.782600  0.011300  0.302800  0.146996
    C   C12  0.103000  0.821900  0.436800  0.248960
    H   H5   0.988200  0.853600  0.410900  0.012640
    C   C13  0.453400  0.806800  0.498200  0.406512
    H   H6   0.591100  0.827600  0.518800  0.009547
    C   C14  0.063400  0.745500  0.443500  -0.236660
    H   H7   0.921000  0.726500  0.423900  0.105050
    C   C15  0.299400  0.493200  0.803800  0.084457
    C   C16  0.106100  0.457600  0.775900  -0.322295
    H   H8   0.977000  0.439500  0.809200  0.139693
    C   C17  0.006500  0.247300  0.990400  -0.279929
    H   H9   0.867900  0.229800  0.967500  0.131048
    C   C18  0.960700  0.985500  0.249300  -0.302050
    H   H10  0.112400  0.961600  0.263900  0.134108
    C   C19  0.101800  0.448600  0.699200  0.317384
    H   H11  0.969900  0.422400  0.681300  0.018715
    C   C20  0.451700  0.510900  0.676800  0.302234
    H   H12  0.572400  0.531600  0.642300  0.008931
    C   C21  0.542600  0.053500  0.201000  0.332966
    H   H13  0.394100  0.078400  0.185100  0.015317
    C   C22  0.029500  0.324100  0.998500  0.320687
    H   H14  0.907400  0.358400  0.978800  0.023691
    Li  Li1  0.198900  0.470400  0.037500  0.709456
    C   C23  0.474800  0.520900  0.752300  -0.242068
    H   H15  0.610000  0.546600  0.768700  0.114826
    C   C24  0.921300  0.994000  0.173600  0.319561
    H   H16  0.047800  0.974400  0.137800  0.023601
    Li  Li2  0.294100  0.465500  0.533400  0.695831
    Li  Li3  0.310600  0.972400  0.461300  0.730842
    Li  Li4  0.309900  0.963900  0.968200  0.759861
    O   O9   0.635600  0.431630  0.501870  -0.612162
    O   O10  0.948200  0.995920  0.599120  -0.627407
    O   O11  0.653200  0.933150  0.986360  -0.718439
    N   N5   0.707300  0.146300  0.535300  -0.501463
    O   O12  0.052700  0.907390  0.007980  -0.656376
    O   O13  0.857700  0.502770  0.067620  -0.662091
    O   O14  0.038900  0.402440  0.512490  -0.628386
    O   O15  0.357300  0.997190  0.567380  -0.707861
    C   C25  0.813400  0.804200  0.984000  0.041764
    C   C26  0.771400  0.303000  0.521900  0.167236
    N   N6   0.285800  0.971600  0.852100  -0.497722
    N   N7   0.786100  0.647200  0.967600  -0.466240
    N   N8   0.728300  0.525700  0.351300  -0.491917
    C   C27  0.435000  0.954200  0.722000  -0.393311
    H   H17  0.566400  0.936200  0.687000  0.167232
    C   C28  0.569200  0.271300  0.495100  -0.429096
    H   H18  0.445700  0.302500  0.472200  0.169051
    C   C29  0.820200  0.385600  0.511300  0.590118
    C   C30  0.617200  0.696600  0.942100  0.219310
    H   H19  0.484200  0.677600  0.917500  0.031945
    C   C31  0.623500  0.775400  0.949200  -0.180807
    H   H20  0.496900  0.808500  0.930100  0.084038
    O   O16  0.450300  0.496510  0.095060  -0.642107
    C   C32  0.168500  0.994900  0.614800  0.666928
    C   C33  0.844800  0.887900  0.992600  0.690259
    C   C34  0.667600  0.501000  0.113700  0.657543
    C   C35  0.217400  0.988700  0.697200  0.147007
    C   C36  0.897000  0.178100  0.563200  0.249021
    H   H21  0.011800  0.146400  0.589100  0.012631
    C   C37  0.546600  0.193200  0.501800  0.406546
    H   H22  0.408900  0.172400  0.481200  0.009544
    C   C38  0.936600  0.254500  0.556500  -0.236744
    H   H23  0.079000  0.273500  0.576100  0.105062
    C   C39  0.700600  0.506800  0.196200  0.084433
    C   C40  0.893900  0.542400  0.224100  -0.322357
    H   H24  0.023000  0.560500  0.190800  0.139723
    C   C41  0.993500  0.752700  0.009600  -0.279926
    H   H25  0.132100  0.770200  0.032500  0.131043
    C   C42  0.039300  0.014500  0.750700  -0.302066
    H   H26  0.887600  0.038400  0.736100  0.134111
    C   C43  0.898200  0.551400  0.300800  0.317558
    H   H27  0.030100  0.577600  0.318700  0.018597
    C   C44  0.548300  0.489100  0.323200  0.302178
    H   H28  0.427600  0.468400  0.357700  0.008950
    C   C45  0.457400  0.946500  0.799000  0.332976
    H   H29  0.605900  0.921600  0.814900  0.015316
    C   C46  0.970500  0.675900  0.001500  0.320699
    H   H30  0.092600  0.641600  0.021200  0.023688
    Li  Li5  0.801100  0.529600  0.962500  0.709462
    C   C47  0.525200  0.479100  0.247700  -0.242021
    H   H31  0.390000  0.453400  0.231300  0.114811
    C   C48  0.078700  0.006000  0.826400  0.319567
    H   H32  0.952200  0.025600  0.862200  0.023606
    Li  Li6  0.705900  0.534500  0.466600  0.695839
    Li  Li7  0.689400  0.027600  0.538700  0.730845
    Li  Li8  0.690100  0.036100  0.031800  0.759860
