# Generated by REPEAT Assigner based on pymatgen
data_DB12-TIRHIL_clean
_audit_creation_date              2022-05-24
_audit_creation_method            REPEAT_Assigner
_cell_length_a                    15.486000
_cell_length_b                    15.486000
_cell_length_c                    15.486000
_cell_angle_alpha                 90.000000
_cell_angle_beta                  90.000000
_cell_angle_gamma                 90.000000
_cell_volume                      3713.793611
_symmetry_space_group_name_H-M    P1
_symmetry_Int_Tables_number       1
loop_
    _symmetry_equiv_pos_site_id
    _symmetry_equiv_pos_as_xyz
    1  x,y,z
loop_
    _atom_site_type_symbol
    _atom_site_label
    _atom_site_fract_x
    _atom_site_fract_y
    _atom_site_fract_z
    _atom_type_partial_charge
    O   O1   0.730400  0.379400  0.908000  -0.375888
    O   O2   0.604100  0.383500  0.018400  -0.356646
    C   C1   0.753800  0.368100  0.986400  0.495128
    C   C2   0.677100  0.367700  0.052100  0.508106
    O   O3   0.825600  0.359300  0.007900  -0.387341
    O   O4   0.687100  0.354100  0.128700  -0.436608
    O   O5   0.769600  0.620600  0.408000  -0.375917
    O   O6   0.895900  0.616500  0.518400  -0.356627
    C   C3   0.746200  0.631900  0.486400  0.495132
    C   C4   0.822900  0.632300  0.552100  0.508092
    O   O7   0.674400  0.640700  0.507900  -0.387363
    O   O8   0.812900  0.645900  0.628700  -0.436620
    O   O9   0.269600  0.879400  0.592000  -0.375861
    O   O10  0.395900  0.883500  0.481600  -0.356606
    C   C5   0.246200  0.868100  0.513600  0.495155
    C   C6   0.322900  0.867700  0.447900  0.508117
    O   O11  0.174400  0.859300  0.492100  -0.387286
    O   O12  0.312900  0.854100  0.371300  -0.436557
    O   O13  0.230400  0.120600  0.092000  -0.375877
    O   O14  0.104100  0.116500  0.981600  -0.356640
    C   C7   0.253800  0.131900  0.013600  0.495137
    C   C8   0.177100  0.132300  0.947900  0.508107
    O   O15  0.325600  0.140700  0.992100  -0.387315
    O   O16  0.187100  0.145900  0.871300  -0.436598
    O   O17  0.908000  0.730400  0.379400  -0.375893
    O   O18  0.018400  0.604100  0.383500  -0.356638
    C   C9   0.986400  0.753800  0.368100  0.495130
    C   C10  0.052100  0.677100  0.367700  0.508115
    O   O19  0.007900  0.825600  0.359300  -0.387297
    O   O20  0.128700  0.687100  0.354100  -0.436572
    O   O21  0.408000  0.769600  0.620600  -0.375893
    O   O22  0.518400  0.895900  0.616500  -0.356596
    C   C11  0.486400  0.746200  0.631900  0.495134
    C   C12  0.552100  0.822900  0.632300  0.508092
    O   O23  0.507900  0.674400  0.640700  -0.387372
    O   O24  0.628700  0.812900  0.645900  -0.436628
    O   O25  0.592000  0.269600  0.879400  -0.375878
    O   O26  0.481600  0.395900  0.883500  -0.356618
    C   C13  0.513600  0.246200  0.868100  0.495142
    C   C14  0.447900  0.322900  0.867700  0.508105
    O   O27  0.492100  0.174400  0.859300  -0.387334
    O   O28  0.371300  0.312900  0.854100  -0.436595
    O   O29  0.092000  0.230400  0.120600  -0.375912
    O   O30  0.981600  0.104100  0.116500  -0.356606
    C   C15  0.013600  0.253800  0.131900  0.495135
    C   C16  0.947900  0.177100  0.132300  0.508109
    O   O31  0.992100  0.325600  0.140700  -0.387346
    O   O32  0.871300  0.187100  0.145900  -0.436628
    O   O33  0.379400  0.908000  0.730400  -0.375880
    O   O34  0.383500  0.018400  0.604100  -0.356622
    C   C17  0.368100  0.986400  0.753800  0.495132
    C   C18  0.367700  0.052100  0.677100  0.508114
    O   O35  0.359300  0.007900  0.825600  -0.387313
    O   O36  0.354100  0.128700  0.687100  -0.436580
    O   O37  0.620600  0.408000  0.769600  -0.375915
    O   O38  0.616500  0.518400  0.895900  -0.356609
    C   C19  0.631900  0.486400  0.746200  0.495138
    C   C20  0.632300  0.552100  0.822900  0.508096
    O   O39  0.640700  0.507900  0.674400  -0.387351
    O   O40  0.645900  0.628700  0.812900  -0.436627
    O   O41  0.879400  0.592000  0.269600  -0.375885
    O   O42  0.883500  0.481600  0.395900  -0.356633
    C   C21  0.868100  0.513600  0.246200  0.495130
    C   C22  0.867700  0.447900  0.322900  0.508097
    O   O43  0.859300  0.492100  0.174400  -0.387346
    O   O44  0.854100  0.371300  0.312900  -0.436613
    O   O45  0.120600  0.092000  0.230400  -0.375889
    O   O46  0.116500  0.981600  0.104100  -0.356633
    C   C23  0.131900  0.013600  0.253800  0.495146
    C   C24  0.132300  0.947900  0.177100  0.508129
    O   O47  0.140700  0.992100  0.325600  -0.387272
    O   O48  0.145900  0.871300  0.187100  -0.436564
    Ag  Ag1  0.832900  0.332900  0.167100  0.744034
    Ag  Ag2  0.667100  0.667100  0.667100  0.743913
    Ag  Ag3  0.167100  0.832900  0.332900  0.744425
    Ag  Ag4  0.332900  0.167100  0.832900  0.744210
    Cr  Cr1  0.607000  0.393000  0.893000  0.915467
    Cr  Cr2  0.893000  0.607000  0.393000  0.915333
    Cr  Cr3  0.393000  0.893000  0.607000  0.915620
    Cr  Cr4  0.107000  0.107000  0.107000  0.915366
