# Generated by REPEAT Assigner based on pymatgen
data_DB12-YASNAJ_freeONLY
_audit_creation_date              2022-05-24
_audit_creation_method            REPEAT_Assigner
_cell_length_a                    15.616700
_cell_length_b                    15.616700
_cell_length_c                    16.717800
_cell_angle_alpha                 100.835000
_cell_angle_beta                  100.835000
_cell_angle_gamma                 119.905000
_cell_volume                      3275.776338
_symmetry_space_group_name_H-M    P1
_symmetry_Int_Tables_number       1
loop_
    _symmetry_equiv_pos_site_id
    _symmetry_equiv_pos_as_xyz
    1  x,y,z
loop_
    _atom_site_type_symbol
    _atom_site_label
    _atom_site_fract_x
    _atom_site_fract_y
    _atom_site_fract_z
    _atom_type_partial_charge
    Co  Co1   0.504950  0.068770  0.620810  1.091855
    Co  Co2   0.931230  0.495050  0.879190  1.091843
    Co  Co3   0.495050  0.931230  0.379190  1.091752
    Co  Co4   0.068770  0.504950  0.120810  1.091760
    H   H1    0.662800  0.304400  0.653900  0.031456
    H   H2    0.668300  0.452700  0.657600  0.141099
    H   H3    0.357200  0.285400  0.579800  0.205819
    H   H4    0.359300  0.139300  0.575200  0.041944
    H   H5    0.649900  0.566300  0.601100  0.109505
    H   H6    0.647300  0.711900  0.603500  0.091093
    H   H7    0.374300  0.579100  0.646100  0.102847
    H   H8    0.378600  0.434000  0.646800  0.136571
    H   H9    0.663200  0.863600  0.677800  0.144882
    H   H10   0.655300  0.005300  0.679500  -0.004333
    H   H11   0.353300  0.830500  0.580500  0.069023
    H   H12   0.352400  0.683800  0.575500  0.191723
    H   H13   0.775600  0.045800  0.463100  0.222134
    H   H14   0.949400  0.135600  0.474100  0.122371
    H   H15   0.008300  0.376900  0.662100  0.069190
    H   H16   0.835200  0.283800  0.656400  0.155917
    H   H17   0.106400  0.249800  0.402500  0.109551
    H   H18   0.086600  0.295400  0.280700  0.119843
    H   H19   0.127600  0.558200  0.419600  0.122870
    H   H20   0.142400  0.511800  0.540600  0.083060
    H   H21   0.695600  0.337200  0.846100  0.031313
    H   H22   0.547300  0.331700  0.842400  0.141127
    H   H23   0.714600  0.642800  0.920200  0.205822
    H   H24   0.860700  0.640700  0.924800  0.041937
    H   H25   0.433700  0.350100  0.898900  0.109498
    H   H26   0.288100  0.352700  0.896500  0.091074
    H   H27   0.420900  0.625700  0.853900  0.102854
    H   H28   0.566000  0.621400  0.853200  0.136588
    H   H29   0.136400  0.336800  0.822200  0.144880
    H   H30   0.994700  0.344700  0.820500  -0.004340
    H   H31   0.169500  0.646700  0.919500  0.069023
    H   H32   0.316200  0.647600  0.924500  0.191724
    H   H33   0.954200  0.224400  0.036900  0.222142
    H   H34   0.864400  0.050600  0.025900  0.122376
    H   H35   0.623100  0.991700  0.837900  0.069198
    H   H36   0.716200  0.164800  0.843600  0.155935
    H   H37   0.750200  0.893600  0.097500  0.109561
    H   H38   0.704600  0.913400  0.219300  0.119836
    H   H39   0.441800  0.872400  0.080400  0.122862
    H   H40   0.488200  0.857600  0.959400  0.083073
    H   H41   0.337200  0.695600  0.346100  0.031297
    H   H42   0.331700  0.547300  0.342400  0.141139
    H   H43   0.642800  0.714600  0.420200  0.205843
    H   H44   0.640700  0.860700  0.424800  0.041917
    H   H45   0.350100  0.433700  0.398900  0.109497
    H   H46   0.352700  0.288100  0.396500  0.091080
    H   H47   0.625700  0.420900  0.353900  0.102855
    H   H48   0.621400  0.566000  0.353200  0.136589
    H   H49   0.336800  0.136400  0.322200  0.144860
    H   H50   0.344700  0.994700  0.320500  -0.004340
    H   H51   0.646700  0.169500  0.419500  0.069030
    H   H52   0.647600  0.316200  0.424500  0.191711
    H   H53   0.224400  0.954200  0.536900  0.222140
    H   H54   0.050600  0.864400  0.525900  0.122399
    H   H55   0.991700  0.623100  0.337900  0.069162
    H   H56   0.164800  0.716200  0.343600  0.155942
    H   H57   0.893600  0.750200  0.597500  0.109523
    H   H58   0.913400  0.704600  0.719300  0.119848
    H   H59   0.872400  0.441800  0.580400  0.122864
    H   H60   0.857600  0.488200  0.459400  0.083087
    H   H61   0.304400  0.662800  0.153900  0.031290
    H   H62   0.452700  0.668300  0.157600  0.141139
    H   H63   0.285400  0.357200  0.079800  0.205840
    H   H64   0.139300  0.359300  0.075200  0.041917
    H   H65   0.566300  0.649900  0.101100  0.109504
    H   H66   0.711900  0.647300  0.103500  0.091085
    H   H67   0.579100  0.374300  0.146100  0.102853
    H   H68   0.434000  0.378600  0.146800  0.136586
    H   H69   0.863600  0.663200  0.177800  0.144858
    H   H70   0.005300  0.655300  0.179500  -0.004344
    H   H71   0.830500  0.353300  0.080500  0.069023
    H   H72   0.683800  0.352400  0.075500  0.191715
    H   H73   0.045800  0.775600  0.963100  0.222160
    H   H74   0.135600  0.949400  0.974100  0.122380
    H   H75   0.376900  0.008300  0.162100  0.069169
    H   H76   0.283800  0.835200  0.156400  0.155936
    H   H77   0.249800  0.106400  0.902500  0.109545
    H   H78   0.295400  0.086600  0.780700  0.119839
    H   H79   0.558200  0.127600  0.919600  0.122871
    H   H80   0.511800  0.142400  0.040600  0.083077
    C   C1    0.599950  0.300050  0.638600  0.225763
    C   C2    0.603890  0.389710  0.641100  -0.276820
    C   C3    0.512820  0.387780  0.619500  0.205587
    C   C4    0.420890  0.291510  0.595000  -0.406903
    C   C5    0.422900  0.203700  0.593000  0.238862
    C   C6    0.513190  0.483010  0.622500  0.082211
    C   C7    0.594010  0.568390  0.610300  -0.175665
    C   C8    0.592350  0.655650  0.611700  -0.049633
    C   C9    0.510420  0.661380  0.625100  -0.120636
    C   C10   0.430470  0.577130  0.637400  -0.035823
    C   C11   0.432680  0.489520  0.637000  -0.163835
    C   C12   0.508600  0.755200  0.626100  0.456291
    C   C13   0.598510  0.854290  0.657100  -0.422355
    C   C14   0.593180  0.939420  0.657600  0.400177
    C   C15   0.416990  0.837410  0.599800  0.239676
    C   C16   0.415730  0.748670  0.597000  -0.475667
    C   C17   0.674450  0.096150  0.552600  0.611158
    C   C18   0.788220  0.155180  0.559590  0.084076
    C   C19   0.822760  0.111840  0.504300  -0.230727
    C   C20   0.925550  0.165450  0.510000  -0.107152
    C   C21   0.993800  0.264800  0.569700  -0.106538
    C   C22   0.961300  0.309500  0.623100  -0.014881
    C   C23   0.857920  0.254280  0.619100  -0.150101
    C   C24   0.123640  0.375960  0.483500  -0.212555
    C   C25   0.108920  0.311080  0.405500  0.002935
    C   C26   0.097980  0.339020  0.333300  -0.173921
    C   C27   0.103630  0.430370  0.337200  0.072478
    C   C28   0.121710  0.495290  0.416000  -0.175042
    C   C29   0.131040  0.467960  0.488100  -0.007496
    C   C30   0.088510  0.458290  0.256600  0.559691
    C   C31   0.699950  0.400050  0.861400  0.225993
    C   C32   0.610290  0.396110  0.858900  -0.276897
    C   C33   0.612220  0.487180  0.880500  0.205579
    C   C34   0.708490  0.579110  0.905000  -0.406923
    C   C35   0.796300  0.577100  0.907000  0.238900
    C   C36   0.516990  0.486810  0.877500  0.082256
    C   C37   0.431610  0.405990  0.889700  -0.175690
    C   C38   0.344350  0.407650  0.888300  -0.049600
    C   C39   0.338620  0.489580  0.874900  -0.120642
    C   C40   0.422870  0.569530  0.862600  -0.035823
    C   C41   0.510480  0.567320  0.863000  -0.163872
    C   C42   0.244800  0.491400  0.873900  0.456292
    C   C43   0.145710  0.401490  0.842900  -0.422346
    C   C44   0.060580  0.406820  0.842400  0.400167
    C   C45   0.162590  0.583010  0.900200  0.239666
    C   C46   0.251330  0.584270  0.903000  -0.475665
    C   C47   0.903850  0.325550  0.947400  0.611151
    C   C48   0.844820  0.211780  0.940410  0.084079
    C   C49   0.888160  0.177240  0.995700  -0.230731
    C   C50   0.834550  0.074450  0.990000  -0.107168
    C   C51   0.735200  0.006200  0.930300  -0.106506
    C   C52   0.690500  0.038700  0.876900  -0.014921
    C   C53   0.745720  0.142080  0.880900  -0.150106
    C   C54   0.624040  0.876360  0.016500  -0.212537
    C   C55   0.688920  0.891080  0.094500  0.002912
    C   C56   0.660980  0.902020  0.166700  -0.173905
    C   C57   0.569630  0.896370  0.162800  0.072470
    C   C58   0.504710  0.878290  0.084000  -0.175017
    C   C59   0.532040  0.868960  0.011900  -0.007535
    C   C60   0.541710  0.911490  0.243400  0.559684
    C   C61   0.400050  0.699950  0.361400  0.226057
    C   C62   0.396110  0.610290  0.358900  -0.276966
    C   C63   0.487180  0.612220  0.380500  0.205654
    C   C64   0.579110  0.708490  0.405000  -0.406990
    C   C65   0.577100  0.796300  0.407000  0.238956
    C   C66   0.486810  0.516990  0.377500  0.082218
    C   C67   0.405990  0.431610  0.389700  -0.175663
    C   C68   0.407650  0.344350  0.388300  -0.049620
    C   C69   0.489580  0.338620  0.374900  -0.120625
    C   C70   0.569530  0.422870  0.362600  -0.035828
    C   C71   0.567320  0.510480  0.363000  -0.163872
    C   C72   0.491400  0.244800  0.373900  0.456263
    C   C73   0.401490  0.145710  0.342900  -0.422292
    C   C74   0.406820  0.060580  0.342400  0.400164
    C   C75   0.583010  0.162590  0.400200  0.239647
    C   C76   0.584270  0.251330  0.403000  -0.475636
    C   C77   0.325550  0.903850  0.447400  0.611234
    C   C78   0.211780  0.844820  0.440410  0.084118
    C   C79   0.177240  0.888160  0.495700  -0.230688
    C   C80   0.074450  0.834550  0.490000  -0.107230
    C   C81   0.006200  0.735200  0.430300  -0.106507
    C   C82   0.038700  0.690500  0.376900  -0.014835
    C   C83   0.142080  0.745720  0.380900  -0.150197
    C   C84   0.876360  0.624040  0.516500  -0.212489
    C   C85   0.891080  0.688920  0.594500  0.002941
    C   C86   0.902020  0.660980  0.666700  -0.173950
    C   C87   0.896370  0.569630  0.662800  0.072518
    C   C88   0.878290  0.504710  0.584000  -0.175032
    C   C89   0.868960  0.532040  0.511900  -0.007562
    C   C90   0.911490  0.541710  0.743400  0.559663
    C   C91   0.300050  0.599950  0.138600  0.226073
    C   C92   0.389710  0.603890  0.141100  -0.276973
    C   C93   0.387780  0.512820  0.119500  0.205647
    C   C94   0.291510  0.420890  0.095000  -0.406981
    C   C95   0.203700  0.422900  0.093000  0.238955
    C   C96   0.483010  0.513190  0.122500  0.082222
    C   C97   0.568390  0.594010  0.110300  -0.175669
    C   C98   0.655650  0.592350  0.111700  -0.049634
    C   C99   0.661380  0.510420  0.125100  -0.120612
    C   C100  0.577130  0.430470  0.137400  -0.035821
    C   C101  0.489520  0.432680  0.137000  -0.163860
    C   C102  0.755200  0.508600  0.126100  0.456251
    C   C103  0.854290  0.598510  0.157100  -0.422287
    C   C104  0.939420  0.593180  0.157600  0.400171
    C   C105  0.837410  0.416990  0.099800  0.239661
    C   C106  0.748670  0.415730  0.097000  -0.475650
    C   C107  0.096150  0.674450  0.052600  0.611243
    C   C108  0.155180  0.788220  0.059590  0.084116
    C   C109  0.111840  0.822760  0.004300  -0.230727
    C   C110  0.165450  0.925550  0.010000  -0.107196
    C   C111  0.264800  0.993800  0.069700  -0.106507
    C   C112  0.309500  0.961300  0.123100  -0.014851
    C   C113  0.254280  0.857920  0.119100  -0.150184
    C   C114  0.375960  0.123640  0.983500  -0.212552
    C   C115  0.311080  0.108920  0.905500  0.002955
    C   C116  0.339020  0.097980  0.833300  -0.173924
    C   C117  0.430370  0.103630  0.837200  0.072483
    C   C118  0.495290  0.121710  0.916000  -0.175030
    C   C119  0.467960  0.131040  0.988100  -0.007531
    C   C120  0.458290  0.088510  0.756600  0.559688
    S   S1    0.127520  0.336020  0.575370  1.013904
    S   S2    0.663980  0.872480  0.924630  1.013918
    S   S3    0.872480  0.663980  0.424630  1.013857
    S   S4    0.336020  0.127520  0.075370  1.013900
    N   N1    0.510810  0.206310  0.615250  -0.318788
    N   N2    0.503630  0.932870  0.628400  -0.412674
    N   N3    0.793690  0.489190  0.884750  -0.318888
    N   N4    0.067130  0.496370  0.871600  -0.412659
    N   N5    0.489190  0.793690  0.384750  -0.318944
    N   N6    0.496370  0.067130  0.371600  -0.412640
    N   N7    0.206310  0.510810  0.115250  -0.318956
    N   N8    0.932870  0.503630  0.128400  -0.412641
    O   O1    0.613860  0.011640  0.492480  -0.674943
    O   O2    0.649490  0.135770  0.608590  -0.628791
    O   O3    0.160570  0.266230  0.565000  -0.547664
    O   O4    0.184900  0.427100  0.650200  -0.500142
    O   O5    0.035460  0.387080  0.186330  -0.614310
    O   O6    0.129190  0.552590  0.261630  -0.548038
    O   O7    0.988360  0.386140  0.007520  -0.674953
    O   O8    0.864230  0.350510  0.891410  -0.628747
    O   O9    0.733770  0.839430  0.935000  -0.547675
    O   O10   0.572900  0.815100  0.849800  -0.500147
    O   O11   0.612920  0.964540  0.313670  -0.614306
    O   O12   0.447410  0.870810  0.238370  -0.548032
    O   O13   0.386140  0.988360  0.507520  -0.675154
    O   O14   0.350510  0.864230  0.391410  -0.628731
    O   O15   0.839430  0.733770  0.435000  -0.547643
    O   O16   0.815100  0.572900  0.349800  -0.500150
    O   O17   0.964540  0.612920  0.813670  -0.614288
    O   O18   0.870810  0.447410  0.738370  -0.548080
    O   O19   0.011640  0.613860  0.992480  -0.675152
    O   O20   0.135770  0.649490  0.108590  -0.628730
    O   O21   0.266230  0.160570  0.065000  -0.547663
    O   O22   0.427100  0.184900  0.150200  -0.500155
    O   O23   0.387080  0.035460  0.686330  -0.614301
    O   O24   0.552590  0.129190  0.761630  -0.548085
