# Generated by REPEAT Assigner based on pymatgen
data_DB12-BOFCEG_clean
_audit_creation_date              2022-05-24
_audit_creation_method            REPEAT_Assigner
_cell_length_a                    13.762000
_cell_length_b                    9.563000
_cell_length_c                    9.883000
_cell_angle_alpha                 90.000000
_cell_angle_beta                  101.074000
_cell_angle_gamma                 90.000000
_cell_volume                      1276.443733
_symmetry_space_group_name_H-M    P1
_symmetry_Int_Tables_number       1
loop_
    _symmetry_equiv_pos_site_id
    _symmetry_equiv_pos_as_xyz
    1  x,y,z
loop_
    _atom_site_type_symbol
    _atom_site_label
    _atom_site_fract_x
    _atom_site_fract_y
    _atom_site_fract_z
    _atom_type_partial_charge
    Zn  Zn1  0.595680  0.068240  0.900850  0.962564
    N   N1   0.558610  0.210300  0.751400  -0.541695
    O   O1   0.726910  0.986400  0.901700  -0.633839
    O   O2   0.771340  0.193800  0.983700  -0.623855
    N   N2   0.559820  0.346300  0.570500  -0.355061
    C   C1   0.933700  0.936900  0.069200  -0.035980
    H   H1   0.889300  0.893500  0.115700  0.076062
    N   N3   0.492430  0.399400  0.643400  -0.276214
    C   C2   0.791200  0.073900  0.947100  0.675513
    C   C3   0.033800  0.904800  0.104900  -0.029776
    C   C4   0.898500  0.032500  0.965300  -0.021599
    O   O3   0.156000  0.827400  0.288600  -0.507844
    H   H2   0.169200  0.772100  0.353000  0.393736
    O   O4   0.008800  0.725300  0.261100  -0.533881
    C   C5   0.596900  0.233300  0.638100  0.453886
    H   H3   0.644100  0.176100  0.610500  0.038303
    C   C6   0.494300  0.316400  0.748700  0.293934
    H   H4   0.455200  0.329300  0.814800  0.052830
    C   C7   0.064400  0.807900  0.224400  0.612828
    Zn  Zn2  0.404320  0.568240  0.599150  0.962843
    N   N4   0.441390  0.710300  0.748600  -0.541574
    O   O5   0.273090  0.486400  0.598300  -0.633895
    O   O6   0.228660  0.693800  0.516300  -0.623815
    N   N5   0.440180  0.846300  0.929500  -0.355168
    C   C8   0.066300  0.436900  0.430800  -0.035993
    H   H5   0.110700  0.393500  0.384300  0.076068
    N   N6   0.507570  0.899400  0.856600  -0.275867
    C   C9   0.208800  0.573900  0.552900  0.675511
    C   C10  0.966200  0.404800  0.395100  -0.029784
    C   C11  0.101500  0.532500  0.534700  -0.021571
    O   O7   0.844000  0.327400  0.211400  -0.507878
    H   H6   0.830800  0.272100  0.147000  0.393791
    O   O8   0.991200  0.225300  0.238900  -0.533889
    C   C12  0.403100  0.733300  0.861900  0.453770
    H   H7   0.355900  0.676100  0.889500  0.038326
    C   C13  0.505700  0.816400  0.751300  0.293644
    H   H8   0.544800  0.829300  0.685200  0.052917
    C   C14  0.935600  0.307900  0.275600  0.612841
    Zn  Zn3  0.404320  0.931760  0.099150  0.962527
    N   N7   0.441390  0.789700  0.248600  -0.541704
    O   O9   0.273090  0.013600  0.098300  -0.633825
    O   O10  0.228660  0.806200  0.016300  -0.623815
    N   N8   0.440180  0.653700  0.429500  -0.355570
    C   C15  0.066300  0.063100  0.930800  -0.036012
    H   H9   0.110700  0.106500  0.884300  0.076075
    N   N9   0.507570  0.600600  0.356600  -0.275708
    C   C16  0.208800  0.926100  0.052900  0.675454
    C   C17  0.966200  0.095200  0.895100  -0.029754
    C   C18  0.101500  0.967500  0.034700  -0.021566
    O   O11  0.844000  0.172600  0.711400  -0.507883
    H   H10  0.830800  0.227900  0.647000  0.393787
    O   O12  0.991200  0.274700  0.738900  -0.533879
    C   C19  0.403100  0.766700  0.361900  0.454117
    H   H11  0.355900  0.823900  0.389500  0.038238
    C   C20  0.505700  0.683600  0.251300  0.293714
    H   H12  0.544800  0.670700  0.185200  0.052890
    C   C21  0.935600  0.192100  0.775600  0.612828
    Zn  Zn4  0.595680  0.431760  0.400850  0.962487
    N   N10  0.558610  0.289700  0.251400  -0.541712
    O   O13  0.726910  0.513600  0.401700  -0.633864
    O   O14  0.771340  0.306200  0.483700  -0.623857
    N   N11  0.559820  0.153700  0.070500  -0.355332
    C   C22  0.933700  0.563100  0.569200  -0.036002
    H   H13  0.889300  0.606500  0.615700  0.076068
    N   N12  0.492430  0.100600  0.143400  -0.275847
    C   C23  0.791200  0.426100  0.447100  0.675529
    C   C24  0.033800  0.595200  0.604900  -0.029766
    C   C25  0.898500  0.467500  0.465300  -0.021577
    O   O15  0.156000  0.672600  0.788600  -0.507922
    H   H14  0.169200  0.727900  0.853000  0.393810
    O   O16  0.008800  0.774700  0.761100  -0.533887
    C   C26  0.596900  0.266700  0.138100  0.454032
    H   H15  0.644100  0.323900  0.110500  0.038274
    C   C27  0.494300  0.183600  0.248700  0.293740
    H   H16  0.455200  0.170700  0.314800  0.052888
    C   C28  0.064400  0.692100  0.724400  0.612838
