# Generated by REPEAT Assigner based on pymatgen
data_DB12-KAVGAQ_clean
_audit_creation_date              2022-05-24
_audit_creation_method            REPEAT_Assigner
_cell_length_a                    11.493200
_cell_length_b                    11.613200
_cell_length_c                    11.818200
_cell_angle_alpha                 65.275000
_cell_angle_beta                  81.174000
_cell_angle_gamma                 72.752000
_cell_volume                      1367.581304
_symmetry_space_group_name_H-M    P1
_symmetry_Int_Tables_number       1
loop_
    _symmetry_equiv_pos_site_id
    _symmetry_equiv_pos_as_xyz
    1  x,y,z
loop_
    _atom_site_type_symbol
    _atom_site_label
    _atom_site_fract_x
    _atom_site_fract_y
    _atom_site_fract_z
    _atom_type_partial_charge
    Co  Co1  0.000000  -0.000000  0.500000  0.947934
    Co  Co2  -0.000000  0.500000  0.500000  0.652767
    Co  Co3  0.000000  0.000000  0.000000  0.702648
    H   H1   0.044000  0.662300  0.179500  0.057734
    H   H2   0.835100  0.275600  0.368200  0.106292
    H   H3   0.637300  0.401300  0.370800  0.088335
    H   H4   0.578800  0.118200  0.702500  0.132561
    H   H5   0.779900  0.001300  0.691500  0.080032
    H   H6   0.204600  0.368800  0.704600  -0.024798
    H   H7   0.412800  0.274600  0.718600  0.163362
    H   H8   0.443700  0.444700  0.344300  0.186025
    H   H9   0.234700  0.531900  0.341200  -0.006356
    H   H10  0.841700  0.817800  0.019900  0.059810
    H   H11  0.643600  0.809300  0.024900  0.131415
    H   H12  0.536500  0.194500  0.960100  0.143953
    H   H13  0.740300  0.190700  0.954300  0.107954
    H   H14  0.956000  0.337700  0.820500  0.057685
    H   H15  0.164900  0.724400  0.631800  0.106287
    H   H16  0.362700  0.598700  0.629200  0.088363
    H   H17  0.421200  0.881800  0.297500  0.132567
    H   H18  0.220100  0.998700  0.308500  0.080028
    H   H19  0.795400  0.631200  0.295400  -0.024840
    H   H20  0.587200  0.725400  0.281400  0.163332
    H   H21  0.556300  0.555300  0.655700  0.186005
    H   H22  0.765300  0.468100  0.658800  -0.006329
    H   H23  0.158300  0.182200  0.980100  0.059796
    H   H24  0.356400  0.190700  0.975100  0.131414
    H   H25  0.463500  0.805500  0.039900  0.143951
    H   H26  0.259700  0.809300  0.045700  0.107968
    C   C1   0.023600  0.716600  0.225200  0.193088
    C   C2   0.981500  0.887400  0.268500  -0.077408
    C   C3   0.978400  0.778000  0.378100  -0.298864
    C   C4   0.948700  0.755500  0.510900  0.890932
    C   C5   0.961900  0.029200  0.235200  0.645392
    C   C6   0.781900  0.242600  0.436700  0.020605
    C   C7   0.663600  0.318500  0.437400  -0.108329
    C   C8   0.584200  0.272900  0.535600  -0.007699
    C   C9   0.629700  0.152400  0.632200  -0.238579
    C   C10  0.750100  0.082700  0.624600  0.118471
    C   C11  0.253400  0.382200  0.629900  0.388768
    C   C12  0.378300  0.325400  0.639000  -0.443440
    C   C13  0.452300  0.342800  0.532600  0.358010
    C   C14  0.396400  0.424700  0.420100  -0.455275
    C   C15  0.271200  0.476800  0.419300  0.363066
    C   C16  0.778500  0.895800  0.008200  0.165706
    C   C17  0.660200  0.889400  0.012100  -0.238586
    C   C18  0.564700  0.001500  0.997000  0.129126
    C   C19  0.597500  0.114600  0.973800  -0.236274
    C   C20  0.720000  0.111600  0.970600  0.017323
    C   C21  0.976400  0.283400  0.774800  0.193364
    C   C22  0.018500  0.112600  0.731500  -0.077395
    C   C23  0.021600  0.222000  0.621900  -0.298569
    C   C24  0.051300  0.244500  0.489100  0.890990
    C   C25  0.038100  0.970800  0.764800  0.645367
    C   C26  0.218100  0.757400  0.563300  0.020612
    C   C27  0.336400  0.681500  0.562600  -0.108354
    C   C28  0.415800  0.727100  0.464400  -0.007688
    C   C29  0.370300  0.847600  0.367800  -0.238572
    C   C30  0.249900  0.917300  0.375400  0.118447
    C   C31  0.746600  0.617800  0.370100  0.388828
    C   C32  0.621700  0.674600  0.361000  -0.443383
    C   C33  0.547700  0.657200  0.467400  0.357968
    C   C34  0.603600  0.575300  0.579900  -0.455222
    C   C35  0.728800  0.523200  0.580700  0.362994
    C   C36  0.221500  0.104200  0.991800  0.165733
    C   C37  0.339800  0.110600  0.987900  -0.238595
    C   C38  0.435300  0.998500  0.003000  0.129130
    C   C39  0.402500  0.885400  0.026200  -0.236260
    C   C40  0.280000  0.888400  0.029400  0.017283
    N   N1   0.005700  0.669800  0.348000  -0.102130
    N   N2   0.010400  0.845700  0.171200  -0.313982
    N   N3   0.825800  0.125000  0.527600  -0.134845
    N   N4   0.199000  0.454300  0.521500  -0.426633
    N   N5   0.810200  0.002500  0.989400  -0.128268
    N   N6   0.994300  0.330200  0.652000  -0.102514
    N   N7   0.989600  0.154300  0.828800  -0.314169
    N   N8   0.174200  0.875000  0.472400  -0.134833
    N   N9   0.801000  0.545700  0.478500  -0.426622
    N   N10  0.189800  0.997500  0.010600  -0.128254
    O   O1   0.958200  0.075300  0.313800  -0.535152
    O   O2   0.951700  0.101700  0.119000  -0.592680
    O   O3   0.918600  0.849000  0.545800  -0.675845
    O   O4   0.954500  0.637700  0.584700  -0.654449
    O   O5   0.041800  0.924700  0.686200  -0.535146
    O   O6   0.048300  0.898300  0.881000  -0.592689
    O   O7   0.081400  0.151000  0.454200  -0.675836
    O   O8   0.045500  0.362300  0.415300  -0.654558
