# Generated by REPEAT Assigner based on pymatgen
data_DB12-REZJIR02_clean
_audit_creation_date              2022-05-24
_audit_creation_method            REPEAT_Assigner
_cell_length_a                    12.303400
_cell_length_b                    12.440800
_cell_length_c                    12.815600
_cell_angle_alpha                 90.000000
_cell_angle_beta                  91.190000
_cell_angle_gamma                 90.000000
_cell_volume                      1961.185703
_symmetry_space_group_name_H-M    P1
_symmetry_Int_Tables_number       1
loop_
    _symmetry_equiv_pos_site_id
    _symmetry_equiv_pos_as_xyz
    1  x,y,z
loop_
    _atom_site_type_symbol
    _atom_site_label
    _atom_site_fract_x
    _atom_site_fract_y
    _atom_site_fract_z
    _atom_type_partial_charge
    C   C1   0.719200  0.502760  0.022900  0.686550
    C   C2   0.774800  0.001230  0.986900  0.663592
    C   C3   0.736900  0.271100  0.755300  0.592568
    C   C4   0.752800  0.780800  0.241500  0.723900
    C   C5   0.010500  0.717400  0.996500  0.569211
    C   C6   0.492500  0.229500  0.043200  0.668302
    H   H1   0.790000  0.326000  0.759000  -0.020469
    H   H2   0.797000  0.833000  0.244000  -0.076918
    H   H3   0.005000  0.771000  0.938000  0.021149
    H   H4   0.496000  0.305000  0.077000  -0.056566
    H   H5   0.779000  0.504000  0.073000  -0.043787
    H   H6   0.710000  0.996000  0.941000  -0.037033
    Mn  Mn1  0.740300  0.252810  0.007800  1.256779
    Mn  Mn2  0.759290  0.752410  0.993470  1.289239
    O   O1   0.578210  0.191950  0.017820  -0.498355
    O   O2   0.921700  0.686970  0.029700  -0.487196
    O   O3   0.806030  0.090380  0.018450  -0.513398
    O   O4   0.100340  0.683170  0.025200  -0.491736
    O   O5   0.401370  0.188230  0.037940  -0.537743
    O   O6   0.706900  0.233810  0.839950  -0.490739
    O   O7   0.817610  0.914450  0.009400  -0.548461
    O   O8   0.674440  0.415150  0.002620  -0.541000
    O   O9   0.702500  0.240790  0.670210  -0.513751
    O   O10  0.727500  0.740590  0.157710  -0.540311
    O   O11  0.721100  0.751030  0.327460  -0.564612
    O   O12  0.699650  0.587900  0.979760  -0.509226
    C   C7   0.780800  0.002760  0.477100  0.686543
    C   C8   0.725200  0.501230  0.513100  0.663584
    C   C9   0.763100  0.771100  0.744700  0.592588
    C   C10  0.747200  0.280800  0.258500  0.723871
    C   C11  0.489500  0.217400  0.503500  0.569201
    C   C12  0.007500  0.729500  0.456800  0.668254
    H   H7   0.710000  0.826000  0.741000  -0.020474
    H   H8   0.703000  0.333000  0.256000  -0.076913
    H   H9   0.495000  0.271000  0.562000  0.021141
    H   H10  0.004000  0.805000  0.423000  -0.056553
    H   H11  0.721000  0.004000  0.427000  -0.043793
    H   H12  0.790000  0.496000  0.559000  -0.037035
    Mn  Mn3  0.759700  0.752810  0.492200  1.256781
    Mn  Mn4  0.740710  0.252410  0.506530  1.289223
    O   O13  0.921790  0.691950  0.482180  -0.498330
    O   O14  0.578300  0.186970  0.470300  -0.487190
    O   O15  0.693970  0.590380  0.481550  -0.513402
    O   O16  0.399660  0.183170  0.474800  -0.491721
    O   O17  0.098630  0.688230  0.462060  -0.537721
    O   O18  0.793100  0.733810  0.660050  -0.490752
    O   O19  0.682390  0.414450  0.490600  -0.548448
    O   O20  0.825560  0.915150  0.497380  -0.541000
    O   O21  0.797500  0.740790  0.829790  -0.513756
    O   O22  0.772500  0.240590  0.342290  -0.540290
    O   O23  0.778900  0.251030  0.172540  -0.564591
    O   O24  0.800350  0.087900  0.520240  -0.509220
    C   C13  0.280800  0.497240  0.977100  0.686551
    C   C14  0.225200  0.998770  0.013100  0.663591
    C   C15  0.263100  0.728900  0.244700  0.592580
    C   C16  0.247200  0.219200  0.758500  0.723866
    C   C17  0.989500  0.282600  0.003500  0.569214
    C   C18  0.507500  0.770500  0.956800  0.668296
    H   H13  0.210000  0.674000  0.241000  -0.020466
    H   H14  0.203000  0.167000  0.756000  -0.076913
    H   H15  0.995000  0.229000  0.062000  0.021145
    H   H16  0.504000  0.695000  0.923000  -0.056564
    H   H17  0.221000  0.496000  0.927000  -0.043790
    H   H18  0.290000  0.004000  0.059000  -0.037028
    Mn  Mn5  0.259700  0.747190  0.992200  1.256780
    Mn  Mn6  0.240710  0.247590  0.006530  1.289234
    O   O25  0.421790  0.808050  0.982180  -0.498354
    O   O26  0.078300  0.313030  0.970300  -0.487200
    O   O27  0.193970  0.909620  0.981550  -0.513403
    O   O28  0.899660  0.316830  0.974800  -0.491732
    O   O29  0.598630  0.811770  0.962060  -0.537740
    O   O30  0.293100  0.766190  0.160050  -0.490741
    O   O31  0.182390  0.085550  0.990600  -0.548455
    O   O32  0.325560  0.584850  0.997380  -0.541002
    O   O33  0.297500  0.759210  0.329790  -0.513780
    O   O34  0.272500  0.259410  0.842290  -0.540294
    O   O35  0.278900  0.248970  0.672540  -0.564584
    O   O36  0.300350  0.412100  0.020240  -0.509227
    C   C19  0.219200  0.997240  0.522900  0.686545
    C   C20  0.274800  0.498770  0.486900  0.663574
    C   C21  0.236900  0.228900  0.255300  0.592558
    C   C22  0.252800  0.719200  0.741500  0.723859
    C   C23  0.510500  0.782600  0.496500  0.569101
    C   C24  0.992500  0.270500  0.543200  0.668277
    H   H19  0.290000  0.174000  0.259000  -0.020463
    H   H20  0.297000  0.667000  0.744000  -0.076902
    H   H21  0.505000  0.729000  0.438000  0.021216
    H   H22  0.996000  0.195000  0.577000  -0.056558
    H   H23  0.279000  0.996000  0.573000  -0.043797
    H   H24  0.210000  0.504000  0.441000  -0.037032
    Mn  Mn7  0.240300  0.247190  0.507800  1.256769
    Mn  Mn8  0.259290  0.747590  0.493470  1.289228
    O   O37  0.078210  0.308050  0.517820  -0.498347
    O   O38  0.421700  0.813030  0.529700  -0.487159
    O   O39  0.306030  0.409620  0.518450  -0.513387
    O   O40  0.600340  0.816830  0.525200  -0.491696
    O   O41  0.901370  0.311770  0.537940  -0.537729
    O   O42  0.206900  0.266190  0.339950  -0.490735
    O   O43  0.317610  0.585550  0.509400  -0.548458
    O   O44  0.174440  0.084850  0.502620  -0.540995
    O   O45  0.202500  0.259210  0.170210  -0.513747
    O   O46  0.227500  0.759410  0.657710  -0.540293
    O   O47  0.221100  0.748970  0.827460  -0.564584
    O   O48  0.199650  0.912100  0.479760  -0.509216
