# Generated by REPEAT Assigner based on pymatgen
data_DB12-NUYWEK_clean
_audit_creation_date              2022-05-24
_audit_creation_method            REPEAT_Assigner
_cell_length_a                    9.147000
_cell_length_b                    9.219000
_cell_length_c                    14.604000
_cell_angle_alpha                 97.973000
_cell_angle_beta                  104.956000
_cell_angle_gamma                 104.565000
_cell_volume                      1123.915460
_symmetry_space_group_name_H-M    P1
_symmetry_Int_Tables_number       1
loop_
    _symmetry_equiv_pos_site_id
    _symmetry_equiv_pos_as_xyz
    1  x,y,z
loop_
    _atom_site_type_symbol
    _atom_site_label
    _atom_site_fract_x
    _atom_site_fract_y
    _atom_site_fract_z
    _atom_type_partial_charge
    Cd  Cd1  0.597160  0.079040  0.188770  1.193564
    Cd  Cd2  0.338340  0.247580  0.596020  1.190050
    H   H1   0.925300  0.159600  0.506600  0.153608
    H   H2   0.756600  0.170300  0.606000  0.237826
    H   H3   0.176100  0.205000  0.775000  0.142408
    H   H4   0.105900  0.288400  0.908900  0.133430
    H   H5   0.995600  0.251300  0.038500  0.042916
    H   H6   0.566300  0.091000  0.855700  0.138114
    H   H7   0.654300  0.107100  0.725800  0.092676
    H   H8   0.180200  0.168300  0.363200  0.062905
    H   H9   0.015400  0.290800  0.262000  0.219234
    H   H10  0.195400  0.552100  0.524400  0.111429
    H   H11  0.034000  0.695500  0.486000  0.130763
    H   H12  0.902700  0.870100  0.427700  0.113953
    H   H13  0.792200  0.640900  0.157800  0.124654
    H   H14  0.933500  0.474800  0.206700  0.143216
    H   H15  0.261600  0.138100  0.226500  0.032009
    H   H16  0.996500  0.014200  0.123900  0.205096
    H   H17  0.272900  0.783500  0.057000  0.082999
    H   H18  0.780100  0.792300  0.034200  0.155175
    H   H19  0.579900  0.621900  0.906300  0.124312
    H   H20  0.879700  0.499800  0.783900  0.118892
    H   H21  0.089200  0.683600  0.902700  0.149223
    H   H22  0.701700  0.189800  0.420300  0.072150
    H   H23  0.654300  0.390200  0.520800  0.168005
    H   H24  0.529700  0.438900  0.247300  0.079043
    H   H25  0.648400  0.634100  0.567500  0.114361
    H   H26  0.549300  0.820600  0.620600  0.058606
    H   H27  0.357200  0.844900  0.343000  0.145722
    H   H28  0.432100  0.624100  0.293800  0.091369
    C   C1   0.955100  0.171800  0.573700  -0.005071
    C   C2   0.863200  0.175700  0.627700  -0.361919
    C   C3   0.093900  0.196000  0.719500  0.051474
    C   C4   0.888200  0.188100  0.803300  -0.209915
    C   C5   0.997900  0.244200  0.897700  -0.129477
    C   C6   0.928000  0.226900  0.975300  -0.038944
    C   C7   0.777800  0.180000  0.961900  0.031164
    C   C8   0.674600  0.130000  0.865500  -0.192013
    C   C9   0.725500  0.136400  0.788200  0.102533
    C   C10  0.707600  0.156900  0.044200  0.612775
    C   C11  0.164000  0.261800  0.383000  0.258947
    C   C12  0.073200  0.328800  0.327300  -0.380990
    C   C13  0.172900  0.472400  0.471400  0.032081
    C   C14  0.002400  0.570500  0.353000  0.203610
    C   C15  0.989500  0.685500  0.419700  -0.205990
    C   C16  0.906700  0.788200  0.384300  -0.074546
    C   C17  0.833900  0.767600  0.288300  -0.084334
    C   C18  0.843400  0.652600  0.223500  -0.034409
    C   C19  0.926900  0.552200  0.252200  -0.264001
    C   C20  0.742300  0.875300  0.254800  0.606581
    C   C21  0.230700  0.052100  0.176400  0.169700
    C   C22  0.085300  0.984200  0.121200  -0.262765
    C   C23  0.238200  0.860800  0.084000  0.193087
    C   C24  0.957300  0.755900  0.982500  0.043178
    C   C25  0.802700  0.738300  0.983600  -0.108017
    C   C26  0.684000  0.636200  0.905700  -0.163285
    C   C27  0.707000  0.554900  0.828200  0.043231
    C   C28  0.860000  0.564100  0.831200  -0.038734
    C   C29  0.986000  0.670000  0.904800  -0.270949
    C   C30  0.577100  0.445000  0.748400  0.631761
    C   C31  0.661100  0.266300  0.399000  0.184123
    C   C32  0.638800  0.377400  0.454300  -0.326534
    C   C33  0.568800  0.404300  0.302800  0.141338
    C   C34  0.536000  0.605500  0.422800  0.163256
    C   C35  0.582100  0.670900  0.523100  -0.168988
    C   C36  0.530000  0.786700  0.554300  -0.029649
    C   C37  0.444900  0.858200  0.488100  -0.002769
    C   C38  0.409800  0.799800  0.388900  -0.191336
    C   C39  0.457900  0.666700  0.359600  -0.122122
    C   C40  0.401200  0.989500  0.522600  0.589655
    N   N1   0.111000  0.189600  0.635900  -0.423362
    N   N2   0.947800  0.188800  0.720400  0.349252
    N   N3   0.229400  0.353700  0.474100  -0.500382
    N   N4   0.080500  0.462800  0.383500  0.183735
    N   N5   0.331700  0.978800  0.150100  -0.520770
    N   N6   0.087500  0.860000  0.058200  0.129219
    N   N7   0.614800  0.280500  0.303800  -0.490399
    N   N8   0.586900  0.474500  0.395000  0.144926
    O   O1   0.805900  0.169000  0.127100  -0.642655
    O   O2   0.567700  0.131100  0.032400  -0.626511
    O   O3   0.759900  0.997400  0.312000  -0.632859
    O   O4   0.652900  0.838300  0.166400  -0.631193
    O   O5   0.598200  0.407700  0.669600  -0.654755
    O   O6   0.447000  0.384800  0.763800  -0.654522
    O   O7   0.392600  0.015200  0.612400  -0.658230
    O   O8   0.358400  0.071500  0.468000  -0.590938
