# Generated by REPEAT Assigner based on pymatgen
data_DB12-VIPXUO_clean
_audit_creation_date              2022-05-24
_audit_creation_method            REPEAT_Assigner
_cell_length_a                    8.686400
_cell_length_b                    14.241400
_cell_length_c                    16.885000
_cell_angle_alpha                 90.000000
_cell_angle_beta                  100.046000
_cell_angle_gamma                 90.000000
_cell_volume                      2056.759008
_symmetry_space_group_name_H-M    P1
_symmetry_Int_Tables_number       1
loop_
    _symmetry_equiv_pos_site_id
    _symmetry_equiv_pos_as_xyz
    1  x,y,z
loop_
    _atom_site_type_symbol
    _atom_site_label
    _atom_site_fract_x
    _atom_site_fract_y
    _atom_site_fract_z
    _atom_type_partial_charge
    Co  Co1  0.713650  0.240310  0.766850  0.924296
    Co  Co2  0.786350  0.740310  0.733150  0.924296
    Co  Co3  0.286350  0.759690  0.233150  0.924293
    Co  Co4  0.213650  0.259690  0.266850  0.924297
    H   H1   0.446200  0.143500  0.550700  0.152823
    H   H2   0.909500  0.577000  0.517100  -0.089816
    H   H3   0.741500  0.452200  0.480500  -0.063129
    H   H4   0.816300  0.431500  0.404200  -0.065021
    H   H5   0.173700  0.569300  0.263800  0.171678
    H   H6   0.069200  0.481400  0.353000  0.112327
    H   H7   0.956300  0.720500  0.453700  0.211368
    H   H8   0.065100  0.800900  0.359600  0.101616
    H   H9   0.591400  0.606300  0.481900  0.107236
    H   H10  0.424600  0.707700  0.405400  0.095125
    H   H11  0.538400  0.611600  0.206600  0.140466
    H   H12  0.710000  0.507100  0.280400  0.191375
    H   H13  0.053800  0.643500  0.949300  0.152828
    H   H14  0.590500  0.077000  0.982900  -0.089790
    H   H15  0.758500  0.952200  0.019500  -0.063149
    H   H16  0.683700  0.931500  0.095800  -0.065026
    H   H17  0.326300  0.069300  0.236200  0.171681
    H   H18  0.430800  0.981400  0.147000  0.112337
    H   H19  0.543700  0.220500  0.046300  0.211367
    H   H20  0.434900  0.300900  0.140400  0.101623
    H   H21  0.908600  0.106300  0.018100  0.107229
    H   H22  0.075400  0.207700  0.094600  0.095126
    H   H23  0.961600  0.111600  0.293400  0.140462
    H   H24  0.790000  0.007100  0.219600  0.191381
    H   H25  0.553800  0.856500  0.449300  0.152835
    H   H26  0.090500  0.423000  0.482900  -0.089814
    H   H27  0.258500  0.547800  0.519500  -0.063131
    H   H28  0.183700  0.568500  0.595800  -0.065025
    H   H29  0.826300  0.430700  0.736200  0.171680
    H   H30  0.930800  0.518600  0.647000  0.112330
    H   H31  0.043700  0.279500  0.546300  0.211365
    H   H32  0.934900  0.199100  0.640400  0.101628
    H   H33  0.408600  0.393700  0.518100  0.107238
    H   H34  0.575400  0.292300  0.594600  0.095114
    H   H35  0.461600  0.388400  0.793400  0.140464
    H   H36  0.290000  0.492900  0.719600  0.191377
    H   H37  0.946200  0.356500  0.050700  0.152822
    H   H38  0.409500  0.923000  0.017100  -0.089831
    H   H39  0.241500  0.047800  0.980500  -0.063129
    H   H40  0.316300  0.068500  0.904200  -0.064981
    H   H41  0.673700  0.930700  0.763800  0.171676
    H   H42  0.569200  0.018600  0.853000  0.112289
    H   H43  0.456300  0.779500  0.953700  0.211371
    H   H44  0.565100  0.699100  0.859600  0.101614
    H   H45  0.091400  0.893700  0.981900  0.107280
    H   H46  0.924600  0.792300  0.905400  0.095108
    H   H47  0.038400  0.888400  0.706600  0.140457
    H   H48  0.210000  0.992900  0.780400  0.191403
    C   C1   0.263800  0.124900  0.413880  0.896147
    C   C2   0.379900  0.055600  0.457980  -0.050111
    C   C3   0.589900  0.032000  0.572380  0.088580
    C   C4   0.685600  0.073000  0.648120  0.598496
    C   C5   0.468600  0.085600  0.529990  -0.282032
    C   C6   0.938700  0.533200  0.477500  0.139617
    C   C7   0.788900  0.481100  0.438620  0.179856
    C   C8   0.131100  0.600300  0.303440  0.213601
    C   C9   0.068400  0.546600  0.356710  -0.384542
    C   C10  0.003700  0.590500  0.416350  0.342083
    C   C11  0.001700  0.687700  0.416080  -0.406435
    C   C12  0.068000  0.735600  0.359170  0.231540
    C   C13  0.672400  0.545400  0.389850  0.112837
    C   C14  0.583400  0.606050  0.426220  -0.245520
    C   C15  0.482300  0.666480  0.379450  0.214476
    C   C16  0.548300  0.610600  0.262300  0.151223
    C   C17  0.652600  0.547930  0.306950  -0.307811
    C   C18  0.236200  0.624900  0.086120  0.896156
    C   C19  0.120100  0.555600  0.042020  -0.050099
    C   C20  0.910100  0.532000  0.927620  0.088592
    C   C21  0.814400  0.573000  0.851880  0.598506
    C   C22  0.031400  0.585600  0.970010  -0.282054
    C   C23  0.561300  0.033200  0.022500  0.139486
    C   C24  0.711100  0.981100  0.061380  0.179908
    C   C25  0.368900  0.100300  0.196560  0.213600
    C   C26  0.431600  0.046600  0.143290  -0.384569
    C   C27  0.496300  0.090500  0.083650  0.342165
    C   C28  0.498300  0.187700  0.083920  -0.406448
    C   C29  0.432000  0.235600  0.140830  0.231530
    C   C30  0.827600  0.045400  0.110150  0.112832
    C   C31  0.916600  0.106050  0.073780  -0.245508
    C   C32  0.017700  0.166480  0.120550  0.214482
    C   C33  0.951700  0.110600  0.237700  0.151240
    C   C34  0.847400  0.047930  0.193050  -0.307834
    C   C35  0.736200  0.875100  0.586120  0.896131
    C   C36  0.620100  0.944400  0.542020  -0.050076
    C   C37  0.410100  0.968000  0.427620  0.088592
    C   C38  0.314400  0.927000  0.351880  0.598519
    C   C39  0.531400  0.914400  0.470010  -0.282069
    C   C40  0.061300  0.466800  0.522500  0.139612
    C   C41  0.211100  0.518900  0.561380  0.179863
    C   C42  0.868900  0.399700  0.696560  0.213600
    C   C43  0.931600  0.453400  0.643290  -0.384552
    C   C44  0.996300  0.409500  0.583650  0.342101
    C   C45  0.998300  0.312300  0.583920  -0.406447
    C   C46  0.932000  0.264400  0.640830  0.231542
    C   C47  0.327600  0.454600  0.610150  0.112845
    C   C48  0.416600  0.393950  0.573780  -0.245531
    C   C49  0.517700  0.333520  0.620550  0.214501
    C   C50  0.451700  0.389400  0.737700  0.151236
    C   C51  0.347400  0.452070  0.693050  -0.307822
    C   C52  0.763800  0.375100  0.913880  0.896147
    C   C53  0.879900  0.444400  0.957980  -0.050105
    C   C54  0.089900  0.468000  0.072380  0.088580
    C   C55  0.185600  0.427000  0.148120  0.598521
    C   C56  0.968600  0.414400  0.029990  -0.282041
    C   C57  0.438700  0.966800  0.977500  0.139692
    C   C58  0.288900  0.018900  0.938620  0.179726
    C   C59  0.631100  0.899700  0.803440  0.213589
    C   C60  0.568400  0.953400  0.856710  -0.384453
    C   C61  0.503700  0.909500  0.916350  0.342075
    C   C62  0.501700  0.812300  0.916080  -0.406455
    C   C63  0.568000  0.764400  0.859170  0.231552
    C   C64  0.172400  0.954600  0.889850  0.113121
    C   C65  0.083400  0.893950  0.926220  -0.245706
    C   C66  0.982300  0.833520  0.879450  0.214583
    C   C67  0.048300  0.889400  0.762300  0.151370
    C   C68  0.152600  0.952070  0.806950  -0.308074
    N   N1   0.135800  0.693350  0.303820  -0.401933
    N   N2   0.461600  0.669730  0.298860  -0.345880
    N   N3   0.364200  0.193350  0.196180  -0.401931
    N   N4   0.038400  0.169730  0.201140  -0.345891
    N   N5   0.864200  0.306650  0.696180  -0.401934
    N   N6   0.538400  0.330270  0.701140  -0.345899
    N   N7   0.635800  0.806650  0.803820  -0.401939
    N   N8   0.961600  0.830270  0.798860  -0.345974
    O   O1   0.305900  0.162280  0.354020  -0.781089
    O   O2   0.143100  0.145880  0.442060  -0.694099
    O   O3   0.820600  0.042300  0.669260  -0.601638
    O   O4   0.621600  0.136140  0.682660  -0.657717
    O   O5   0.194100  0.662280  0.145980  -0.781090
    O   O6   0.356900  0.645880  0.057940  -0.694103
    O   O7   0.679400  0.542300  0.830740  -0.601639
    O   O8   0.878400  0.636140  0.817340  -0.657721
    O   O9   0.694100  0.837720  0.645980  -0.781081
    O   O10  0.856900  0.854120  0.557940  -0.694101
    O   O11  0.179400  0.957700  0.330740  -0.601641
    O   O12  0.378400  0.863860  0.317340  -0.657733
    O   O13  0.805900  0.337720  0.854020  -0.781086
    O   O14  0.643100  0.354120  0.942060  -0.694100
    O   O15  0.320600  0.457700  0.169260  -0.601647
    O   O16  0.121600  0.363860  0.182660  -0.657731
