# Generated by REPEAT Assigner based on pymatgen
data_DB12-XEHSUZ_clean
_audit_creation_date              2022-05-24
_audit_creation_method            REPEAT_Assigner
_cell_length_a                    9.904700
_cell_length_b                    11.400700
_cell_length_c                    14.535700
_cell_angle_alpha                 91.317000
_cell_angle_beta                  90.000000
_cell_angle_gamma                 90.000000
_cell_volume                      1640.945108
_symmetry_space_group_name_H-M    P1
_symmetry_Int_Tables_number       1
loop_
    _symmetry_equiv_pos_site_id
    _symmetry_equiv_pos_as_xyz
    1  x,y,z
loop_
    _atom_site_type_symbol
    _atom_site_label
    _atom_site_fract_x
    _atom_site_fract_y
    _atom_site_fract_z
    _atom_type_partial_charge
    Mg  Mg1   0.579200  0.744720  0.365090  1.395194
    Mg  Mg2   0.387630  0.761270  0.190410  1.350392
    Mg  Mg3   0.079200  0.755280  0.134910  1.395189
    Mg  Mg4   0.887630  0.738730  0.309590  1.350379
    Mg  Mg5   0.420800  0.255280  0.634910  1.395190
    Mg  Mg6   0.612370  0.238730  0.809590  1.350392
    Mg  Mg7   0.920800  0.244720  0.865090  1.395193
    Mg  Mg8   0.112370  0.261270  0.690410  1.350376
    Mg  Mg9   0.500000  -0.000000  0.500000  1.454834
    Mg  Mg10  0.000000  0.500000  0.000000  1.454813
    Mg  Mg11  0.500000  0.500000  0.500000  1.511261
    Mg  Mg12  0.000000  0.000000  0.000000  1.511262
    H   H1    0.463000  0.022400  0.237600  -0.043142
    H   H2    0.877500  0.937700  0.458100  0.006262
    H   H3    0.786900  0.494800  0.471500  0.017211
    H   H4    0.739700  0.655400  0.127200  -0.044258
    H   H5    0.347800  0.802300  0.572300  -0.014829
    H   H6    0.291700  0.533500  0.278500  -0.021968
    H   H7    0.963000  0.477600  0.262400  -0.043137
    H   H8    0.377500  0.562300  0.041900  0.006259
    H   H9    0.286900  0.005200  0.028500  0.017208
    H   H10   0.239700  0.844600  0.372800  -0.044267
    H   H11   0.847800  0.697700  0.927700  -0.014822
    H   H12   0.791700  0.966500  0.221500  -0.021972
    H   H13   0.537000  0.977600  0.762400  -0.043144
    H   H14   0.122500  0.062300  0.541900  0.006258
    H   H15   0.213100  0.505200  0.528500  0.017208
    H   H16   0.260300  0.344600  0.872800  -0.044260
    H   H17   0.652200  0.197700  0.427700  -0.014827
    H   H18   0.708300  0.466500  0.721500  -0.021966
    H   H19   0.037000  0.522400  0.737600  -0.043136
    H   H20   0.622500  0.437700  0.958100  0.006260
    H   H21   0.713100  0.994800  0.971500  0.017213
    H   H22   0.760300  0.155400  0.627200  -0.044265
    H   H23   0.152200  0.302300  0.072300  -0.014826
    H   H24   0.208300  0.033500  0.778500  -0.021974
    C   C1    0.482880  0.980740  0.290110  0.780337
    C   C2    0.786490  0.920430  0.449980  0.644396
    C   C3    0.771260  0.560760  0.436520  0.641189
    C   C4    0.670570  0.680660  0.166170  0.764903
    C   C5    0.404100  0.759200  0.533050  0.744305
    C   C6    0.358960  0.557150  0.319540  0.698533
    C   C7    0.982880  0.519260  0.209890  0.780324
    C   C8    0.286490  0.579570  0.050020  0.644406
    C   C9    0.271260  0.939240  0.063480  0.641202
    C   C10   0.170570  0.819340  0.333830  0.764907
    C   C11   0.904100  0.740800  0.966950  0.744277
    C   C12   0.858960  0.942850  0.180460  0.698540
    C   C13   0.517120  0.019260  0.709890  0.780346
    C   C14   0.213510  0.079570  0.550020  0.644401
    C   C15   0.228740  0.439240  0.563480  0.641192
    C   C16   0.329430  0.319340  0.833830  0.764903
    C   C17   0.595900  0.240800  0.466950  0.744298
    C   C18   0.641040  0.442850  0.680460  0.698526
    C   C19   0.017120  0.480740  0.790110  0.780313
    C   C20   0.713510  0.420430  0.949980  0.644403
    C   C21   0.728740  0.060760  0.936520  0.641191
    C   C22   0.829430  0.180660  0.666170  0.764912
    C   C23   0.095900  0.259200  0.033050  0.744291
    C   C24   0.141040  0.057150  0.819540  0.698547
    O   O1    0.493250  0.869790  0.280840  -0.756667
    O   O2    0.496900  0.037900  0.362590  -0.688012
    O   O3    0.756520  0.840160  0.389990  -0.684859
    O   O4    0.705130  0.976530  0.497700  -0.626380
    O   O5    0.649810  0.597840  0.432710  -0.719785
    O   O6    0.870290  0.604320  0.398040  -0.631394
    O   O7    0.699720  0.696000  0.251210  -0.758285
    O   O8    0.558140  0.696480  0.131010  -0.693287
    O   O9    0.475240  0.816310  0.475500  -0.754709
    O   O10   0.404420  0.651660  0.540470  -0.699078
    O   O11   0.420250  0.652670  0.302800  -0.715679
    O   O12   0.380760  0.493300  0.385210  -0.673429
    O   O13   0.993250  0.630210  0.219160  -0.756663
    O   O14   0.996900  0.462100  0.137410  -0.688004
    O   O15   0.256520  0.659840  0.110010  -0.684868
    O   O16   0.205130  0.523470  0.002300  -0.626383
    O   O17   0.149810  0.902160  0.067290  -0.719800
    O   O18   0.370290  0.895680  0.101960  -0.631397
    O   O19   0.199720  0.804000  0.248790  -0.758284
    O   O20   0.058140  0.803520  0.368990  -0.693282
    O   O21   0.975240  0.683690  0.024500  -0.754687
    O   O22   0.904420  0.848340  0.959530  -0.699073
    O   O23   0.920250  0.847330  0.197200  -0.715674
    O   O24   0.880760  0.006700  0.114790  -0.673435
    O   O25   0.506750  0.130210  0.719160  -0.756669
    O   O26   0.503100  0.962100  0.637410  -0.688018
    O   O27   0.243480  0.159840  0.610010  -0.684862
    O   O28   0.294870  0.023470  0.502300  -0.626379
    O   O29   0.350190  0.402160  0.567290  -0.719788
    O   O30   0.129710  0.395680  0.601960  -0.631390
    O   O31   0.300280  0.304000  0.748790  -0.758282
    O   O32   0.441860  0.303520  0.868990  -0.693285
    O   O33   0.524760  0.183690  0.524500  -0.754698
    O   O34   0.595580  0.348340  0.459530  -0.699079
    O   O35   0.579750  0.347330  0.697200  -0.715674
    O   O36   0.619240  0.506700  0.614790  -0.673430
    O   O37   0.006750  0.369790  0.780840  -0.756656
    O   O38   0.003100  0.537900  0.862590  -0.687991
    O   O39   0.743480  0.340160  0.889990  -0.684869
    O   O40   0.794870  0.476530  0.997700  -0.626377
    O   O41   0.850190  0.097840  0.932710  -0.719781
    O   O42   0.629710  0.104320  0.898040  -0.631396
    O   O43   0.800280  0.196000  0.751210  -0.758293
    O   O44   0.941860  0.196480  0.631010  -0.693284
    O   O45   0.024760  0.316310  0.975500  -0.754697
    O   O46   0.095580  0.151660  0.040470  -0.699074
    O   O47   0.079750  0.152670  0.802800  -0.715674
    O   O48   0.119240  0.993300  0.885210  -0.673439
