# Generated by REPEAT Assigner based on pymatgen
data_DB12-MALSOK_clean
_audit_creation_date              2022-05-24
_audit_creation_method            REPEAT_Assigner
_cell_length_a                    21.847000
_cell_length_b                    21.847000
_cell_length_c                    6.872900
_cell_angle_alpha                 90.000000
_cell_angle_beta                  90.000000
_cell_angle_gamma                 120.000000
_cell_volume                      2840.889058
_symmetry_space_group_name_H-M    P1
_symmetry_Int_Tables_number       1
loop_
    _symmetry_equiv_pos_site_id
    _symmetry_equiv_pos_as_xyz
    1  x,y,z
loop_
    _atom_site_type_symbol
    _atom_site_label
    _atom_site_fract_x
    _atom_site_fract_y
    _atom_site_fract_z
    _atom_type_partial_charge
    Fe  Fe1  0.612900  0.285400  0.156000  1.058647
    O   O1   0.646000  0.241600  0.966000  -0.570698
    O   O2   0.637100  0.279900  0.583000  -0.512643
    O   O3   0.586400  0.205200  0.359000  -0.657060
    C   C1   0.613800  0.174400  0.878700  0.230793
    C   C2   0.594000  0.164900  0.681000  -0.231602
    C   C3   0.560200  0.095800  0.602900  -0.051880
    C   C4   0.544900  0.035500  0.710500  0.031660
    C   C5   0.563800  0.046500  0.908900  -0.188433
    C   C6   0.596200  0.113200  0.991100  -0.172927
    C   C7   0.605000  0.222900  0.548100  0.619591
    H   H1   0.547000  0.089800  0.469400  0.126003
    H   H2   0.553800  0.006700  0.988100  0.145226
    H   H3   0.607000  0.118200  0.126200  0.173200
    Fe  Fe2  0.714600  0.327500  0.822670  1.058115
    O   O4   0.758400  0.404400  0.632670  -0.570939
    O   O5   0.720100  0.357200  0.249670  -0.513270
    O   O6   0.794800  0.381200  0.025670  -0.657763
    C   C8   0.825600  0.439400  0.545370  0.231933
    C   C9   0.835100  0.429100  0.347670  -0.231812
    C   C10  0.904200  0.464400  0.269570  -0.052917
    C   C11  0.964500  0.509400  0.377170  0.032016
    C   C12  0.953500  0.517300  0.575570  -0.187991
    C   C13  0.886800  0.483000  0.657770  -0.172288
    C   C14  0.777100  0.382100  0.214770  0.620426
    H   H4   0.910200  0.457200  0.136070  0.126508
    H   H5   0.993300  0.547100  0.654770  0.144719
    H   H6   0.881800  0.488800  0.792870  0.172580
    Fe  Fe3  0.672500  0.387100  0.489330  1.058669
    O   O7   0.595600  0.354000  0.299330  -0.569336
    O   O8   0.642800  0.362900  0.916330  -0.509013
    O   O9   0.618800  0.413600  0.692330  -0.656964
    C   C15  0.560600  0.386200  0.212030  0.224723
    C   C16  0.570900  0.406000  0.014330  -0.228403
    C   C17  0.535600  0.439800  0.936230  -0.052096
    C   C18  0.490600  0.455100  0.043830  0.032861
    C   C19  0.482700  0.436200  0.242230  -0.192779
    C   C20  0.517000  0.403800  0.324430  -0.165707
    C   C21  0.617900  0.395000  0.881430  0.615248
    H   H7   0.542800  0.453000  0.802730  0.126464
    H   H8   0.452900  0.446200  0.321430  0.146018
    H   H9   0.511200  0.393000  0.459530  0.171269
    Fe  Fe4  0.285400  0.612900  0.844000  1.058314
    O   O10  0.241600  0.646000  0.034000  -0.570967
    O   O11  0.279900  0.637100  0.417000  -0.512539
    O   O12  0.205200  0.586400  0.641000  -0.656733
    C   C22  0.174400  0.613800  0.121300  0.231017
    C   C23  0.164900  0.594000  0.319000  -0.231325
    C   C24  0.095800  0.560200  0.397100  -0.052253
    C   C25  0.035500  0.544900  0.289500  0.031875
    C   C26  0.046500  0.563800  0.091100  -0.188581
    C   C27  0.113200  0.596200  0.008900  -0.173049
    C   C28  0.222900  0.605000  0.451900  0.619329
    H   H10  0.089800  0.547000  0.530600  0.126057
    H   H11  0.006700  0.553800  0.011900  0.145320
    H   H12  0.118200  0.607000  0.873800  0.173239
    Fe  Fe5  0.327500  0.714600  0.177330  1.058624
    O   O13  0.404400  0.758400  0.367330  -0.570164
    O   O14  0.357200  0.720100  0.750330  -0.513097
    O   O15  0.381200  0.794800  0.974330  -0.658006
    C   C29  0.439400  0.825600  0.454630  0.230693
    C   C30  0.429100  0.835100  0.652330  -0.231822
    C   C31  0.464400  0.904200  0.730430  -0.052366
    C   C32  0.509400  0.964500  0.622830  0.031941
    C   C33  0.517300  0.953500  0.424430  -0.188304
    C   C34  0.483000  0.886800  0.342230  -0.171317
    C   C35  0.382100  0.777100  0.785230  0.620510
    H   H13  0.457200  0.910200  0.863930  0.126343
    H   H14  0.547100  0.993300  0.345230  0.144767
    H   H15  0.488800  0.881800  0.207130  0.172342
    Fe  Fe6  0.387100  0.672500  0.510670  1.057310
    O   O16  0.354000  0.595600  0.700670  -0.568909
    O   O17  0.362900  0.642800  0.083670  -0.508818
    O   O18  0.413600  0.618800  0.307670  -0.656453
    C   C36  0.386200  0.560600  0.787970  0.225040
    C   C37  0.406000  0.570900  0.985670  -0.228474
    C   C38  0.439800  0.535600  0.063770  -0.051890
    C   C39  0.455100  0.490600  0.956170  0.032322
    C   C40  0.436200  0.482700  0.757770  -0.192215
    C   C41  0.403800  0.517000  0.675570  -0.165981
    C   C42  0.395000  0.617900  0.118570  0.614779
    H   H16  0.453000  0.542800  0.197270  0.126386
    H   H17  0.446200  0.452900  0.678570  0.145753
    H   H18  0.393000  0.511200  0.540470  0.171159
