# Generated by REPEAT Assigner based on pymatgen
data_DB12-TEMPAE_freeONLY
_audit_creation_date              2022-05-24
_audit_creation_method            REPEAT_Assigner
_cell_length_a                    22.734500
_cell_length_b                    22.734500
_cell_length_c                    25.135400
_cell_angle_alpha                 63.112400
_cell_angle_beta                  63.112400
_cell_angle_gamma                 60.000000
_cell_volume                      9595.000811
_symmetry_space_group_name_H-M    P1
_symmetry_Int_Tables_number       1
loop_
    _symmetry_equiv_pos_site_id
    _symmetry_equiv_pos_as_xyz
    1  x,y,z
loop_
    _atom_site_type_symbol
    _atom_site_label
    _atom_site_fract_x
    _atom_site_fract_y
    _atom_site_fract_z
    _atom_type_partial_charge
    Zn  Zn1   0.180280  0.027260  0.737140  1.351387
    Zn  Zn2   0.027260  0.055320  0.737140  1.357785
    Zn  Zn3   0.055320  0.180280  0.737140  1.355269
    Zn  Zn4   0.680280  0.555320  0.237140  1.355336
    Zn  Zn5   0.527260  0.680280  0.237140  1.351464
    Zn  Zn6   0.555320  0.527260  0.237140  1.357707
    Zn  Zn7   0.048530  0.048530  0.854410  1.337293
    Zn  Zn8   0.548530  0.548530  0.354410  1.337284
    H   H1    0.323100  0.878600  0.849700  0.192658
    H   H2    0.141400  0.882400  0.987700  0.197175
    H   H3    0.437300  0.752800  0.941800  0.041410
    H   H4    0.431500  0.832100  0.913000  0.060977
    H   H5    0.435200  0.793600  0.872500  0.074020
    H   H6    0.140400  0.836300  0.095100  0.088428
    H   H7    0.211700  0.796700  0.112500  0.054287
    H   H8    0.185100  0.756300  0.096900  0.045516
    H   H9    0.396100  0.794600  0.125400  0.246281
    H   H10   0.424600  0.605200  0.125700  0.253992
    H   H11   0.345000  0.900200  0.003900  0.088090
    H   H12   0.271300  0.900600  0.052800  0.086610
    H   H13   0.328100  0.901600  0.071100  0.071935
    H   H14   0.395400  0.632500  0.009600  0.064894
    H   H15   0.352600  0.603300  0.078300  0.062145
    H   H16   0.313300  0.672600  0.033300  0.084202
    H   H17   0.878600  0.948600  0.849700  0.195656
    H   H18   0.882400  0.988500  0.987700  0.197711
    H   H19   0.752800  0.868100  0.941800  0.038881
    H   H20   0.832100  0.823400  0.913000  0.060520
    H   H21   0.793600  0.898700  0.872500  0.073669
    H   H22   0.836300  0.928200  0.095100  0.088598
    H   H23   0.796700  0.879100  0.112500  0.054414
    H   H24   0.756300  0.961700  0.096900  0.048925
    H   H25   0.794600  0.683900  0.125400  0.245228
    H   H26   0.605200  0.844500  0.125700  0.253508
    H   H27   0.900200  0.750900  0.003900  0.081985
    H   H28   0.900600  0.775300  0.052800  0.081892
    H   H29   0.901600  0.699200  0.071100  0.066456
    H   H30   0.632500  0.962500  0.009600  0.063356
    H   H31   0.603300  0.965800  0.078300  0.059941
    H   H32   0.672600  0.980800  0.033300  0.078802
    H   H33   0.948600  0.323100  0.849700  0.194043
    H   H34   0.988500  0.141400  0.987700  0.196051
    H   H35   0.868100  0.437300  0.941800  0.040011
    H   H36   0.823400  0.431500  0.913000  0.059996
    H   H37   0.898700  0.435200  0.872500  0.072404
    H   H38   0.928200  0.140400  0.095100  0.087295
    H   H39   0.879100  0.211700  0.112500  0.051943
    H   H40   0.961700  0.185100  0.096900  0.043139
    H   H41   0.683900  0.396100  0.125400  0.246585
    H   H42   0.844500  0.424600  0.125700  0.256873
    H   H43   0.750900  0.345000  0.003900  0.086053
    H   H44   0.775300  0.271300  0.052800  0.085544
    H   H45   0.699200  0.328100  0.071100  0.070853
    H   H46   0.962500  0.395400  0.009600  0.064497
    H   H47   0.965800  0.352600  0.078300  0.061805
    H   H48   0.980800  0.313300  0.033300  0.084579
    H   H49   0.823100  0.448600  0.349700  0.194195
    H   H50   0.641400  0.488500  0.487700  0.195859
    H   H51   0.937300  0.368100  0.441800  0.040044
    H   H52   0.931500  0.323400  0.413000  0.060015
    H   H53   0.935200  0.398700  0.372500  0.072411
    H   H54   0.640400  0.428200  0.595100  0.087503
    H   H55   0.711700  0.379100  0.612500  0.051834
    H   H56   0.685100  0.461700  0.596900  0.043037
    H   H57   0.896100  0.183900  0.625400  0.246372
    H   H58   0.924600  0.344500  0.625700  0.256650
    H   H59   0.845000  0.250900  0.503900  0.086193
    H   H60   0.771300  0.275300  0.552800  0.085708
    H   H61   0.828100  0.199200  0.571100  0.070906
    H   H62   0.895400  0.462500  0.509600  0.064476
    H   H63   0.852600  0.465800  0.578300  0.061676
    H   H64   0.813300  0.480800  0.533300  0.084583
    H   H65   0.378600  0.823100  0.349700  0.192451
    H   H66   0.382400  0.641400  0.487700  0.197313
    H   H67   0.252800  0.937300  0.441800  0.041367
    H   H68   0.332100  0.931500  0.413000  0.060874
    H   H69   0.293600  0.935200  0.372500  0.073903
    H   H70   0.336300  0.640400  0.595100  0.088427
    H   H71   0.296700  0.711700  0.612500  0.054457
    H   H72   0.256300  0.685100  0.596900  0.045717
    H   H73   0.294600  0.896100  0.625400  0.246428
    H   H74   0.105200  0.924600  0.625700  0.254166
    H   H75   0.400200  0.845000  0.503900  0.087880
    H   H76   0.400600  0.771300  0.552800  0.086475
    H   H77   0.401600  0.828100  0.571100  0.071955
    H   H78   0.132500  0.895400  0.509600  0.064953
    H   H79   0.103300  0.852600  0.578300  0.062252
    H   H80   0.172600  0.813300  0.533300  0.084253
    H   H81   0.448600  0.378600  0.349700  0.195723
    H   H82   0.488500  0.382400  0.487700  0.197749
    H   H83   0.368100  0.252800  0.441800  0.038904
    H   H84   0.323400  0.332100  0.413000  0.060613
    H   H85   0.398700  0.293600  0.372500  0.073795
    H   H86   0.428200  0.336300  0.595100  0.088337
    H   H87   0.379100  0.296700  0.612500  0.054344
    H   H88   0.461700  0.256300  0.596900  0.048827
    H   H89   0.183900  0.294600  0.625400  0.245287
    H   H90   0.344500  0.105200  0.625700  0.253550
    H   H91   0.250900  0.400200  0.503900  0.082037
    H   H92   0.275300  0.400600  0.552800  0.081840
    H   H93   0.199200  0.401600  0.571100  0.066362
    H   H94   0.462500  0.132500  0.509600  0.063320
    H   H95   0.465800  0.103300  0.578300  0.059968
    H   H96   0.480800  0.172600  0.533300  0.078749
    C   C1    0.184540  0.940740  0.866980  0.617477
    C   C2    0.225450  0.889050  0.912550  0.180220
    C   C3    0.299200  0.865800  0.892000  -0.427437
    C   C4    0.336650  0.822950  0.935950  0.285365
    C   C5    0.302200  0.802800  0.998200  -0.216709
    C   C6    0.227680  0.823880  0.018960  0.250245
    C   C7    0.190580  0.867480  0.974860  -0.383982
    C   C8    0.417760  0.797960  0.913720  -0.208524
    C   C9    0.187600  0.801200  0.087000  -0.184165
    C   C10   0.455700  0.657700  0.181200  0.582013
    C   C11   0.414490  0.695690  0.133830  0.244385
    C   C12   0.388410  0.768310  0.111270  -0.523117
    C   C13   0.351360  0.802860  0.068820  0.338943
    C   C14   0.341770  0.764770  0.045990  -0.121770
    C   C15   0.369690  0.690290  0.066330  0.263994
    C   C16   0.406330  0.654530  0.111210  -0.509283
    C   C17   0.321210  0.883810  0.047070  -0.298962
    C   C18   0.356570  0.645470  0.044790  -0.205008
    C   C19   0.940740  0.007740  0.866980  0.624359
    C   C20   0.889050  0.972950  0.912550  0.177540
    C   C21   0.865800  0.943000  0.892000  -0.432564
    C   C22   0.822950  0.904450  0.935950  0.288022
    C   C23   0.802800  0.896800  0.998200  -0.216239
    C   C24   0.823880  0.929480  0.018960  0.251000
    C   C25   0.867480  0.967080  0.974860  -0.384516
    C   C26   0.797960  0.870560  0.913720  -0.207791
    C   C27   0.801200  0.924200  0.087000  -0.191229
    C   C28   0.657700  0.705400  0.181200  0.584937
    C   C29   0.695690  0.755990  0.133830  0.239882
    C   C30   0.768310  0.732010  0.111270  -0.517034
    C   C31   0.802860  0.776960  0.068820  0.325786
    C   C32   0.764770  0.847470  0.045990  -0.104573
    C   C33   0.690290  0.873690  0.066330  0.255317
    C   C34   0.654530  0.827930  0.111210  -0.507088
    C   C35   0.883810  0.747910  0.047070  -0.279545
    C   C36   0.645470  0.953170  0.044790  -0.195067
    C   C37   0.007740  0.184540  0.866980  0.611216
    C   C38   0.972950  0.225450  0.912550  0.187245
    C   C39   0.943000  0.299200  0.892000  -0.432440
    C   C40   0.904450  0.336650  0.935950  0.290318
    C   C41   0.896800  0.302200  0.998200  -0.224172
    C   C42   0.929480  0.227680  0.018960  0.248635
    C   C43   0.967080  0.190580  0.974860  -0.384948
    C   C44   0.870560  0.417760  0.913720  -0.204883
    C   C45   0.924200  0.187600  0.087000  -0.176422
    C   C46   0.705400  0.455700  0.181200  0.582447
    C   C47   0.755990  0.414490  0.133830  0.249891
    C   C48   0.732010  0.388410  0.111270  -0.523206
    C   C49   0.776960  0.351360  0.068820  0.332140
    C   C50   0.847470  0.341770  0.045990  -0.113773
    C   C51   0.873690  0.369690  0.066330  0.265330
    C   C52   0.827930  0.406330  0.111210  -0.516876
    C   C53   0.747910  0.321210  0.047070  -0.293155
    C   C54   0.953170  0.356570  0.044790  -0.204439
    C   C55   0.684540  0.507740  0.366980  0.610622
    C   C56   0.725450  0.472950  0.412550  0.187252
    C   C57   0.799200  0.443000  0.392000  -0.432673
    C   C58   0.836650  0.404450  0.435950  0.290310
    C   C59   0.802200  0.396800  0.498200  -0.224480
    C   C60   0.727680  0.429480  0.518960  0.248867
    C   C61   0.690580  0.467080  0.474860  -0.384739
    C   C62   0.917760  0.370560  0.413720  -0.204900
    C   C63   0.687600  0.424200  0.587000  -0.176620
    C   C64   0.955700  0.205400  0.681200  0.583329
    C   C65   0.914490  0.255990  0.633830  0.248891
    C   C66   0.888410  0.232010  0.611270  -0.522494
    C   C67   0.851360  0.276960  0.568820  0.331748
    C   C68   0.841770  0.347470  0.545990  -0.113195
    C   C69   0.869690  0.373690  0.566330  0.265112
    C   C70   0.906330  0.327930  0.611210  -0.516285
    C   C71   0.821210  0.247910  0.547070  -0.293508
    C   C72   0.856570  0.453170  0.544790  -0.204241
    C   C73   0.440740  0.684540  0.366980  0.618085
    C   C74   0.389050  0.725450  0.412550  0.179730
    C   C75   0.365800  0.799200  0.392000  -0.426974
    C   C76   0.322950  0.836650  0.435950  0.285153
    C   C77   0.302800  0.802200  0.498200  -0.216402
    C   C78   0.323880  0.727680  0.518960  0.250225
    C   C79   0.367480  0.690580  0.474860  -0.383970
    C   C80   0.297960  0.917760  0.413720  -0.208205
    C   C81   0.301200  0.687600  0.587000  -0.184511
    C   C82   0.157700  0.955700  0.681200  0.581343
    C   C83   0.195690  0.914490  0.633830  0.245205
    C   C84   0.268310  0.888410  0.611270  -0.523675
    C   C85   0.302860  0.851360  0.568820  0.339039
    C   C86   0.264770  0.841770  0.545990  -0.122278
    C   C87   0.190290  0.869690  0.566330  0.264231
    C   C88   0.154530  0.906330  0.611210  -0.509676
    C   C89   0.383810  0.821210  0.547070  -0.298460
    C   C90   0.145470  0.856570  0.544790  -0.205288
    C   C91   0.507740  0.440740  0.366980  0.624360
    C   C92   0.472950  0.389050  0.412550  0.178035
    C   C93   0.443000  0.365800  0.392000  -0.432822
    C   C94   0.404450  0.322950  0.435950  0.288269
    C   C95   0.396800  0.302800  0.498200  -0.216244
    C   C96   0.429480  0.323880  0.518960  0.250762
    C   C97   0.467080  0.367480  0.474860  -0.384706
    C   C98   0.370560  0.297960  0.413720  -0.208145
    C   C99   0.424200  0.301200  0.587000  -0.190632
    C   C100  0.205400  0.157700  0.681200  0.584659
    C   C101  0.255990  0.195690  0.633830  0.240075
    C   C102  0.232010  0.268310  0.611270  -0.517196
    C   C103  0.276960  0.302860  0.568820  0.326069
    C   C104  0.347470  0.264770  0.545990  -0.104630
    C   C105  0.373690  0.190290  0.566330  0.255281
    C   C106  0.327930  0.154530  0.611210  -0.507268
    C   C107  0.247910  0.383810  0.547070  -0.279628
    C   C108  0.453170  0.145470  0.544790  -0.194993
    O   O1    0.216950  0.962810  0.810460  -0.632805
    O   O2    0.117110  0.961090  0.889390  -0.684594
    O   O3    0.484310  0.589510  0.194070  -0.664965
    O   O4    0.464570  0.700370  0.195990  -0.673117
    O   O5    0.962810  0.009780  0.810460  -0.637262
    O   O6    0.961090  0.032410  0.889390  -0.686749
    O   O7    0.589510  0.732110  0.194070  -0.663508
    O   O8    0.700370  0.639070  0.195990  -0.675757
    O   O9    0.009780  0.216950  0.810460  -0.633032
    O   O10   0.032410  0.117110  0.889390  -0.678843
    O   O11   0.732110  0.484310  0.194070  -0.665365
    O   O12   0.639070  0.464570  0.195990  -0.676871
    O   O13   0.716950  0.509780  0.310460  -0.632795
    O   O14   0.617110  0.532410  0.389390  -0.678400
    O   O15   0.984310  0.232110  0.694070  -0.665519
    O   O16   0.964570  0.139070  0.695990  -0.677262
    O   O17   0.462810  0.716950  0.310460  -0.633061
    O   O18   0.461090  0.617110  0.389390  -0.684762
    O   O19   0.089510  0.984310  0.694070  -0.664702
    O   O20   0.200370  0.964570  0.695990  -0.672956
    O   O21   0.509780  0.462810  0.310460  -0.637239
    O   O22   0.532410  0.461090  0.389390  -0.687031
    O   O23   0.232110  0.089510  0.694070  -0.663592
    O   O24   0.139070  0.200370  0.695990  -0.675445
    O   O25   0.078410  0.078410  0.764770  -1.620507
    O   O26   0.578410  0.578410  0.264770  -1.620535
    Zn  Zn9   0.319720  0.444680  0.762860  1.355336
    Zn  Zn10  0.472740  0.319720  0.762860  1.351464
    Zn  Zn11  0.444680  0.472740  0.762860  1.357710
    Zn  Zn12  0.819720  0.972740  0.262860  1.351399
    Zn  Zn13  0.972740  0.944680  0.262860  1.357854
    Zn  Zn14  0.944680  0.819720  0.262860  1.355291
    Zn  Zn15  0.451470  0.451470  0.645590  1.337286
    Zn  Zn16  0.951470  0.951470  0.145590  1.337342
    H   H97   0.176900  0.551400  0.650300  0.194194
    H   H98   0.358600  0.511500  0.512300  0.195856
    H   H99   0.062700  0.631900  0.558200  0.040045
    H   H100  0.068500  0.676600  0.587000  0.060014
    H   H101  0.064800  0.601300  0.627500  0.072412
    H   H102  0.359600  0.571800  0.404900  0.087498
    H   H103  0.288300  0.620900  0.387500  0.051828
    H   H104  0.314900  0.538300  0.403100  0.043032
    H   H105  0.103900  0.816100  0.374600  0.246373
    H   H106  0.075400  0.655500  0.374300  0.256644
    H   H107  0.155000  0.749100  0.496100  0.086198
    H   H108  0.228700  0.724700  0.447200  0.085713
    H   H109  0.171900  0.800800  0.428900  0.070917
    H   H110  0.104600  0.537500  0.490400  0.064480
    H   H111  0.147400  0.534200  0.421700  0.061679
    H   H112  0.186700  0.519200  0.466700  0.084587
    H   H113  0.621400  0.176900  0.650300  0.192449
    H   H114  0.617600  0.358600  0.512300  0.197309
    H   H115  0.747200  0.062700  0.558200  0.041370
    H   H116  0.667900  0.068500  0.587000  0.060876
    H   H117  0.706400  0.064800  0.627500  0.073905
    H   H118  0.663700  0.359600  0.404900  0.088422
    H   H119  0.703300  0.288300  0.387500  0.054455
    H   H120  0.743700  0.314900  0.403100  0.045714
    H   H121  0.705400  0.103900  0.374600  0.246436
    H   H122  0.894800  0.075400  0.374300  0.254179
    H   H123  0.599800  0.155000  0.496100  0.087879
    H   H124  0.599400  0.228700  0.447200  0.086474
    H   H125  0.598400  0.171900  0.428900  0.071954
    H   H126  0.867500  0.104600  0.490400  0.064951
    H   H127  0.896700  0.147400  0.421700  0.062246
    H   H128  0.827400  0.186700  0.466700  0.084251
    H   H129  0.551400  0.621400  0.650300  0.195730
    H   H130  0.511500  0.617600  0.512300  0.197759
    H   H131  0.631900  0.747200  0.558200  0.038904
    H   H132  0.676600  0.667900  0.587000  0.060611
    H   H133  0.601300  0.706400  0.627500  0.073792
    H   H134  0.571800  0.663700  0.404900  0.088340
    H   H135  0.620900  0.703300  0.387500  0.054346
    H   H136  0.538300  0.743700  0.403100  0.048829
    H   H137  0.816100  0.705400  0.374600  0.245280
    H   H138  0.655500  0.894800  0.374300  0.253544
    H   H139  0.749100  0.599800  0.496100  0.082038
    H   H140  0.724700  0.599400  0.447200  0.081841
    H   H141  0.800800  0.598400  0.428900  0.066365
    H   H142  0.537500  0.867500  0.490400  0.063319
    H   H143  0.534200  0.896700  0.421700  0.059968
    H   H144  0.519200  0.827400  0.466700  0.078747
    H   H145  0.676900  0.121400  0.150300  0.192663
    H   H146  0.858600  0.117600  0.012300  0.197168
    H   H147  0.562700  0.247200  0.058200  0.041412
    H   H148  0.568500  0.167900  0.087000  0.060978
    H   H149  0.564800  0.206400  0.127500  0.074021
    H   H150  0.859600  0.163700  0.904900  0.088358
    H   H151  0.788300  0.203300  0.887500  0.054260
    H   H152  0.814900  0.243700  0.903100  0.045500
    H   H153  0.603900  0.205400  0.874600  0.246281
    H   H154  0.575400  0.394800  0.874300  0.253991
    H   H155  0.655000  0.099800  0.996100  0.088086
    H   H156  0.728700  0.099400  0.947200  0.086604
    H   H157  0.671900  0.098400  0.928900  0.071935
    H   H158  0.604600  0.367500  0.990400  0.064896
    H   H159  0.647400  0.396700  0.921700  0.062147
    H   H160  0.686700  0.327400  0.966700  0.084199
    H   H161  0.121400  0.051400  0.150300  0.195649
    H   H162  0.117600  0.011500  0.012300  0.197762
    H   H163  0.247200  0.131900  0.058200  0.038880
    H   H164  0.167900  0.176600  0.087000  0.060519
    H   H165  0.206400  0.101300  0.127500  0.073670
    H   H166  0.163700  0.071800  0.904900  0.088609
    H   H167  0.203300  0.120900  0.887500  0.054420
    H   H168  0.243700  0.038300  0.903100  0.048935
    H   H169  0.205400  0.316100  0.874600  0.245221
    H   H170  0.394800  0.155500  0.874300  0.253501
    H   H171  0.099800  0.249100  0.996100  0.081984
    H   H172  0.099400  0.224700  0.947200  0.081888
    H   H173  0.098400  0.300800  0.928900  0.066456
    H   H174  0.367500  0.037500  0.990400  0.063353
    H   H175  0.396700  0.034200  0.921700  0.059940
    H   H176  0.327400  0.019200  0.966700  0.078792
    H   H177  0.051400  0.676900  0.150300  0.194043
    H   H178  0.011500  0.858600  0.012300  0.196039
    H   H179  0.131900  0.562700  0.058200  0.040010
    H   H180  0.176600  0.568500  0.087000  0.059996
    H   H181  0.101300  0.564800  0.127500  0.072404
    H   H182  0.071800  0.859600  0.904900  0.087293
    H   H183  0.120900  0.788300  0.887500  0.051940
    H   H184  0.038300  0.814900  0.903100  0.043140
    H   H185  0.316100  0.603900  0.874600  0.246588
    H   H186  0.155500  0.575400  0.874300  0.256874
    H   H187  0.249100  0.655000  0.996100  0.086056
    H   H188  0.224700  0.728700  0.947200  0.085552
    H   H189  0.300800  0.671900  0.928900  0.070855
    H   H190  0.037500  0.604600  0.990400  0.064498
    H   H191  0.034200  0.647400  0.921700  0.061805
    H   H192  0.019200  0.686700  0.966700  0.084579
    C   C109  0.315460  0.492260  0.633020  0.610616
    C   C110  0.274550  0.527050  0.587450  0.187254
    C   C111  0.200800  0.557000  0.608000  -0.432672
    C   C112  0.163350  0.595550  0.564050  0.290310
    C   C113  0.197800  0.603200  0.501800  -0.224472
    C   C114  0.272320  0.570520  0.481040  0.248861
    C   C115  0.309420  0.532920  0.525140  -0.384737
    C   C116  0.082240  0.629440  0.586280  -0.204902
    C   C117  0.312400  0.575800  0.413000  -0.176601
    C   C118  0.044300  0.794600  0.318800  0.583429
    C   C119  0.085510  0.744010  0.366170  0.248834
    C   C120  0.111590  0.767990  0.388730  -0.522480
    C   C121  0.148640  0.723040  0.431180  0.331780
    C   C122  0.158230  0.652530  0.454010  -0.113210
    C   C123  0.130310  0.626310  0.433670  0.265108
    C   C124  0.093670  0.672070  0.388790  -0.516259
    C   C125  0.178790  0.752090  0.452930  -0.293544
    C   C126  0.143430  0.546830  0.455210  -0.204252
    C   C127  0.559260  0.315460  0.633020  0.618087
    C   C128  0.610950  0.274550  0.587450  0.179728
    C   C129  0.634200  0.200800  0.608000  -0.426971
    C   C130  0.677050  0.163350  0.564050  0.285154
    C   C131  0.697200  0.197800  0.501800  -0.216408
    C   C132  0.676120  0.272320  0.481040  0.250219
    C   C133  0.632520  0.309420  0.525140  -0.383961
    C   C134  0.702040  0.082240  0.586280  -0.208213
    C   C135  0.698800  0.312400  0.413000  -0.184504
    C   C136  0.842300  0.044300  0.318800  0.581352
    C   C137  0.804310  0.085510  0.366170  0.245226
    C   C138  0.731690  0.111590  0.388730  -0.523700
    C   C139  0.697140  0.148640  0.431180  0.339051
    C   C140  0.735230  0.158230  0.454010  -0.122274
    C   C141  0.809710  0.130310  0.433670  0.264226
    C   C142  0.845470  0.093670  0.388790  -0.509690
    C   C143  0.616190  0.178790  0.452930  -0.298460
    C   C144  0.854530  0.143430  0.455210  -0.205276
    C   C145  0.492260  0.559260  0.633020  0.624371
    C   C146  0.527050  0.610950  0.587450  0.178043
    C   C147  0.557000  0.634200  0.608000  -0.432835
    C   C148  0.595550  0.677050  0.564050  0.288272
    C   C149  0.603200  0.697200  0.501800  -0.216239
    C   C150  0.570520  0.676120  0.481040  0.250770
    C   C151  0.532920  0.632520  0.525140  -0.384725
    C   C152  0.629440  0.702040  0.586280  -0.208141
    C   C153  0.575800  0.698800  0.413000  -0.190641
    C   C154  0.794600  0.842300  0.318800  0.584659
    C   C155  0.744010  0.804310  0.366170  0.240064
    C   C156  0.767990  0.731690  0.388730  -0.517182
    C   C157  0.723040  0.697140  0.431180  0.326061
    C   C158  0.652530  0.735230  0.454010  -0.104635
    C   C159  0.626310  0.809710  0.433670  0.255279
    C   C160  0.672070  0.845470  0.388790  -0.507256
    C   C161  0.752090  0.616190  0.452930  -0.279629
    C   C162  0.546830  0.854530  0.455210  -0.194991
    C   C163  0.815460  0.059260  0.133020  0.617470
    C   C164  0.774550  0.110950  0.087450  0.180232
    C   C165  0.700800  0.134200  0.108000  -0.427446
    C   C166  0.663350  0.177050  0.064050  0.285363
    C   C167  0.697800  0.197200  0.001800  -0.216683
    C   C168  0.772320  0.176120  0.981040  0.250190
    C   C169  0.809420  0.132520  0.025140  -0.383955
    C   C170  0.582240  0.202040  0.086280  -0.208530
    C   C171  0.812400  0.198800  0.913000  -0.184045
    C   C172  0.544300  0.342300  0.818800  0.582014
    C   C173  0.585510  0.304310  0.866170  0.244387
    C   C174  0.611590  0.231690  0.888730  -0.523125
    C   C175  0.648640  0.197140  0.931180  0.338956
    C   C176  0.658230  0.235230  0.954010  -0.121783
    C   C177  0.630310  0.309710  0.933670  0.263993
    C   C178  0.593670  0.345470  0.888790  -0.509280
    C   C179  0.678790  0.116190  0.952930  -0.298959
    C   C180  0.643430  0.354530  0.955210  -0.205014
    C   C181  0.059260  0.992260  0.133020  0.624334
    C   C182  0.110950  0.027050  0.087450  0.177584
    C   C183  0.134200  0.057000  0.108000  -0.432559
    C   C184  0.177050  0.095550  0.064050  0.288015
    C   C185  0.197200  0.103200  0.001800  -0.216229
    C   C186  0.176120  0.070520  0.981040  0.251029
    C   C187  0.132520  0.032920  0.025140  -0.384597
    C   C188  0.202040  0.129440  0.086280  -0.207790
    C   C189  0.198800  0.075800  0.913000  -0.191265
    C   C190  0.342300  0.294600  0.818800  0.584928
    C   C191  0.304310  0.244010  0.866170  0.239877
    C   C192  0.231690  0.267990  0.888730  -0.517020
    C   C193  0.197140  0.223040  0.931180  0.325772
    C   C194  0.235230  0.152530  0.954010  -0.104568
    C   C195  0.309710  0.126310  0.933670  0.255304
    C   C196  0.345470  0.172070  0.888790  -0.507075
    C   C197  0.116190  0.252090  0.952930  -0.279537
    C   C198  0.354530  0.046830  0.955210  -0.195053
    C   C199  0.992260  0.815460  0.133020  0.611183
    C   C200  0.027050  0.774550  0.087450  0.187258
    C   C201  0.057000  0.700800  0.108000  -0.432434
    C   C202  0.095550  0.663350  0.064050  0.290309
    C   C203  0.103200  0.697800  0.001800  -0.224164
    C   C204  0.070520  0.772320  0.981040  0.248627
    C   C205  0.032920  0.809420  0.025140  -0.384946
    C   C206  0.129440  0.582240  0.086280  -0.204882
    C   C207  0.075800  0.812400  0.913000  -0.176415
    C   C208  0.294600  0.544300  0.818800  0.582454
    C   C209  0.244010  0.585510  0.866170  0.249887
    C   C210  0.267990  0.611590  0.888730  -0.523209
    C   C211  0.223040  0.648640  0.931180  0.332151
    C   C212  0.152530  0.658230  0.954010  -0.113772
    C   C213  0.126310  0.630310  0.933670  0.265324
    C   C214  0.172070  0.593670  0.888790  -0.516874
    C   C215  0.252090  0.678790  0.952930  -0.293175
    C   C216  0.046830  0.643430  0.955210  -0.204438
    O   O27   0.283050  0.490220  0.689540  -0.632794
    O   O28   0.382890  0.467590  0.610610  -0.678394
    O   O29   0.015690  0.767890  0.305930  -0.665549
    O   O30   0.035430  0.860930  0.304010  -0.677350
    O   O31   0.537190  0.283050  0.689540  -0.633063
    O   O32   0.538910  0.382890  0.610610  -0.684760
    O   O33   0.910490  0.015690  0.305930  -0.664731
    O   O34   0.799630  0.035430  0.304010  -0.672963
    O   O35   0.490220  0.537190  0.689540  -0.637245
    O   O36   0.467590  0.538910  0.610610  -0.687044
    O   O37   0.767890  0.910490  0.305930  -0.663590
    O   O38   0.860930  0.799630  0.304010  -0.675444
    O   O39   0.783050  0.037190  0.189540  -0.632811
    O   O40   0.882890  0.038910  0.110610  -0.684598
    O   O41   0.515690  0.410490  0.805930  -0.664966
    O   O42   0.535430  0.299630  0.804010  -0.673118
    O   O43   0.037190  0.990220  0.189540  -0.637235
    O   O44   0.038910  0.967590  0.110610  -0.686831
    O   O45   0.410490  0.267890  0.805930  -0.663502
    O   O46   0.299630  0.360930  0.804010  -0.675750
    O   O47   0.990220  0.783050  0.189540  -0.633030
    O   O48   0.967590  0.882890  0.110610  -0.678826
    O   O49   0.267890  0.515690  0.805930  -0.665369
    O   O50   0.360930  0.535430  0.804010  -0.676875
    O   O51   0.421590  0.421590  0.735230  -1.620537
    O   O52   0.921590  0.921590  0.235230  -1.620561
