# Generated by REPEAT Assigner based on pymatgen
data_DB12-PUDSOX_clean
_audit_creation_date              2022-05-24
_audit_creation_method            REPEAT_Assigner
_cell_length_a                    14.898700
_cell_length_b                    19.020300
_cell_length_c                    30.084600
_cell_angle_alpha                 97.332400
_cell_angle_beta                  90.000000
_cell_angle_gamma                 113.057000
_cell_volume                      7768.442105
_symmetry_space_group_name_H-M    P1
_symmetry_Int_Tables_number       1
loop_
    _symmetry_equiv_pos_site_id
    _symmetry_equiv_pos_as_xyz
    1  x,y,z
loop_
    _atom_site_type_symbol
    _atom_site_label
    _atom_site_fract_x
    _atom_site_fract_y
    _atom_site_fract_z
    _atom_type_partial_charge
    Gd  Gd1   0.362080  0.582710  0.643360  1.984545
    Gd  Gd2   0.446180  0.828320  0.656880  1.920292
    Gd  Gd3   0.220630  0.582710  0.143360  1.983212
    Gd  Gd4   0.382140  0.828320  0.156880  1.919200
    H   H1    0.404000  0.812600  0.810300  0.083388
    H   H2    0.426200  0.607800  0.781200  0.066780
    H   H3    0.420400  0.592400  0.856000  0.164431
    H   H4    0.396500  0.587800  0.938000  0.138268
    H   H5    0.341100  0.800800  0.004900  0.150997
    H   H6    0.357200  0.597200  0.011700  0.098544
    H   H7    0.762100  0.850000  0.654700  0.071692
    H   H8    0.653500  0.620600  0.648300  0.029134
    H   H9    0.918400  0.855000  0.651500  0.138955
    H   H10   0.076400  0.837000  0.647400  0.154399
    H   H11   0.206500  0.802000  0.646100  0.051849
    H   H12   0.028500  0.579200  0.641400  0.097562
    H   H13   0.080100  0.335600  0.601800  0.183300
    H   H14   0.121400  0.404000  0.734200  0.209575
    H   H15   0.982000  0.298800  0.747000  0.097838
    H   H16   0.829300  0.178400  0.747400  0.068919
    H   H17   0.723400  0.051200  0.602200  0.185234
    H   H18   0.691500  0.065600  0.735500  0.255731
    H   H19   0.408600  0.812600  0.310300  0.081798
    H   H20   0.181600  0.607800  0.281200  0.065296
    H   H21   0.172000  0.592400  0.356000  0.166896
    H   H22   0.191300  0.587800  0.438000  0.136130
    H   H23   0.459700  0.800800  0.504900  0.148861
    H   H24   0.240000  0.597200  0.511700  0.099517
    H   H25   0.087900  0.850000  0.154700  0.071810
    H   H26   0.967100  0.620600  0.148300  0.030072
    H   H27   0.936600  0.855000  0.151500  0.139011
    H   H28   0.760600  0.837000  0.147400  0.156009
    H   H29   0.595500  0.802000  0.146100  0.051551
    H   H30   0.550700  0.579200  0.141400  0.097391
    H   H31   0.255500  0.335600  0.101800  0.184511
    H   H32   0.282600  0.404000  0.234200  0.208247
    H   H33   0.316800  0.298800  0.247000  0.098291
    H   H34   0.349100  0.178400  0.247400  0.068943
    H   H35   0.327800  0.051200  0.102200  0.185367
    H   H36   0.374100  0.065600  0.235500  0.260494
    C   C1    0.418320  0.718840  0.738620  0.801541
    C   C2    0.415400  0.710600  0.787820  -0.166809
    C   C3    0.405510  0.767820  0.819050  0.039899
    C   C4    0.419930  0.645660  0.802200  0.104528
    C   C5    0.398100  0.755200  0.863670  -0.211144
    C   C6    0.415410  0.635820  0.847060  -0.210132
    C   C7    0.403440  0.690280  0.878230  0.018486
    C   C8    0.387440  0.687280  0.926290  0.176882
    C   C9    0.371390  0.750380  0.947230  -0.180694
    C   C10   0.383630  0.629660  0.950930  -0.127674
    C   C11   0.349950  0.757300  0.991410  -0.032609
    C   C12   0.360500  0.636000  0.995010  -0.012337
    C   C13   0.342000  0.698000  0.015480  -0.253196
    C   C14   0.312790  0.699380  0.063320  0.947428
    C   C15   0.591000  0.734600  0.651360  0.848025
    C   C16   0.692580  0.735760  0.651290  -0.144448
    C   C17   0.772000  0.804400  0.652700  -0.014147
    C   C18   0.706310  0.667820  0.649280  0.124080
    C   C19   0.865620  0.808040  0.651300  -0.130132
    C   C20   0.799860  0.672120  0.648710  -0.225388
    C   C21   0.879560  0.740120  0.649400  0.029511
    C   C22   0.974150  0.730500  0.646790  0.121425
    C   C23   0.066290  0.785380  0.646800  -0.186290
    C   C24   0.961450  0.654100  0.645390  -0.189499
    C   C25   0.143680  0.764160  0.646000  0.018702
    C   C26   0.038860  0.631120  0.643560  0.012552
    C   C27   0.131540  0.687680  0.645060  -0.191302
    C   C28   0.219830  0.667460  0.646450  0.816343
    C   C29   0.206180  0.448160  0.660380  0.466476
    C   C30   0.115300  0.380000  0.667320  0.252994
    C   C31   0.061130  0.328660  0.630950  -0.190163
    C   C32   0.084940  0.368680  0.709990  -0.313777
    C   C33   0.979020  0.267440  0.638910  -0.141594
    C   C34   0.001340  0.305880  0.717930  -0.083941
    C   C35   0.947820  0.254440  0.681530  0.037091
    C   C36   0.858720  0.183240  0.681600  0.018612
    C   C37   0.823990  0.143580  0.638880  -0.113387
    C   C38   0.808100  0.153200  0.718450  -0.034795
    C   C39   0.744010  0.076420  0.631270  -0.162647
    C   C40   0.726080  0.085560  0.711090  -0.330031
    C   C41   0.693530  0.046060  0.667950  0.189297
    C   C42   0.605350  0.972300  0.661730  0.538155
    C   C43   0.300520  0.718840  0.238620  0.802586
    C   C44   0.295200  0.710600  0.287820  -0.174802
    C   C45   0.362310  0.767820  0.319050  0.048403
    C   C46   0.225730  0.645660  0.302200  0.113548
    C   C47   0.357100  0.755200  0.363670  -0.221326
    C   C48   0.220410  0.635820  0.347060  -0.222015
    C   C49   0.286840  0.690280  0.378230  0.035543
    C   C50   0.299840  0.687280  0.426290  0.166140
    C   C51   0.378990  0.750380  0.447230  -0.178339
    C   C52   0.246030  0.629660  0.450930  -0.121211
    C   C53   0.407350  0.757300  0.491410  -0.029753
    C   C54   0.275500  0.636000  0.495010  -0.015816
    C   C55   0.356000  0.698000  0.515480  -0.252306
    C   C56   0.386590  0.699380  0.563320  0.948065
    C   C57   0.143600  0.734600  0.151360  0.843640
    C   C58   0.043180  0.735760  0.151290  -0.141244
    C   C59   0.032400  0.804400  0.152700  -0.014703
    C   C60   0.961510  0.667820  0.149280  0.119548
    C   C61   0.942420  0.808040  0.151300  -0.129520
    C   C62   0.872260  0.672120  0.148710  -0.221490
    C   C63   0.860560  0.740120  0.149400  0.024074
    C   C64   0.756350  0.730500  0.146790  0.131387
    C   C65   0.719090  0.785380  0.146800  -0.193356
    C   C66   0.692650  0.654100  0.145390  -0.194280
    C   C67   0.620480  0.764160  0.146000  0.022088
    C   C68   0.592260  0.631120  0.143560  0.014629
    C   C69   0.556140  0.687680  0.145060  -0.193793
    C   C70   0.447630  0.667460  0.146450  0.815539
    C   C71   0.241980  0.448160  0.160380  0.469889
    C   C72   0.264700  0.380000  0.167320  0.248724
    C   C73   0.267530  0.328660  0.130950  -0.191104
    C   C74   0.283740  0.368680  0.209990  -0.308311
    C   C75   0.288420  0.267440  0.138910  -0.142861
    C   C76   0.304540  0.305880  0.217930  -0.088341
    C   C77   0.306620  0.254440  0.181530  0.042617
    C   C78   0.324520  0.183240  0.181600  0.014336
    C   C79   0.319590  0.143580  0.138880  -0.107500
    C   C80   0.345100  0.153200  0.218450  -0.033360
    C   C81   0.332410  0.076420  0.131270  -0.166172
    C   C82   0.359480  0.085560  0.211090  -0.338333
    C   C83   0.352530  0.046060  0.167950  0.193074
    C   C84   0.366950  0.972300  0.161730  0.538125
    S   S1    0.375410  0.813780  0.908430  1.093918
    S   S2    0.837530  0.594280  0.648090  1.089786
    S   S3    0.899850  0.193200  0.598000  1.048605
    S   S4    0.438370  0.813780  0.408430  1.094648
    S   S5    0.756750  0.594280  0.148090  1.088065
    S   S6    0.293350  0.193200  0.098000  1.046054
    O   O1    0.438460  0.783920  0.728040  -0.644058
    O   O2    0.398780  0.657360  0.712640  -0.752967
    O   O3    0.456370  0.886940  0.918860  -0.518580
    O   O4    0.281340  0.815480  0.901600  -0.554256
    O   O5    0.320730  0.763460  0.084360  -0.736383
    O   O6    0.282830  0.636660  0.078250  -0.731351
    O   O7    0.583160  0.797520  0.662210  -0.541118
    O   O8    0.522420  0.671240  0.640070  -0.811188
    O   O9    0.822240  0.564080  0.690610  -0.520672
    O   O10   0.800600  0.540800  0.608090  -0.527731
    O   O11   0.301880  0.722200  0.650120  -0.838481
    O   O12   0.206730  0.598460  0.644280  -0.532634
    O   O13   0.233830  0.455060  0.620650  -0.679237
    O   O14   0.251480  0.495960  0.693360  -0.576687
    O   O15   0.948840  0.148280  0.576400  -0.515730
    O   O16   0.848320  0.222840  0.570120  -0.523208
    O   O17   0.581460  0.932720  0.623590  -0.609204
    O   O18   0.557520  0.950440  0.695420  -0.686753
    O   O19   0.345460  0.783920  0.228040  -0.644029
    O   O20   0.258580  0.657360  0.212640  -0.752718
    O   O21   0.430570  0.886940  0.418860  -0.518322
    O   O22   0.534140  0.815480  0.401600  -0.554720
    O   O23   0.442730  0.763460  0.584360  -0.736680
    O   O24   0.353830  0.636660  0.578250  -0.731824
    O   O25   0.214360  0.797520  0.162210  -0.540175
    O   O26   0.148820  0.671240  0.140070  -0.808193
    O   O27   0.741840  0.564080  0.190610  -0.519804
    O   O28   0.740200  0.540800  0.108090  -0.526974
    O   O29   0.420320  0.722200  0.150120  -0.836695
    O   O30   0.391730  0.598460  0.144280  -0.532277
    O   O31   0.221230  0.455060  0.120650  -0.679872
    O   O32   0.244480  0.495960  0.193360  -0.577706
    O   O33   0.199440  0.148280  0.076400  -0.515423
    O   O34   0.374520  0.222840  0.070120  -0.522259
    O   O35   0.351260  0.932720  0.123590  -0.609295
    O   O36   0.392920  0.950440  0.195420  -0.685844
    Gd  Gd5   0.779370  0.417290  0.856640  1.983380
    Gd  Gd6   0.617850  0.171660  0.843120  1.919091
    Gd  Gd7   0.637920  0.417290  0.356640  1.984546
    Gd  Gd8   0.553810  0.171660  0.343120  1.920382
    H   H37   0.591400  0.187400  0.689700  0.081723
    H   H38   0.818400  0.392200  0.718800  0.065123
    H   H39   0.828000  0.407600  0.644000  0.166897
    H   H40   0.808700  0.412200  0.562000  0.136150
    H   H41   0.540300  0.199200  0.495100  0.148854
    H   H42   0.760000  0.402800  0.488300  0.099498
    H   H43   0.912100  0.150000  0.845300  0.071826
    H   H44   0.032900  0.379400  0.851700  0.029997
    H   H45   0.063400  0.145000  0.848500  0.138964
    H   H46   0.239400  0.163000  0.852600  0.156018
    H   H47   0.404500  0.198000  0.853900  0.051445
    H   H48   0.449300  0.420800  0.858600  0.097338
    H   H49   0.744500  0.664400  0.898200  0.184551
    H   H50   0.717400  0.596000  0.765800  0.208295
    H   H51   0.683200  0.701200  0.753000  0.098163
    H   H52   0.650900  0.821600  0.752600  0.069153
    H   H53   0.672200  0.948800  0.897800  0.185402
    H   H54   0.625900  0.934400  0.764500  0.260426
    H   H55   0.596000  0.187400  0.189700  0.083362
    H   H56   0.573800  0.392200  0.218800  0.066795
    H   H57   0.579600  0.407600  0.144000  0.164441
    H   H58   0.603500  0.412200  0.062000  0.138269
    H   H59   0.658900  0.199200  0.995100  0.150942
    H   H60   0.642800  0.402800  0.988300  0.098547
    H   H61   0.237900  0.150000  0.345300  0.071710
    H   H62   0.346500  0.379400  0.351700  0.029129
    H   H63   0.081600  0.145000  0.348500  0.138942
    H   H64   0.923600  0.163000  0.352600  0.154394
    H   H65   0.793500  0.198000  0.353900  0.051820
    H   H66   0.971500  0.420800  0.358600  0.097497
    H   H67   0.919900  0.664400  0.398200  0.183283
    H   H68   0.878600  0.596000  0.265800  0.209549
    H   H69   0.018000  0.701200  0.253000  0.097801
    H   H70   0.170700  0.821600  0.252600  0.068991
    H   H71   0.276600  0.948800  0.397800  0.185257
    H   H72   0.308500  0.934400  0.264500  0.255784
    C   C85   0.699480  0.281160  0.761380  0.802861
    C   C86   0.704800  0.289400  0.712180  -0.175414
    C   C87   0.637690  0.232180  0.680950  0.048739
    C   C88   0.774270  0.354340  0.697800  0.113951
    C   C89   0.642900  0.244800  0.636330  -0.221428
    C   C90   0.779590  0.364180  0.652940  -0.222109
    C   C91   0.713160  0.309720  0.621770  0.035621
    C   C92   0.700160  0.312720  0.573710  0.166141
    C   C93   0.621010  0.249620  0.552770  -0.178322
    C   C94   0.753970  0.370340  0.549070  -0.121287
    C   C95   0.592650  0.242700  0.508590  -0.029745
    C   C96   0.724500  0.364000  0.504990  -0.015750
    C   C97   0.644000  0.302000  0.484520  -0.252363
    C   C98   0.613410  0.300620  0.436680  0.948172
    C   C99   0.856400  0.265400  0.848640  0.843403
    C   C100  0.956820  0.264240  0.848710  -0.141169
    C   C101  0.967600  0.195600  0.847300  -0.014792
    C   C102  0.038490  0.332180  0.850720  0.119601
    C   C103  0.057580  0.191960  0.848700  -0.129393
    C   C104  0.127740  0.327880  0.851290  -0.221394
    C   C105  0.139440  0.259880  0.850600  0.023896
    C   C106  0.243650  0.269500  0.853210  0.131514
    C   C107  0.280910  0.214620  0.853200  -0.193403
    C   C108  0.307350  0.345900  0.854610  -0.194448
    C   C109  0.379520  0.235840  0.854000  0.022255
    C   C110  0.407740  0.368880  0.856440  0.014885
    C   C111  0.443860  0.312320  0.854940  -0.194066
    C   C112  0.552370  0.332540  0.853550  0.815503
    C   C113  0.758020  0.551840  0.839620  0.469856
    C   C114  0.735300  0.620000  0.832680  0.248932
    C   C115  0.732470  0.671340  0.869050  -0.191215
    C   C116  0.716260  0.631320  0.790010  -0.308516
    C   C117  0.711580  0.732560  0.861090  -0.142659
    C   C118  0.695460  0.694120  0.782070  -0.087954
    C   C119  0.693380  0.745560  0.818470  0.042017
    C   C120  0.675480  0.816760  0.818400  0.014930
    C   C121  0.680410  0.856420  0.861120  -0.107453
    C   C122  0.654900  0.846800  0.781550  -0.033890
    C   C123  0.667590  0.923580  0.868730  -0.166235
    C   C124  0.640520  0.914440  0.788910  -0.338081
    C   C125  0.647470  0.953940  0.832050  0.192967
    C   C126  0.633050  0.027700  0.838270  0.538048
    C   C127  0.581680  0.281160  0.261380  0.801588
    C   C128  0.584600  0.289400  0.212180  -0.166801
    C   C129  0.594490  0.232180  0.180950  0.039952
    C   C130  0.580070  0.354340  0.197800  0.104456
    C   C131  0.601900  0.244800  0.136330  -0.211101
    C   C132  0.584590  0.364180  0.152940  -0.210128
    C   C133  0.596560  0.309720  0.121770  0.018443
    C   C134  0.612560  0.312720  0.073710  0.176988
    C   C135  0.628610  0.249620  0.052770  -0.180772
    C   C136  0.616370  0.370340  0.049070  -0.127769
    C   C137  0.650050  0.242700  0.008590  -0.032454
    C   C138  0.639500  0.364000  0.004990  -0.012209
    C   C139  0.658000  0.302000  0.984520  -0.253450
    C   C140  0.687210  0.300620  0.936680  0.947647
    C   C141  0.409000  0.265400  0.348640  0.848188
    C   C142  0.307420  0.264240  0.348710  -0.144483
    C   C143  0.228000  0.195600  0.347300  -0.014205
    C   C144  0.293690  0.332180  0.350720  0.124081
    C   C145  0.134380  0.191960  0.348700  -0.130096
    C   C146  0.200140  0.327880  0.351290  -0.225402
    C   C147  0.120440  0.259880  0.350600  0.029526
    C   C148  0.025850  0.269500  0.353210  0.121432
    C   C149  0.933710  0.214620  0.353200  -0.186332
    C   C150  0.038550  0.345900  0.354610  -0.189583
    C   C151  0.856320  0.235840  0.354000  0.018787
    C   C152  0.961140  0.368880  0.356440  0.012711
    C   C153  0.868460  0.312320  0.354940  -0.191377
    C   C154  0.780170  0.332540  0.353550  0.816214
    C   C155  0.793820  0.551840  0.339620  0.466458
    C   C156  0.884700  0.620000  0.332680  0.252959
    C   C157  0.938870  0.671340  0.369050  -0.190133
    C   C158  0.915060  0.631320  0.290010  -0.313721
    C   C159  0.020980  0.732560  0.361090  -0.141583
    C   C160  0.998660  0.694120  0.282070  -0.083957
    C   C161  0.052180  0.745560  0.318470  0.037098
    C   C162  0.141280  0.816760  0.318400  0.018652
    C   C163  0.176010  0.856420  0.361120  -0.113431
    C   C164  0.191900  0.846800  0.281550  -0.034877
    C   C165  0.255990  0.923580  0.368730  -0.162665
    C   C166  0.273920  0.914440  0.288910  -0.330087
    C   C167  0.306470  0.953940  0.332050  0.189410
    C   C168  0.394650  0.027700  0.338270  0.538015
    S   S7    0.561630  0.186220  0.591570  1.094572
    S   S8    0.243250  0.405720  0.851910  1.088108
    S   S9    0.706650  0.806800  0.902000  1.045874
    S   S10   0.624590  0.186220  0.091570  1.093885
    S   S11   0.162470  0.405720  0.351910  1.089857
    S   S12   0.100150  0.806800  0.402000  1.048610
    O   O37   0.654540  0.216080  0.771960  -0.644094
    O   O38   0.741420  0.342640  0.787360  -0.752634
    O   O39   0.569430  0.113060  0.581140  -0.518284
    O   O40   0.465860  0.184520  0.598400  -0.554703
    O   O41   0.557270  0.236540  0.415640  -0.736774
    O   O42   0.646170  0.363340  0.421750  -0.731846
    O   O43   0.785640  0.202480  0.837790  -0.540084
    O   O44   0.851180  0.328760  0.859930  -0.808160
    O   O45   0.258160  0.435920  0.809390  -0.519832
    O   O46   0.259800  0.459200  0.891910  -0.526990
    O   O47   0.579680  0.277800  0.849880  -0.836493
    O   O48   0.608270  0.401540  0.855720  -0.532311
    O   O49   0.778770  0.544940  0.879350  -0.679941
    O   O50   0.755520  0.504040  0.806640  -0.577765
    O   O51   0.800560  0.851720  0.923600  -0.515391
    O   O52   0.625480  0.777160  0.929880  -0.522212
    O   O53   0.648740  0.067280  0.876410  -0.609216
    O   O54   0.607080  0.049560  0.804580  -0.685718
    O   O55   0.561540  0.216080  0.271960  -0.644100
    O   O56   0.601220  0.342640  0.287360  -0.752965
    O   O57   0.543630  0.113060  0.081140  -0.518557
    O   O58   0.718660  0.184520  0.098400  -0.554261
    O   O59   0.679270  0.236540  0.915640  -0.736409
    O   O60   0.717170  0.363340  0.921750  -0.731491
    O   O61   0.416840  0.202480  0.337790  -0.541161
    O   O62   0.477580  0.328760  0.359930  -0.811274
    O   O63   0.177760  0.435920  0.309390  -0.520697
    O   O64   0.199400  0.459200  0.391910  -0.527754
    O   O65   0.698120  0.277800  0.349880  -0.838431
    O   O66   0.793270  0.401540  0.355720  -0.532585
    O   O67   0.766170  0.544940  0.379350  -0.679220
    O   O68   0.748520  0.504040  0.306640  -0.576670
    O   O69   0.051160  0.851720  0.423600  -0.515721
    O   O70   0.151680  0.777160  0.429880  -0.523210
    O   O71   0.418540  0.067280  0.376410  -0.609153
    O   O72   0.442480  0.049560  0.304580  -0.686710
