# Generated by REPEAT Assigner based on pymatgen
data_DB12-AQUCUM_clean
_audit_creation_date              2022-05-24
_audit_creation_method            REPEAT_Assigner
_cell_length_a                    25.761100
_cell_length_b                    25.761100
_cell_length_c                    6.756500
_cell_angle_alpha                 90.000000
_cell_angle_beta                  90.000000
_cell_angle_gamma                 120.000000
_cell_volume                      3883.123648
_symmetry_space_group_name_H-M    P1
_symmetry_Int_Tables_number       1
loop_
    _symmetry_equiv_pos_site_id
    _symmetry_equiv_pos_as_xyz
    1  x,y,z
loop_
    _atom_site_type_symbol
    _atom_site_label
    _atom_site_fract_x
    _atom_site_fract_y
    _atom_site_fract_z
    _atom_type_partial_charge
    Ni  Ni1   0.617490  0.648320  0.353700  1.064144
    O   O1    0.436920  0.407460  0.430970  -0.663703
    O   O2    0.367880  0.365290  0.211970  -0.584685
    O   O3    0.611370  0.585520  0.155520  -0.577630
    C   C1    0.416610  0.407370  0.249680  0.728946
    C   C2    0.460760  0.454090  0.114120  -0.250249
    C   C3    0.556920  0.550360  0.076890  0.157971
    C   C4    0.515750  0.498310  0.190870  -0.010342
    H   H1    0.526500  0.493960  0.323370  0.133213
    Ni  Ni2   0.284160  0.981650  0.687030  1.065292
    O   O4    0.103590  0.740790  0.764300  -0.664495
    O   O5    0.034550  0.698620  0.545300  -0.582269
    O   O6    0.278040  0.918850  0.488850  -0.576540
    C   C5    0.083280  0.740700  0.583010  0.724170
    C   C6    0.127430  0.787420  0.447450  -0.241009
    C   C7    0.223590  0.883690  0.410220  0.157451
    C   C8    0.182420  0.831640  0.524200  -0.014721
    H   H2    0.193170  0.827290  0.656700  0.134359
    Ni  Ni3   0.950820  0.314990  0.020370  1.065970
    O   O7    0.770250  0.074130  0.097640  -0.664991
    O   O8    0.701210  0.031960  0.878640  -0.582910
    O   O9    0.944700  0.252190  0.822190  -0.576746
    C   C9    0.749940  0.074040  0.916350  0.728584
    C   C10   0.794090  0.120760  0.780790  -0.251118
    C   C11   0.890250  0.217030  0.743560  0.151705
    C   C12   0.849080  0.164980  0.857540  -0.006388
    H   H3    0.859830  0.160630  0.990040  0.132750
    Ni  Ni4   0.351680  0.969170  0.353700  1.065032
    O   O10   0.592540  0.029460  0.430970  -0.662263
    O   O11   0.634710  0.002590  0.211970  -0.581845
    O   O12   0.414480  0.025850  0.155520  -0.575098
    C   C13   0.592630  0.009240  0.249680  0.723593
    C   C14   0.545910  0.006670  0.114120  -0.243850
    C   C15   0.449640  0.006560  0.076890  0.150028
    C   C16   0.501690  0.017440  0.190870  -0.009537
    H   H4    0.506040  0.032540  0.323370  0.133122
    Ni  Ni5   0.018350  0.302500  0.687030  1.065761
    O   O13   0.259210  0.362790  0.764300  -0.663452
    O   O14   0.301380  0.335920  0.545300  -0.580573
    O   O15   0.081150  0.359180  0.488850  -0.574636
    C   C17   0.259300  0.342570  0.583010  0.720437
    C   C18   0.212580  0.340000  0.447450  -0.235799
    C   C19   0.116310  0.339890  0.410220  0.150755
    C   C20   0.168360  0.350770  0.524200  -0.014056
    H   H5    0.172710  0.365870  0.656700  0.134383
    Ni  Ni6   0.685010  0.635840  0.020370  1.066628
    O   O16   0.925870  0.696130  0.097640  -0.664042
    O   O17   0.968040  0.669260  0.878640  -0.581757
    O   O18   0.747810  0.692520  0.822190  -0.574893
    C   C21   0.925960  0.675910  0.916350  0.725699
    C   C22   0.879240  0.673340  0.780790  -0.246871
    C   C23   0.782970  0.673230  0.743560  0.144723
    C   C24   0.835020  0.684110  0.857540  -0.004773
    H   H6    0.839370  0.699210  0.990040  0.132449
    Ni  Ni7   0.030830  0.382510  0.353700  1.067794
    O   O19   0.970540  0.563080  0.430970  -0.665508
    O   O20   0.997410  0.632120  0.211970  -0.580995
    O   O21   0.974150  0.388630  0.155520  -0.577036
    C   C25   0.990760  0.583390  0.249680  0.725104
    C   C26   0.993330  0.539240  0.114120  -0.246451
    C   C27   0.993440  0.443080  0.076890  0.151811
    C   C28   0.982560  0.484250  0.190870  -0.007860
    H   H7    0.967460  0.473500  0.323370  0.133827
    Ni  Ni8   0.697500  0.715840  0.687030  1.068579
    O   O22   0.637210  0.896410  0.764300  -0.667090
    O   O23   0.664080  0.965450  0.545300  -0.580425
    O   O24   0.640820  0.721960  0.488850  -0.575530
    C   C29   0.657430  0.916720  0.583010  0.722541
    C   C30   0.660000  0.872570  0.447450  -0.237890
    C   C31   0.660110  0.776410  0.410220  0.151239
    C   C32   0.649230  0.817580  0.524200  -0.012686
    H   H8    0.634130  0.806830  0.656700  0.135337
    Ni  Ni9   0.364160  0.049180  0.020370  1.069181
    O   O25   0.303870  0.229750  0.097640  -0.667283
    O   O26   0.330740  0.298790  0.878640  -0.580006
    O   O27   0.307480  0.055300  0.822190  -0.576321
    C   C33   0.324090  0.250060  0.916350  0.726191
    C   C34   0.326660  0.205910  0.780790  -0.248072
    C   C35   0.326770  0.109750  0.743560  0.145957
    C   C36   0.315890  0.150920  0.857540  -0.003314
    H   H9    0.300790  0.140170  0.990040  0.133249
    Ni  Ni10  0.382510  0.351680  0.646300  1.064185
    O   O28   0.563080  0.592540  0.569030  -0.663562
    O   O29   0.632120  0.634710  0.788030  -0.584615
    O   O30   0.388630  0.414480  0.844480  -0.577595
    C   C37   0.583390  0.592630  0.750320  0.728672
    C   C38   0.539240  0.545910  0.885880  -0.250256
    C   C39   0.443080  0.449640  0.923110  0.157842
    C   C40   0.484250  0.501690  0.809130  -0.010091
    H   H10   0.473500  0.506040  0.676630  0.133075
    Ni  Ni11  0.049180  0.685010  0.979630  1.066026
    O   O31   0.229750  0.925870  0.902360  -0.665031
    O   O32   0.298790  0.968040  0.121360  -0.583251
    O   O33   0.055300  0.747810  0.177810  -0.576787
    C   C41   0.250060  0.925960  0.083650  0.729124
    C   C42   0.205910  0.879240  0.219210  -0.251641
    C   C43   0.109750  0.782970  0.256440  0.151686
    C   C44   0.150920  0.835020  0.142460  -0.006150
    H   H11   0.140170  0.839370  0.009960  0.132698
    Ni  Ni12  0.715840  0.018350  0.312970  1.065371
    O   O34   0.896410  0.259210  0.235700  -0.664466
    O   O35   0.965450  0.301380  0.454700  -0.582347
    O   O36   0.721960  0.081150  0.511150  -0.576603
    C   C45   0.916720  0.259300  0.416990  0.724233
    C   C46   0.872570  0.212580  0.552550  -0.241033
    C   C47   0.776410  0.116310  0.589780  0.157456
    C   C48   0.817580  0.168360  0.475800  -0.014887
    H   H12   0.806830  0.172710  0.343300  0.134434
    Ni  Ni13  0.648320  0.030830  0.646300  1.064961
    O   O37   0.407460  0.970540  0.569030  -0.662235
    O   O38   0.365290  0.997410  0.788030  -0.581830
    O   O39   0.585520  0.974150  0.844480  -0.575048
    C   C49   0.407370  0.990760  0.750320  0.723365
    C   C50   0.454090  0.993330  0.885880  -0.243780
    C   C51   0.550360  0.993440  0.923110  0.149910
    C   C52   0.498310  0.982560  0.809130  -0.009412
    H   H13   0.493960  0.967460  0.676630  0.133091
    Ni  Ni14  0.314990  0.364160  0.979630  1.066536
    O   O40   0.074130  0.303870  0.902360  -0.664041
    O   O41   0.031960  0.330740  0.121360  -0.581724
    O   O42   0.252190  0.307480  0.177810  -0.574865
    C   C53   0.074040  0.324090  0.083650  0.725646
    C   C54   0.120760  0.326660  0.219210  -0.246883
    C   C55   0.217030  0.326770  0.256440  0.144683
    C   C56   0.164980  0.315890  0.142460  -0.004733
    H   H14   0.160630  0.300790  0.009960  0.132440
    Ni  Ni15  0.981650  0.697500  0.312970  1.065720
    O   O43   0.740790  0.637210  0.235700  -0.663475
    O   O44   0.698620  0.664080  0.454700  -0.580512
    O   O45   0.918850  0.640820  0.511150  -0.574616
    C   C57   0.740700  0.657430  0.416990  0.720405
    C   C58   0.787420  0.660000  0.552550  -0.235810
    C   C59   0.883690  0.660110  0.589780  0.150697
    C   C60   0.831640  0.649230  0.475800  -0.014007
    H   H15   0.827290  0.634130  0.343300  0.134377
    Ni  Ni16  0.969170  0.617490  0.646300  1.067693
    O   O46   0.029460  0.436920  0.569030  -0.665660
    O   O47   0.002590  0.367880  0.788030  -0.581004
    O   O48   0.025850  0.611370  0.844480  -0.577088
    C   C61   0.009240  0.416610  0.750320  0.725282
    C   C62   0.006670  0.460760  0.885880  -0.246337
    C   C63   0.006560  0.556920  0.923110  0.151996
    C   C64   0.017440  0.515750  0.809130  -0.008178
    H   H16   0.032540  0.526500  0.676630  0.133992
    Ni  Ni17  0.635840  0.950820  0.979630  1.069073
    O   O49   0.696130  0.770250  0.902360  -0.667309
    O   O50   0.669260  0.701210  0.121360  -0.580053
    O   O51   0.692520  0.944700  0.177810  -0.576317
    C   C65   0.675910  0.749940  0.083650  0.726266
    C   C66   0.673340  0.794090  0.219210  -0.248044
    C   C67   0.673230  0.890250  0.256440  0.146015
    C   C68   0.684110  0.849080  0.142460  -0.003426
    H   H17   0.699210  0.859830  0.009960  0.133273
    Ni  Ni18  0.302500  0.284160  0.312970  1.068542
    O   O52   0.362790  0.103590  0.235700  -0.667158
    O   O53   0.335920  0.034550  0.454700  -0.580147
    O   O54   0.359180  0.278040  0.511150  -0.575545
    C   C69   0.342570  0.083280  0.416990  0.722550
    C   C70   0.340000  0.127430  0.552550  -0.237975
    C   C71   0.339890  0.223590  0.589780  0.151266
    C   C72   0.350770  0.182420  0.475800  -0.012653
    H   H18   0.365870  0.193170  0.343300  0.135329
