# Generated by REPEAT Assigner based on pymatgen
data_DB12-DITJOH_clean
_audit_creation_date              2022-05-24
_audit_creation_method            REPEAT_Assigner
_cell_length_a                    19.936000
_cell_length_b                    19.936000
_cell_length_c                    25.397000
_cell_angle_alpha                 66.890600
_cell_angle_beta                  66.890600
_cell_angle_gamma                 89.999900
_cell_volume                      8396.190501
_symmetry_space_group_name_H-M    P1
_symmetry_Int_Tables_number       1
loop_
    _symmetry_equiv_pos_site_id
    _symmetry_equiv_pos_as_xyz
    1  x,y,z
loop_
    _atom_site_type_symbol
    _atom_site_label
    _atom_site_fract_x
    _atom_site_fract_y
    _atom_site_fract_z
    _atom_type_partial_charge
    Zr  Zr1   0.057810  0.057810  0.884380  2.515555
    Zr  Zr2   0.942190  0.942190  0.115620  2.515552
    Zr  Zr3   0.874870  0.999160  0.000000  2.407037
    Zr  Zr4   0.125130  0.000840  0.000000  2.407089
    Zr  Zr5   0.999160  0.125130  0.000000  2.408650
    Zr  Zr6   0.000840  0.874870  0.000000  2.408607
    H   H1    0.002500  0.155300  0.726000  0.094852
    H   H2    0.969300  0.191800  0.641400  0.137328
    H   H3    0.758000  0.085700  0.763400  0.140293
    H   H4    0.791200  0.049200  0.848000  0.098013
    H   H5    0.892400  0.274900  0.600600  0.126181
    H   H6    0.846900  0.323300  0.523600  0.110025
    H   H7    0.730100  0.119500  0.587000  0.104907
    H   H8    0.775600  0.071300  0.663800  0.124917
    H   H9    0.271500  0.118700  0.726000  0.094515
    H   H10   0.389300  0.166800  0.641400  0.131427
    H   H11   0.478600  0.150900  0.763400  0.139304
    H   H12   0.360800  0.102800  0.848000  0.096130
    H   H13   0.507000  0.124500  0.600600  0.126263
    H   H14   0.629500  0.153100  0.523600  0.109949
    H   H15   0.682900  0.293500  0.587000  0.106463
    H   H16   0.560600  0.264900  0.663800  0.125264
    H   H17   0.155300  0.271500  0.726000  0.097596
    H   H18   0.191800  0.389300  0.641400  0.132750
    H   H19   0.085700  0.478600  0.763400  0.138223
    H   H20   0.049200  0.360800  0.848000  0.097687
    H   H21   0.274900  0.507000  0.600600  0.126739
    H   H22   0.323300  0.629500  0.523600  0.111509
    H   H23   0.119500  0.682900  0.587000  0.106627
    H   H24   0.071300  0.560600  0.663800  0.122689
    H   H25   0.118700  0.002500  0.726000  0.098733
    H   H26   0.166800  0.969300  0.641400  0.134858
    H   H27   0.150900  0.758000  0.763400  0.140406
    H   H28   0.102800  0.791200  0.848000  0.097306
    H   H29   0.124500  0.892400  0.600600  0.126090
    H   H30   0.153100  0.846900  0.523600  0.109164
    H   H31   0.293500  0.730100  0.587000  0.106603
    H   H32   0.264900  0.775600  0.663800  0.125353
    H   H33   0.997500  0.844700  0.274000  0.094869
    H   H34   0.030700  0.808200  0.358600  0.137324
    H   H35   0.242000  0.914300  0.236600  0.140293
    H   H36   0.208800  0.950800  0.152000  0.098018
    H   H37   0.107600  0.725100  0.399400  0.126150
    H   H38   0.153100  0.676700  0.476400  0.109990
    H   H39   0.269900  0.880500  0.413000  0.104854
    H   H40   0.224400  0.928700  0.336200  0.124916
    H   H41   0.728500  0.881300  0.274000  0.094519
    H   H42   0.610700  0.833200  0.358600  0.131421
    H   H43   0.521400  0.849100  0.236600  0.139293
    H   H44   0.639200  0.897200  0.152000  0.096134
    H   H45   0.493000  0.875500  0.399400  0.126278
    H   H46   0.370500  0.846900  0.476400  0.109936
    H   H47   0.317100  0.706500  0.413000  0.106467
    H   H48   0.439400  0.735100  0.336200  0.125270
    H   H49   0.844700  0.728500  0.274000  0.097582
    H   H50   0.808200  0.610700  0.358600  0.132759
    H   H51   0.914300  0.521400  0.236600  0.138223
    H   H52   0.950800  0.639200  0.152000  0.097610
    H   H53   0.725100  0.493000  0.399400  0.126753
    H   H54   0.676700  0.370500  0.476400  0.111444
    H   H55   0.880500  0.317100  0.413000  0.106578
    H   H56   0.928700  0.439400  0.336200  0.122704
    H   H57   0.881300  0.997500  0.274000  0.098683
    H   H58   0.833200  0.030700  0.358600  0.134872
    H   H59   0.849100  0.242000  0.236600  0.140448
    H   H60   0.897200  0.208800  0.152000  0.097211
    H   H61   0.875500  0.107600  0.399400  0.126087
    H   H62   0.846900  0.153100  0.476400  0.109189
    H   H63   0.706500  0.269900  0.413000  0.106597
    H   H64   0.735100  0.224400  0.336200  0.125351
    C   C1    0.925650  0.078050  0.845500  1.069304
    C   C2    0.899910  0.098810  0.794980  -0.344263
    C   C3    0.952810  0.141210  0.733580  0.012744
    C   C4    0.933160  0.162860  0.683280  -0.246774
    C   C5    0.860610  0.142210  0.694380  0.221434
    C   C6    0.807720  0.099820  0.755760  -0.256861
    C   C7    0.827370  0.078170  0.806060  0.045392
    C   C8    0.838310  0.168610  0.639380  -0.045704
    C   C9    0.859520  0.243420  0.597760  -0.130877
    C   C10   0.832440  0.272040  0.552120  -0.194314
    C   C11   0.784260  0.225960  0.548080  0.249540
    C   C12   0.763060  0.151160  0.589680  -0.117621
    C   C13   0.790130  0.122430  0.635340  -0.164552
    C   C14   0.228850  0.076450  0.845500  1.052303
    C   C15   0.305110  0.106210  0.794980  -0.337603
    C   C16   0.313610  0.125210  0.733580  0.006012
    C   C17   0.383560  0.153860  0.683280  -0.227185
    C   C18   0.445010  0.163410  0.694380  0.201695
    C   C19   0.436520  0.144420  0.755760  -0.247842
    C   C20   0.366570  0.115770  0.806060  0.043877
    C   C21   0.522310  0.192010  0.639380  -0.036458
    C   C22   0.542720  0.158820  0.597760  -0.134302
    C   C23   0.615440  0.175840  0.552120  -0.189218
    C   C24   0.667660  0.225960  0.548080  0.244020
    C   C25   0.647260  0.259160  0.589680  -0.118962
    C   C26   0.574530  0.242230  0.635340  -0.166815
    C   C27   0.078050  0.228850  0.845500  1.049478
    C   C28   0.098810  0.305110  0.794980  -0.330651
    C   C29   0.141210  0.313610  0.733580  0.000692
    C   C30   0.162860  0.383560  0.683280  -0.230709
    C   C31   0.142210  0.445010  0.694380  0.206291
    C   C32   0.099820  0.436520  0.755760  -0.246359
    C   C33   0.078170  0.366570  0.806060  0.039420
    C   C34   0.168610  0.522310  0.639380  -0.042726
    C   C35   0.243420  0.542720  0.597760  -0.131687
    C   C36   0.272040  0.615440  0.552120  -0.196973
    C   C37   0.225960  0.667660  0.548080  0.254640
    C   C38   0.151160  0.647260  0.589680  -0.124457
    C   C39   0.122430  0.574530  0.635340  -0.158556
    C   C40   0.076450  0.925650  0.845500  1.072485
    C   C41   0.106210  0.899910  0.794980  -0.342416
    C   C42   0.125210  0.952810  0.733580  0.004774
    C   C43   0.153860  0.933160  0.683280  -0.239108
    C   C44   0.163410  0.860610  0.694380  0.215876
    C   C45   0.144420  0.807720  0.755760  -0.254905
    C   C46   0.115770  0.827370  0.806060  0.045021
    C   C47   0.192010  0.838310  0.639380  -0.040984
    C   C48   0.158820  0.859520  0.597760  -0.133493
    C   C49   0.175840  0.832440  0.552120  -0.189507
    C   C50   0.225960  0.784260  0.548080  0.247099
    C   C51   0.259160  0.763060  0.589680  -0.120905
    C   C52   0.242230  0.790130  0.635340  -0.166402
    C   C53   0.074350  0.921950  0.154500  1.069260
    C   C54   0.100090  0.901190  0.205020  -0.344208
    C   C55   0.047190  0.858790  0.266420  0.012689
    C   C56   0.066840  0.837140  0.316720  -0.246748
    C   C57   0.139390  0.857790  0.305620  0.221470
    C   C58   0.192280  0.900180  0.244240  -0.256873
    C   C59   0.172630  0.921830  0.193940  0.045378
    C   C60   0.161690  0.831390  0.360620  -0.045791
    C   C61   0.140480  0.756580  0.402240  -0.130817
    C   C62   0.167560  0.727960  0.447880  -0.194189
    C   C63   0.215740  0.774040  0.451920  0.249165
    C   C64   0.236940  0.848840  0.410320  -0.117314
    C   C65   0.209870  0.877570  0.364660  -0.164590
    C   C66   0.771150  0.923550  0.154500  1.052395
    C   C67   0.694890  0.893790  0.205020  -0.337663
    C   C68   0.686390  0.874790  0.266420  0.006020
    C   C69   0.616440  0.846140  0.316720  -0.227173
    C   C70   0.554990  0.836590  0.305620  0.201679
    C   C71   0.563480  0.855580  0.244240  -0.247831
    C   C72   0.633430  0.884230  0.193940  0.043889
    C   C73   0.477690  0.807990  0.360620  -0.036413
    C   C74   0.457280  0.841180  0.402240  -0.134357
    C   C75   0.384560  0.824160  0.447880  -0.189134
    C   C76   0.332340  0.774040  0.451920  0.243811
    C   C77   0.352740  0.740840  0.410320  -0.118927
    C   C78   0.425470  0.757770  0.364660  -0.166835
    C   C79   0.921950  0.771150  0.154500  1.049521
    C   C80   0.901190  0.694890  0.205020  -0.330822
    C   C81   0.858790  0.686390  0.266420  0.000764
    C   C82   0.837140  0.616440  0.316720  -0.230756
    C   C83   0.857790  0.554990  0.305620  0.206321
    C   C84   0.900180  0.563480  0.244240  -0.246438
    C   C85   0.921830  0.633430  0.193940  0.039654
    C   C86   0.831390  0.477690  0.360620  -0.042692
    C   C87   0.756580  0.457280  0.402240  -0.131761
    C   C88   0.727960  0.384560  0.447880  -0.196795
    C   C89   0.774040  0.332340  0.451920  0.254487
    C   C90   0.848840  0.352740  0.410320  -0.124331
    C   C91   0.877570  0.425470  0.364660  -0.158613
    C   C92   0.923550  0.074350  0.154500  1.072848
    C   C93   0.893790  0.100090  0.205020  -0.343042
    C   C94   0.874790  0.047190  0.266420  0.005079
    C   C95   0.846140  0.066840  0.316720  -0.239267
    C   C96   0.836590  0.139390  0.305620  0.216103
    C   C97   0.855580  0.192280  0.244240  -0.255157
    C   C98   0.884230  0.172630  0.193940  0.045452
    C   C99   0.807990  0.161690  0.360620  -0.041052
    C   C100  0.841180  0.140480  0.402240  -0.133490
    C   C101  0.824160  0.167560  0.447880  -0.189516
    C   C102  0.774040  0.215740  0.451920  0.247185
    C   C103  0.740840  0.236940  0.410320  -0.120885
    C   C104  0.757770  0.209870  0.364660  -0.166405
    C   C105  0.750000  0.250000  0.500000  -0.424815
    C   C106  0.250000  0.750000  0.500000  -0.424537
    O   O1    0.992030  0.083630  0.831140  -0.668487
    O   O2    0.871720  0.044820  0.904160  -0.880656
    O   O3    0.964810  0.092810  0.943380  -1.210302
    O   O4    0.176830  0.085230  0.831140  -0.660333
    O   O5    0.224120  0.051020  0.904160  -0.874900
    O   O6    0.091810  0.963810  0.943380  -1.210669
    O   O7    0.083630  0.176830  0.831140  -0.661988
    O   O8    0.044820  0.224120  0.904160  -0.875488
    O   O9    0.092810  0.091810  0.943380  -1.205114
    O   O10   0.085230  0.992030  0.831140  -0.670942
    O   O11   0.051020  0.871720  0.904160  -0.881925
    O   O12   0.963810  0.964810  0.943380  -1.216791
    O   O13   0.007970  0.916370  0.168860  -0.668473
    O   O14   0.128280  0.955180  0.095840  -0.880656
    O   O15   0.035190  0.907190  0.056620  -1.210273
    O   O16   0.823170  0.914770  0.168860  -0.660354
    O   O17   0.775880  0.948980  0.095840  -0.874913
    O   O18   0.908190  0.036190  0.056620  -1.210686
    O   O19   0.916370  0.823170  0.168860  -0.661976
    O   O20   0.955180  0.775880  0.095840  -0.875480
    O   O21   0.907190  0.908190  0.056620  -1.205099
    O   O22   0.914770  0.007970  0.168860  -0.671015
    O   O23   0.948980  0.128280  0.095840  -0.881984
    O   O24   0.036190  0.035190  0.056620  -1.216816
