# Generated by REPEAT Assigner based on pymatgen
data_DB12-HOJNIF_freeONLY
_audit_creation_date              2022-05-24
_audit_creation_method            REPEAT_Assigner
_cell_length_a                    8.797700
_cell_length_b                    20.732300
_cell_length_c                    34.365200
_cell_angle_alpha                 90.000000
_cell_angle_beta                  90.000000
_cell_angle_gamma                 90.000000
_cell_volume                      6268.094116
_symmetry_space_group_name_H-M    P1
_symmetry_Int_Tables_number       1
loop_
    _symmetry_equiv_pos_site_id
    _symmetry_equiv_pos_as_xyz
    1  x,y,z
loop_
    _atom_site_type_symbol
    _atom_site_label
    _atom_site_fract_x
    _atom_site_fract_y
    _atom_site_fract_z
    _atom_type_partial_charge
    C   C1    0.102200  0.319800  0.682450  0.785874
    C   C2    0.259200  0.092200  0.125400  -0.119713
    C   C3    0.240800  0.907800  0.374600  -0.119711
    C   C4    0.352200  0.569800  0.317550  0.788737
    C   C5    0.300300  0.534300  0.282600  -0.085366
    C   C6    0.402400  0.512600  0.255050  -0.104882
    C   C7    0.353300  0.478700  0.222650  -0.090013
    C   C8    0.509200  0.842200  0.374600  -0.118097
    C   C9    0.352200  0.069800  0.817550  0.788739
    C   C10   0.300300  0.034300  0.782600  -0.085367
    C   C11   0.402400  0.012600  0.755050  -0.104883
    C   C12   0.353300  0.978700  0.722650  -0.090012
    C   C13   0.602200  0.319800  0.182450  0.785878
    C   C14   0.509200  0.342200  0.874600  -0.118096
    C   C15   0.852200  0.569800  0.817550  0.788738
    C   C16   0.800300  0.534300  0.782600  -0.085367
    C   C17   0.902400  0.512600  0.755050  -0.104882
    C   C18   0.853300  0.478700  0.722650  -0.090012
    C   C19   0.009200  0.842200  0.874600  -0.118095
    C   C20   0.852200  0.069800  0.317550  0.788737
    C   C21   0.800300  0.034300  0.282600  -0.085366
    C   C22   0.902400  0.012600  0.255050  -0.104881
    C   C23   0.853300  0.978700  0.222650  -0.090013
    C   C24   0.550300  0.284300  0.217400  -0.082685
    C   C25   0.009200  0.342200  0.374600  -0.118096
    C   C26   0.352200  0.680200  0.932450  0.788736
    C   C27   0.300300  0.715700  0.967400  -0.085366
    C   C28   0.402400  0.737400  0.994950  -0.104878
    C   C29   0.353300  0.771300  0.027350  -0.090013
    C   C30   0.509200  0.407800  0.875400  -0.118101
    C   C31   0.352200  0.180200  0.432450  0.788736
    C   C32   0.300300  0.215700  0.467400  -0.085365
    C   C33   0.402400  0.237400  0.494950  -0.104880
    C   C34   0.353300  0.271300  0.527350  -0.090014
    C   C35   0.652400  0.262600  0.244950  -0.107012
    C   C36   0.509200  0.907800  0.375400  -0.118100
    C   C37   0.852200  0.680200  0.432450  0.788735
    C   C38   0.800300  0.715700  0.467400  -0.085365
    C   C39   0.902400  0.737400  0.494950  -0.104879
    C   C40   0.853300  0.771300  0.527350  -0.090013
    C   C41   0.009200  0.407800  0.375400  -0.118099
    C   C42   0.852200  0.180200  0.932450  0.788735
    C   C43   0.800300  0.215700  0.967400  -0.085367
    C   C44   0.902400  0.237400  0.994950  -0.104877
    C   C45   0.853300  0.271300  0.027350  -0.090013
    C   C46   0.603300  0.228700  0.277350  -0.088694
    C   C47   0.009200  0.907800  0.875400  -0.118101
    C   C48   0.897800  0.569800  0.932450  0.785873
    C   C49   0.949700  0.534300  0.967400  -0.082682
    C   C50   0.847600  0.512600  0.994950  -0.107012
    C   C51   0.896700  0.478700  0.027350  -0.088693
    C   C52   0.740800  0.842200  0.875400  -0.119714
    C   C53   0.897800  0.069800  0.432450  0.785873
    C   C54   0.949700  0.034300  0.467400  -0.082681
    C   C55   0.847600  0.012600  0.494950  -0.107013
    C   C56   0.896700  0.978700  0.527350  -0.088693
    C   C57   0.759200  0.592200  0.125400  -0.119713
    C   C58   0.740800  0.342200  0.375400  -0.119712
    C   C59   0.397800  0.569800  0.432450  0.785876
    C   C60   0.449700  0.534300  0.467400  -0.082682
    C   C61   0.347600  0.512600  0.494950  -0.107013
    C   C62   0.396700  0.478700  0.527350  -0.088693
    C   C63   0.240800  0.842200  0.375400  -0.119712
    C   C64   0.397800  0.069800  0.932450  0.785876
    C   C65   0.449700  0.034300  0.967400  -0.082683
    C   C66   0.347600  0.012600  0.994950  -0.107011
    C   C67   0.396700  0.978700  0.027350  -0.088693
    C   C68   0.602200  0.819800  0.682450  0.785877
    C   C69   0.240800  0.342200  0.875400  -0.119714
    C   C70   0.125000  0.486500  0.625000  0.781966
    C   C71   0.125000  0.558200  0.625000  -0.026848
    C   C72   0.125000  0.986500  0.125000  0.781965
    C   C73   0.125000  0.058200  0.125000  -0.026847
    C   C74   0.625000  0.986500  0.625000  0.781967
    C   C75   0.625000  0.058200  0.625000  -0.026847
    C   C76   0.625000  0.263500  0.625000  0.781969
    C   C77   0.625000  0.191800  0.625000  -0.026849
    C   C78   0.625000  0.763500  0.125000  0.781968
    C   C79   0.550300  0.784300  0.717400  -0.082683
    C   C80   0.625000  0.691800  0.125000  -0.026848
    C   C81   0.625000  0.486500  0.125000  0.781967
    C   C82   0.625000  0.558200  0.125000  -0.026847
    C   C83   0.125000  0.263500  0.125000  0.781967
    C   C84   0.125000  0.191800  0.125000  -0.026848
    C   C85   0.125000  0.763500  0.625000  0.781968
    C   C86   0.125000  0.691800  0.625000  -0.026849
    C   C87   0.875000  0.513500  0.375000  0.781966
    C   C88   0.875000  0.441800  0.375000  -0.026848
    C   C89   0.875000  0.013500  0.875000  0.781965
    C   C90   0.652400  0.762600  0.744950  -0.107011
    C   C91   0.875000  0.941800  0.875000  -0.026847
    C   C92   0.375000  0.736500  0.375000  0.781969
    C   C93   0.375000  0.808200  0.375000  -0.026848
    C   C94   0.375000  0.236500  0.875000  0.781968
    C   C95   0.375000  0.308200  0.875000  -0.026848
    C   C96   0.375000  0.513500  0.875000  0.781967
    C   C97   0.375000  0.441800  0.875000  -0.026847
    C   C98   0.375000  0.013500  0.375000  0.781967
    C   C99   0.375000  0.941800  0.375000  -0.026848
    C   C100  0.875000  0.736500  0.875000  0.781967
    C   C101  0.603300  0.728700  0.777350  -0.088695
    C   C102  0.875000  0.808200  0.875000  -0.026848
    C   C103  0.875000  0.236500  0.375000  0.781968
    C   C104  0.875000  0.308200  0.375000  -0.026849
    C   C105  0.050300  0.284300  0.717400  -0.082682
    C   C106  0.759200  0.092200  0.625400  -0.119714
    C   C107  0.647800  0.430200  0.682450  0.788734
    C   C108  0.699700  0.465700  0.717400  -0.085364
    C   C109  0.597600  0.487400  0.744950  -0.104880
    C   C110  0.646700  0.521300  0.777350  -0.090014
    C   C111  0.490800  0.157800  0.625400  -0.118100
    C   C112  0.647800  0.930200  0.182450  0.788736
    C   C113  0.699700  0.965700  0.217400  -0.085365
    C   C114  0.597600  0.987400  0.244950  -0.104880
    C   C115  0.646700  0.021300  0.277350  -0.090013
    C   C116  0.152400  0.262600  0.744950  -0.107012
    C   C117  0.490800  0.657800  0.125400  -0.118100
    C   C118  0.147800  0.430200  0.182450  0.788735
    C   C119  0.199700  0.465700  0.217400  -0.085365
    C   C120  0.097600  0.487400  0.244950  -0.104879
    C   C121  0.146700  0.521300  0.277350  -0.090013
    C   C122  0.990800  0.157800  0.125400  -0.118099
    C   C123  0.147800  0.930200  0.682450  0.788734
    C   C124  0.199700  0.965700  0.717400  -0.085364
    C   C125  0.097600  0.987400  0.744950  -0.104879
    C   C126  0.146700  0.021300  0.777350  -0.090013
    C   C127  0.103300  0.228700  0.777350  -0.088695
    C   C128  0.990800  0.657800  0.625400  -0.118100
    C   C129  0.647800  0.319800  0.067550  0.788738
    C   C130  0.699700  0.284300  0.032600  -0.085367
    C   C131  0.597600  0.262600  0.005050  -0.104881
    C   C132  0.646700  0.228700  0.972650  -0.090012
    C   C133  0.490800  0.592200  0.124600  -0.118098
    C   C134  0.647800  0.819800  0.567550  0.788737
    C   C135  0.699700  0.784300  0.532600  -0.085366
    C   C136  0.597600  0.762600  0.505050  -0.104883
    C   C137  0.646700  0.728700  0.472650  -0.090012
    C   C138  0.259200  0.592200  0.625400  -0.119713
    C   C139  0.490800  0.092200  0.624600  -0.118097
    C   C140  0.147800  0.319800  0.567550  0.788737
    C   C141  0.199700  0.284300  0.532600  -0.085366
    C   C142  0.097600  0.262600  0.505050  -0.104882
    C   C143  0.146700  0.228700  0.472650  -0.090012
    C   C144  0.990800  0.592200  0.624600  -0.118096
    C   C145  0.147800  0.819800  0.067550  0.788737
    C   C146  0.199700  0.784300  0.032600  -0.085368
    C   C147  0.097600  0.762600  0.005050  -0.104880
    C   C148  0.146700  0.728700  0.972650  -0.090011
    C   C149  0.102200  0.819800  0.182450  0.785875
    C   C150  0.990800  0.092200  0.124600  -0.118098
    C   C151  0.102200  0.430200  0.067550  0.785878
    C   C152  0.050300  0.465700  0.032600  -0.082686
    C   C153  0.152400  0.487400  0.005050  -0.107012
    C   C154  0.103300  0.521300  0.972650  -0.088694
    C   C155  0.259200  0.157800  0.124600  -0.119710
    C   C156  0.102200  0.930200  0.567550  0.785877
    C   C157  0.050300  0.965700  0.532600  -0.082685
    C   C158  0.152400  0.987400  0.505050  -0.107014
    C   C159  0.103300  0.021300  0.472650  -0.088694
    C   C160  0.050300  0.784300  0.217400  -0.082683
    C   C161  0.259200  0.657800  0.624600  -0.119709
    C   C162  0.602200  0.430200  0.567550  0.785880
    C   C163  0.550300  0.465700  0.532600  -0.082686
    C   C164  0.652400  0.487400  0.505050  -0.107013
    C   C165  0.603300  0.521300  0.472650  -0.088694
    C   C166  0.759200  0.157800  0.624600  -0.119709
    C   C167  0.602200  0.930200  0.067550  0.785881
    C   C168  0.550300  0.965700  0.032600  -0.082687
    C   C169  0.652400  0.987400  0.005050  -0.107012
    C   C170  0.603300  0.021300  0.972650  -0.088694
    C   C171  0.152400  0.762600  0.244950  -0.107012
    C   C172  0.759200  0.657800  0.124600  -0.119710
    C   C173  0.897800  0.680200  0.317550  0.785874
    C   C174  0.949700  0.715700  0.282600  -0.082682
    C   C175  0.847600  0.737400  0.255050  -0.107015
    C   C176  0.896700  0.771300  0.222650  -0.088692
    C   C177  0.740800  0.407800  0.374600  -0.119711
    C   C178  0.897800  0.180200  0.817550  0.785876
    C   C179  0.949700  0.215700  0.782600  -0.082683
    C   C180  0.847600  0.237400  0.755050  -0.107016
    C   C181  0.896700  0.271300  0.722650  -0.088692
    C   C182  0.103300  0.728700  0.277350  -0.088694
    C   C183  0.740800  0.907800  0.874600  -0.119710
    C   C184  0.397800  0.680200  0.817550  0.785879
    C   C185  0.449700  0.715700  0.782600  -0.082684
    C   C186  0.347600  0.737400  0.755050  -0.107015
    C   C187  0.396700  0.771300  0.722650  -0.088692
    C   C188  0.240800  0.407800  0.874600  -0.119710
    C   C189  0.397800  0.180200  0.317550  0.785878
    C   C190  0.449700  0.215700  0.282600  -0.082683
    C   C191  0.347600  0.237400  0.255050  -0.107014
    C   C192  0.396700  0.271300  0.222650  -0.088692
    H   H1    0.257700  0.271100  0.741600  0.117430
    H   H2    0.757700  0.771100  0.741600  0.117430
    H   H3    0.674800  0.714000  0.796000  0.117508
    H   H4    0.853000  0.069100  0.626400  0.122594
    H   H5    0.492300  0.478900  0.741600  0.116628
    H   H6    0.575200  0.536000  0.796000  0.118682
    H   H7    0.397000  0.180900  0.626400  0.121853
    H   H8    0.492300  0.978900  0.241600  0.116629
    H   H9    0.575200  0.036000  0.296000  0.118682
    H   H10   0.397000  0.680900  0.126400  0.121852
    H   H11   0.992300  0.478900  0.241600  0.116628
    H   H12   0.174800  0.214000  0.796000  0.117508
    H   H13   0.075200  0.536000  0.296000  0.118682
    H   H14   0.897000  0.180900  0.126400  0.121852
    H   H15   0.992300  0.978900  0.741600  0.116627
    H   H16   0.075200  0.036000  0.796000  0.118682
    H   H17   0.897000  0.680900  0.626400  0.121853
    H   H18   0.492300  0.271100  0.008400  0.116630
    H   H19   0.575200  0.214000  0.954000  0.118680
    H   H20   0.397000  0.569100  0.123600  0.121852
    H   H21   0.492300  0.771100  0.508400  0.116630
    H   H22   0.575200  0.714000  0.454000  0.118680
    H   H23   0.353000  0.569100  0.626400  0.122594
    H   H24   0.397000  0.069100  0.623600  0.121851
    H   H25   0.992300  0.271100  0.508400  0.116629
    H   H26   0.075200  0.214000  0.454000  0.118680
    H   H27   0.897000  0.569100  0.623600  0.121851
    H   H28   0.992300  0.771100  0.008400  0.116629
    H   H29   0.075200  0.714000  0.954000  0.118680
    H   H30   0.897000  0.069100  0.123600  0.121851
    H   H31   0.257700  0.478900  0.008400  0.117431
    H   H32   0.174800  0.536000  0.954000  0.117507
    H   H33   0.353000  0.180900  0.123600  0.122593
    H   H34   0.257700  0.771100  0.241600  0.117431
    H   H35   0.257700  0.978900  0.508400  0.117432
    H   H36   0.174800  0.036000  0.454000  0.117507
    H   H37   0.353000  0.680900  0.623600  0.122592
    H   H38   0.757700  0.478900  0.508400  0.117432
    H   H39   0.674800  0.536000  0.454000  0.117507
    H   H40   0.853000  0.180900  0.623600  0.122592
    H   H41   0.757700  0.978900  0.008400  0.117431
    H   H42   0.674800  0.036000  0.954000  0.117507
    H   H43   0.853000  0.680900  0.123600  0.122593
    H   H44   0.742300  0.728900  0.258400  0.117432
    H   H45   0.174800  0.714000  0.296000  0.117507
    H   H46   0.825200  0.786000  0.204000  0.117507
    H   H47   0.647000  0.430900  0.373600  0.122593
    H   H48   0.742300  0.228900  0.758400  0.117433
    H   H49   0.825200  0.286000  0.704000  0.117506
    H   H50   0.647000  0.930900  0.873600  0.122592
    H   H51   0.242300  0.728900  0.758400  0.117433
    H   H52   0.325200  0.786000  0.704000  0.117506
    H   H53   0.147000  0.430900  0.873600  0.122593
    H   H54   0.242300  0.228900  0.258400  0.117432
    H   H55   0.325200  0.286000  0.204000  0.117507
    H   H56   0.353000  0.069100  0.126400  0.122594
    H   H57   0.147000  0.930900  0.373600  0.122593
    H   H58   0.507700  0.521100  0.258400  0.116630
    H   H59   0.424800  0.464000  0.204000  0.118681
    H   H60   0.603000  0.819100  0.373600  0.121851
    H   H61   0.507700  0.021100  0.758400  0.116631
    H   H62   0.424800  0.964000  0.704000  0.118680
    H   H63   0.603000  0.319100  0.873600  0.121851
    H   H64   0.007700  0.521100  0.758400  0.116630
    H   H65   0.924800  0.464000  0.704000  0.118680
    H   H66   0.103000  0.819100  0.873600  0.121850
    H   H67   0.757700  0.271100  0.241600  0.117431
    H   H68   0.007700  0.021100  0.258400  0.116629
    H   H69   0.924800  0.964000  0.204000  0.118681
    H   H70   0.103000  0.319100  0.373600  0.121851
    H   H71   0.507700  0.728900  0.991600  0.116628
    H   H72   0.424800  0.786000  0.046000  0.118682
    H   H73   0.603000  0.430900  0.876400  0.121853
    H   H74   0.507700  0.228900  0.491600  0.116628
    H   H75   0.424800  0.286000  0.546000  0.118682
    H   H76   0.603000  0.930900  0.376400  0.121852
    H   H77   0.007700  0.728900  0.491600  0.116628
    H   H78   0.674800  0.214000  0.296000  0.117508
    H   H79   0.924800  0.786000  0.546000  0.118682
    H   H80   0.103000  0.430900  0.376400  0.121852
    H   H81   0.007700  0.228900  0.991600  0.116627
    H   H82   0.924800  0.286000  0.046000  0.118681
    H   H83   0.103000  0.930900  0.876400  0.121853
    H   H84   0.742300  0.521100  0.991600  0.117430
    H   H85   0.825200  0.464000  0.046000  0.117507
    H   H86   0.647000  0.819100  0.876400  0.122594
    H   H87   0.742300  0.021100  0.491600  0.117430
    H   H88   0.825200  0.964000  0.546000  0.117508
    H   H89   0.853000  0.569100  0.126400  0.122593
    H   H90   0.647000  0.319100  0.376400  0.122594
    H   H91   0.242300  0.521100  0.491600  0.117431
    H   H92   0.325200  0.464000  0.546000  0.117508
    H   H93   0.147000  0.819100  0.376400  0.122594
    H   H94   0.242300  0.021100  0.991600  0.117430
    H   H95   0.325200  0.964000  0.046000  0.117508
    H   H96   0.147000  0.319100  0.876400  0.122595
    O   O1    0.241700  0.332720  0.679410  -0.651706
    O   O2    0.741700  0.832720  0.679410  -0.651708
    O   O3    0.506200  0.834680  0.657490  -0.690861
    O   O4    0.744700  0.958100  0.635270  -0.689673
    O   O5    0.508300  0.417280  0.679410  -0.652193
    O   O6    0.743800  0.415320  0.657490  -0.691171
    O   O7    0.505300  0.291900  0.635270  -0.690472
    O   O8    0.508300  0.917280  0.179410  -0.652193
    O   O9    0.743800  0.915320  0.157490  -0.691172
    O   O10   0.505300  0.791900  0.135270  -0.690471
    O   O11   0.008300  0.417280  0.179410  -0.652192
    O   O12   0.006200  0.334680  0.657490  -0.690859
    O   O13   0.243800  0.415320  0.157490  -0.691171
    O   O14   0.005300  0.291900  0.135270  -0.690469
    O   O15   0.008300  0.917280  0.679410  -0.652192
    O   O16   0.243800  0.915320  0.657490  -0.691169
    O   O17   0.005300  0.791900  0.635270  -0.690470
    O   O18   0.508300  0.332720  0.070590  -0.652194
    O   O19   0.743800  0.334680  0.092510  -0.691173
    O   O20   0.505300  0.458100  0.114730  -0.690470
    O   O21   0.508300  0.832720  0.570590  -0.652193
    O   O22   0.743800  0.834680  0.592510  -0.691174
    O   O23   0.244700  0.458100  0.635270  -0.689671
    O   O24   0.505300  0.958100  0.614730  -0.690470
    O   O25   0.008300  0.332720  0.570590  -0.652192
    O   O26   0.243800  0.334680  0.592510  -0.691172
    O   O27   0.005300  0.458100  0.614730  -0.690468
    O   O28   0.008300  0.832720  0.070590  -0.652192
    O   O29   0.243800  0.834680  0.092510  -0.691172
    O   O30   0.005300  0.958100  0.114730  -0.690468
    O   O31   0.241700  0.417280  0.070590  -0.651707
    O   O32   0.006200  0.415320  0.092510  -0.690861
    O   O33   0.244700  0.291900  0.114730  -0.689672
    O   O34   0.241700  0.832720  0.179410  -0.651706
    O   O35   0.241700  0.917280  0.570590  -0.651706
    O   O36   0.006200  0.915320  0.592510  -0.690861
    O   O37   0.244700  0.791900  0.614730  -0.689671
    O   O38   0.741700  0.417280  0.570590  -0.651708
    O   O39   0.506200  0.415320  0.592510  -0.690864
    O   O40   0.744700  0.291900  0.614730  -0.689673
    O   O41   0.741700  0.917280  0.070590  -0.651708
    O   O42   0.506200  0.915320  0.092510  -0.690863
    O   O43   0.744700  0.791900  0.114730  -0.689673
    O   O44   0.758300  0.667280  0.320590  -0.651705
    O   O45   0.006200  0.834680  0.157490  -0.690860
    O   O46   0.993800  0.665320  0.342510  -0.690861
    O   O47   0.755300  0.541900  0.364730  -0.689671
    O   O48   0.758300  0.167280  0.820590  -0.651705
    O   O49   0.993800  0.165320  0.842510  -0.690862
    O   O50   0.755300  0.041900  0.864730  -0.689670
    O   O51   0.258300  0.667280  0.820590  -0.651707
    O   O52   0.493800  0.665320  0.842510  -0.690864
    O   O53   0.255300  0.541900  0.864730  -0.689672
    O   O54   0.258300  0.167280  0.320590  -0.651707
    O   O55   0.493800  0.165320  0.342510  -0.690863
    O   O56   0.244700  0.958100  0.135270  -0.689670
    O   O57   0.255300  0.041900  0.364730  -0.689672
    O   O58   0.491700  0.582720  0.320590  -0.652194
    O   O59   0.256200  0.584680  0.342510  -0.691173
    O   O60   0.494700  0.708100  0.364730  -0.690471
    O   O61   0.491700  0.082720  0.820590  -0.652193
    O   O62   0.256200  0.084680  0.842510  -0.691174
    O   O63   0.494700  0.208100  0.864730  -0.690471
    O   O64   0.991700  0.582720  0.820590  -0.652192
    O   O65   0.756200  0.584680  0.842510  -0.691173
    O   O66   0.994700  0.708100  0.864730  -0.690469
    O   O67   0.741700  0.332720  0.179410  -0.651708
    O   O68   0.991700  0.082720  0.320590  -0.652192
    O   O69   0.756200  0.084680  0.342510  -0.691171
    O   O70   0.994700  0.208100  0.364730  -0.690469
    O   O71   0.491700  0.667280  0.929410  -0.652194
    O   O72   0.256200  0.665320  0.907490  -0.691171
    O   O73   0.494700  0.541900  0.885270  -0.690471
    O   O74   0.491700  0.167280  0.429410  -0.652194
    O   O75   0.256200  0.165320  0.407490  -0.691172
    O   O76   0.494700  0.041900  0.385270  -0.690471
    O   O77   0.991700  0.667280  0.429410  -0.652192
    O   O78   0.506200  0.334680  0.157490  -0.690862
    O   O79   0.756200  0.665320  0.407490  -0.691170
    O   O80   0.994700  0.541900  0.385270  -0.690469
    O   O81   0.991700  0.167280  0.929410  -0.652193
    O   O82   0.756200  0.165320  0.907490  -0.691170
    O   O83   0.994700  0.041900  0.885270  -0.690469
    O   O84   0.758300  0.582720  0.929410  -0.651706
    O   O85   0.993800  0.584680  0.907490  -0.690859
    O   O86   0.755300  0.708100  0.885270  -0.689673
    O   O87   0.758300  0.082720  0.429410  -0.651706
    O   O88   0.993800  0.084680  0.407490  -0.690859
    O   O89   0.744700  0.458100  0.135270  -0.689672
    O   O90   0.755300  0.208100  0.385270  -0.689672
    O   O91   0.258300  0.582720  0.429410  -0.651708
    O   O92   0.493800  0.584680  0.407490  -0.690861
    O   O93   0.255300  0.708100  0.385270  -0.689674
    O   O94   0.258300  0.082720  0.929410  -0.651708
    O   O95   0.493800  0.084680  0.907490  -0.690861
    O   O96   0.255300  0.208100  0.885270  -0.689674
    Sc  Sc1   0.375000  0.375000  0.635470  1.818111
    Sc  Sc2   0.625000  0.125000  0.864530  1.818106
    Sc  Sc3   0.125000  0.625000  0.864530  1.818104
    Sc  Sc4   0.125000  0.125000  0.364530  1.818106
    Sc  Sc5   0.625000  0.625000  0.885470  1.818113
    Sc  Sc6   0.625000  0.125000  0.385470  1.818110
    Sc  Sc7   0.125000  0.625000  0.385470  1.818108
    Sc  Sc8   0.125000  0.125000  0.885470  1.818110
    Sc  Sc9   0.375000  0.875000  0.135470  1.818109
    Sc  Sc10  0.875000  0.375000  0.135470  1.818107
    Sc  Sc11  0.875000  0.875000  0.635470  1.818108
    Sc  Sc12  0.375000  0.375000  0.114530  1.818109
    Sc  Sc13  0.375000  0.875000  0.614530  1.818106
    Sc  Sc14  0.875000  0.375000  0.614530  1.818104
    Sc  Sc15  0.875000  0.875000  0.114530  1.818106
    Sc  Sc16  0.625000  0.625000  0.364530  1.818108
