# Generated by REPEAT Assigner based on pymatgen
data_DB12-WASNIO_freeONLY
_audit_creation_date              2022-05-24
_audit_creation_method            REPEAT_Assigner
_cell_length_a                    8.736200
_cell_length_b                    8.902300
_cell_length_c                    24.059000
_cell_angle_alpha                 93.750000
_cell_angle_beta                  90.000000
_cell_angle_gamma                 90.000000
_cell_volume                      1867.116904
_symmetry_space_group_name_H-M    P1
_symmetry_Int_Tables_number       1
loop_
    _symmetry_equiv_pos_site_id
    _symmetry_equiv_pos_as_xyz
    1  x,y,z
loop_
    _atom_site_type_symbol
    _atom_site_label
    _atom_site_fract_x
    _atom_site_fract_y
    _atom_site_fract_z
    _atom_type_partial_charge
    Cu  Cu1  0.712660  0.750000  0.750000  0.672803
    Cu  Cu2  0.287340  0.250000  0.250000  0.672647
    Cu  Cu3  0.000000  0.500000  0.500000  0.552466
    Cu  Cu4  0.000000  0.000000  0.000000  0.552488
    H   H1   0.000600  0.550500  0.629700  0.202643
    H   H2   0.215600  0.233700  0.540100  0.095900
    H   H3   0.279600  0.202500  0.638000  0.145949
    H   H4   0.117300  0.521600  0.724300  0.052091
    H   H5   0.255900  0.411400  0.726700  -0.044640
    H   H6   0.085500  0.352200  0.789300  -0.010004
    H   H7   0.952800  0.349900  0.746400  -0.044096
    H   H8   0.653800  0.664300  0.623700  0.127356
    H   H9   0.647900  0.396500  0.745100  0.126437
    H   H10  0.586000  0.243800  0.659200  0.148428
    H   H11  0.519400  0.312700  0.557000  0.062519
    H   H12  0.683300  0.372400  0.543700  0.124439
    H   H13  0.584200  0.612200  0.531600  0.060718
    H   H14  0.420000  0.558200  0.548100  0.071696
    H   H15  0.018000  0.003000  0.550100  0.107813
    H   H16  0.097800  0.945000  0.602700  0.028867
    H   H17  0.854800  0.059800  0.619400  0.055467
    H   H18  0.780700  0.920700  0.586600  0.055997
    H   H19  0.000600  0.949500  0.870300  0.202528
    H   H20  0.215600  0.266300  0.959900  0.095879
    H   H21  0.279600  0.297500  0.862000  0.145963
    H   H22  0.117300  0.978400  0.775700  0.051967
    H   H23  0.255900  0.088600  0.773300  -0.044779
    H   H24  0.085500  0.147800  0.710700  -0.009931
    H   H25  0.952800  0.150100  0.753600  -0.044076
    H   H26  0.653800  0.835700  0.876300  0.127441
    H   H27  0.647900  0.103500  0.754900  0.126366
    H   H28  0.586000  0.256200  0.840800  0.148436
    H   H29  0.519400  0.187300  0.943000  0.062555
    H   H30  0.683300  0.127600  0.956300  0.124465
    H   H31  0.584200  0.887800  0.968400  0.060714
    H   H32  0.420000  0.941800  0.951900  0.071687
    H   H33  0.018000  0.497000  0.949900  0.107823
    H   H34  0.097800  0.555000  0.897300  0.028996
    H   H35  0.854800  0.440200  0.880600  0.055226
    H   H36  0.780700  0.579300  0.913400  0.055746
    H   H37  0.999400  0.449500  0.370300  0.202388
    H   H38  0.784400  0.766300  0.459900  0.095897
    H   H39  0.720400  0.797500  0.362000  0.145972
    H   H40  0.882700  0.478400  0.275700  0.051979
    H   H41  0.744100  0.588600  0.273300  -0.044700
    H   H42  0.914500  0.647800  0.210700  -0.009987
    H   H43  0.047200  0.650100  0.253600  -0.044065
    H   H44  0.346200  0.335700  0.376300  0.127336
    H   H45  0.352100  0.603500  0.254900  0.126512
    H   H46  0.414000  0.756200  0.340800  0.148396
    H   H47  0.480600  0.687300  0.443000  0.062505
    H   H48  0.316700  0.627600  0.456300  0.124403
    H   H49  0.415800  0.387800  0.468400  0.060717
    H   H50  0.580000  0.441800  0.451900  0.071685
    H   H51  0.982000  0.997000  0.449900  0.107827
    H   H52  0.902200  0.055000  0.397300  0.028916
    H   H53  0.145200  0.940200  0.380600  0.055385
    H   H54  0.219300  0.079300  0.413400  0.055929
    H   H55  0.999400  0.050500  0.129700  0.202687
    H   H56  0.784400  0.733700  0.040100  0.095894
    H   H57  0.720400  0.702500  0.138000  0.145961
    H   H58  0.882700  0.021600  0.224300  0.052001
    H   H59  0.744100  0.911400  0.226700  -0.044679
    H   H60  0.914500  0.852200  0.289300  -0.009991
    H   H61  0.047200  0.849900  0.246400  -0.044138
    H   H62  0.346200  0.164300  0.123700  0.127407
    H   H63  0.352100  0.896500  0.245100  0.126477
    H   H64  0.414000  0.743800  0.159200  0.148408
    H   H65  0.480600  0.812700  0.057000  0.062535
    H   H66  0.316700  0.872400  0.043700  0.124447
    H   H67  0.415800  0.112200  0.031600  0.060686
    H   H68  0.580000  0.058200  0.048100  0.071689
    H   H69  0.982000  0.503000  0.050100  0.107804
    H   H70  0.902200  0.445000  0.102700  0.028882
    H   H71  0.145200  0.559800  0.119400  0.055430
    H   H72  0.219300  0.420700  0.086600  0.055962
    C   C1   0.061400  0.467800  0.619100  -0.074068
    C   C2   0.179800  0.293600  0.570400  -0.010969
    C   C3   0.216000  0.275600  0.624400  -0.120266
    C   C4   0.149300  0.418300  0.715800  0.119793
    C   C5   0.058700  0.320700  0.751200  0.096129
    C   C6   0.645100  0.578500  0.643470  -0.044049
    C   C7   0.641900  0.432300  0.709660  0.025485
    C   C8   0.607100  0.346300  0.662350  -0.252247
    C   C9   0.585800  0.400100  0.560730  -0.041612
    C   C10  0.515200  0.526600  0.530170  -0.080984
    C   C11  0.034700  0.775200  0.547050  0.757655
    C   C12  0.012500  0.927400  0.577330  -0.238576
    C   C13  0.866300  0.952700  0.610140  -0.169497
    C   C14  0.858000  0.871600  0.663080  0.777890
    C   C15  0.061400  0.032200  0.880900  -0.073800
    C   C16  0.179800  0.206400  0.929600  -0.010744
    C   C17  0.216000  0.224400  0.875600  -0.120426
    C   C18  0.149300  0.081700  0.784200  0.120379
    C   C19  0.058700  0.179300  0.748800  0.095453
    C   C20  0.645100  0.921500  0.856530  -0.044048
    C   C21  0.641900  0.067700  0.790340  0.025790
    C   C22  0.607100  0.153700  0.837650  -0.252357
    C   C23  0.585800  0.099900  0.939270  -0.041791
    C   C24  0.515200  0.973400  0.969830  -0.081017
    C   C25  0.034700  0.724800  0.952950  0.757875
    C   C26  0.012500  0.572600  0.922670  -0.239043
    C   C27  0.866300  0.547300  0.889860  -0.168441
    C   C28  0.858000  0.628400  0.836920  0.777267
    C   C29  0.938600  0.532200  0.380900  -0.073659
    C   C30  0.820200  0.706400  0.429600  -0.010863
    C   C31  0.784000  0.724400  0.375600  -0.120362
    C   C32  0.850700  0.581700  0.284200  0.120147
    C   C33  0.941300  0.679300  0.248800  0.095764
    C   C34  0.354900  0.421500  0.356530  -0.043970
    C   C35  0.358100  0.567700  0.290340  0.025295
    C   C36  0.392900  0.653700  0.337650  -0.252132
    C   C37  0.414200  0.599900  0.439270  -0.041588
    C   C38  0.484800  0.473400  0.469830  -0.081011
    C   C39  0.965300  0.224800  0.452950  0.757751
    C   C40  0.987500  0.072600  0.422670  -0.238744
    C   C41  0.133700  0.047300  0.389860  -0.169224
    C   C42  0.142000  0.128400  0.336920  0.777884
    C   C43  0.938600  0.967800  0.119100  -0.074082
    C   C44  0.820200  0.793600  0.070400  -0.010931
    C   C45  0.784000  0.775600  0.124400  -0.120332
    C   C46  0.850700  0.918300  0.215800  0.120008
    C   C47  0.941300  0.820700  0.251200  0.095868
    C   C48  0.354900  0.078500  0.143470  -0.044133
    C   C49  0.358100  0.932300  0.209660  0.025434
    C   C50  0.392900  0.846300  0.162350  -0.252223
    C   C51  0.414200  0.900100  0.060730  -0.041671
    C   C52  0.484800  0.026600  0.030170  -0.080903
    C   C53  0.965300  0.275200  0.047050  0.757658
    C   C54  0.987500  0.427400  0.077330  -0.238601
    C   C55  0.133700  0.452700  0.110140  -0.169317
    C   C56  0.142000  0.371600  0.163080  0.777725
    N   N1   0.081700  0.414700  0.567470  -0.137000
    N   N2   0.139900  0.386800  0.654810  0.032645
    N   N3   0.666100  0.575900  0.697970  -0.184441
    N   N4   0.610100  0.442800  0.620730  0.115333
    N   N5   0.081700  0.085300  0.932530  -0.137169
    N   N6   0.139900  0.113200  0.845190  0.032461
    N   N7   0.666100  0.924100  0.802030  -0.184698
    N   N8   0.610100  0.057200  0.879270  0.115500
    N   N9   0.918300  0.585300  0.432530  -0.137136
    N   N10  0.860100  0.613200  0.345190  0.032454
    N   N11  0.333900  0.424100  0.302030  -0.184321
    N   N12  0.389900  0.557200  0.379270  0.115299
    N   N13  0.918300  0.914700  0.067470  -0.137025
    N   N14  0.860100  0.886800  0.154810  0.032648
    N   N15  0.333900  0.075900  0.197970  -0.184358
    N   N16  0.389900  0.942800  0.120730  0.115376
    O   O1   0.965700  0.798700  0.680060  -0.615049
    O   O2   0.728500  0.882200  0.688440  -0.668206
    O   O3   0.925900  0.680300  0.546270  -0.559790
    O   O4   0.157500  0.750300  0.523050  -0.708105
    O   O5   0.965700  0.701300  0.819940  -0.615077
    O   O6   0.728500  0.617800  0.811560  -0.668104
    O   O7   0.925900  0.819700  0.953730  -0.559784
    O   O8   0.157500  0.749700  0.976950  -0.708173
    O   O9   0.034300  0.201300  0.319940  -0.615098
    O   O10  0.271500  0.117800  0.311560  -0.668255
    O   O11  0.074100  0.319700  0.453730  -0.559762
    O   O12  0.842500  0.249700  0.476950  -0.708146
    O   O13  0.034300  0.298700  0.180060  -0.615026
    O   O14  0.271500  0.382200  0.188440  -0.668183
    O   O15  0.074100  0.180300  0.046270  -0.559808
    O   O16  0.842500  0.250300  0.023050  -0.708121
