# Generated by REPEAT Assigner based on pymatgen
data_DB12-LUFNEG_clean
_audit_creation_date              2022-05-24
_audit_creation_method            REPEAT_Assigner
_cell_length_a                    14.918000
_cell_length_b                    15.596000
_cell_length_c                    16.442000
_cell_angle_alpha                 90.000000
_cell_angle_beta                  105.606000
_cell_angle_gamma                 90.000000
_cell_volume                      3684.388076
_symmetry_space_group_name_H-M    P1
_symmetry_Int_Tables_number       1
loop_
    _symmetry_equiv_pos_site_id
    _symmetry_equiv_pos_as_xyz
    1  x,y,z
loop_
    _atom_site_type_symbol
    _atom_site_label
    _atom_site_fract_x
    _atom_site_fract_y
    _atom_site_fract_z
    _atom_type_partial_charge
    Mn  Mn1   0.253910  0.931600  0.962910  1.150012
    Mn  Mn2   0.275880  0.645940  0.045990  1.143035
    Mn  Mn3   0.246090  0.431600  0.537090  1.149949
    Mn  Mn4   0.224120  0.145940  0.454010  1.143043
    Mn  Mn5   0.746090  0.068400  0.037090  1.149943
    Mn  Mn6   0.724120  0.354060  0.954010  1.143057
    Mn  Mn7   0.753910  0.568400  0.462910  1.149985
    Mn  Mn8   0.775880  0.854060  0.545990  1.143020
    H   H1    0.276500  0.965500  0.235100  0.105645
    H   H2    0.315600  0.905200  0.591900  0.376639
    H   H3    0.264900  0.611600  0.774400  0.100016
    H   H4    0.238400  0.682000  0.429700  0.352897
    H   H5    0.277100  0.595800  0.304000  0.056571
    H   H6    0.271500  0.555200  0.389500  0.019898
    H   H7    0.272700  0.868400  0.780000  0.155854
    H   H8    0.251800  0.836000  0.439300  0.226896
    H   H9    0.239300  0.981000  0.700300  0.115919
    H   H10   0.226700  0.015700  0.608600  -0.004608
    H   H11   0.287500  0.708300  0.239800  0.184061
    H   H12   0.406800  0.472300  0.349300  0.100792
    H   H13   0.277100  0.740900  0.566800  0.231182
    H   H14   0.105600  0.900300  0.499200  0.107837
    H   H15   0.954400  0.865000  0.468400  0.076542
    H   H16   0.094500  0.968400  0.730100  0.165187
    H   H17   0.596400  0.688400  0.479100  -0.006706
    H   H18   0.942400  0.929100  0.694600  0.088812
    H   H19   0.562700  0.455700  0.390400  0.046828
    H   H20   0.439400  0.706900  0.446200  0.149972
    H   H21   0.223500  0.465500  0.264900  0.105629
    H   H22   0.184400  0.405200  0.908100  0.376612
    H   H23   0.235100  0.111600  0.725600  0.100039
    H   H24   0.261600  0.182000  0.070300  0.352887
    H   H25   0.222900  0.095800  0.196000  0.056539
    H   H26   0.228500  0.055200  0.110500  0.019890
    H   H27   0.227300  0.368400  0.720000  0.155855
    H   H28   0.248200  0.336000  0.060700  0.226903
    H   H29   0.260700  0.481000  0.799700  0.115959
    H   H30   0.273300  0.515700  0.891400  -0.004566
    H   H31   0.212500  0.208300  0.260200  0.184058
    H   H32   0.093200  0.972300  0.150700  0.100790
    H   H33   0.222900  0.240900  0.933200  0.231183
    H   H34   0.394400  0.400300  0.000800  0.107848
    H   H35   0.545600  0.365000  0.031600  0.076511
    H   H36   0.405500  0.468400  0.769900  0.165144
    H   H37   0.903600  0.188400  0.020900  -0.006712
    H   H38   0.557600  0.429100  0.805400  0.089074
    H   H39   0.937300  0.955700  0.109600  0.046943
    H   H40   0.060600  0.206900  0.053800  0.149951
    H   H41   0.723500  0.034500  0.764900  0.105648
    H   H42   0.684400  0.094800  0.408100  0.376575
    H   H43   0.735100  0.388400  0.225600  0.100035
    H   H44   0.761600  0.318000  0.570300  0.352922
    H   H45   0.722900  0.404200  0.696000  0.056492
    H   H46   0.728500  0.444800  0.610500  0.019855
    H   H47   0.727300  0.131600  0.220000  0.155804
    H   H48   0.748200  0.164000  0.560700  0.226901
    H   H49   0.760700  0.019000  0.299700  0.115996
    H   H50   0.773300  0.984300  0.391400  -0.004497
    H   H51   0.712500  0.291700  0.760200  0.184069
    H   H52   0.593200  0.527700  0.650700  0.100776
    H   H53   0.722900  0.259100  0.433200  0.231175
    H   H54   0.894400  0.099700  0.500800  0.107833
    H   H55   0.045600  0.135000  0.531600  0.076507
    H   H56   0.905500  0.031600  0.269900  0.165280
    H   H57   0.403600  0.311600  0.520900  -0.006701
    H   H58   0.057600  0.070900  0.305400  0.089116
    H   H59   0.437300  0.544300  0.609600  0.046832
    H   H60   0.560600  0.293100  0.553800  0.149957
    H   H61   0.776500  0.534500  0.735100  0.105634
    H   H62   0.815600  0.594800  0.091900  0.376613
    H   H63   0.764900  0.888400  0.274400  0.099991
    H   H64   0.738400  0.818000  0.929700  0.352715
    H   H65   0.777100  0.904200  0.804000  0.057081
    H   H66   0.771500  0.944800  0.889500  0.020383
    H   H67   0.772700  0.631600  0.280000  0.155844
    H   H68   0.751800  0.664000  0.939300  0.226828
    H   H69   0.739300  0.519000  0.200300  0.115945
    H   H70   0.726700  0.484300  0.108600  -0.004583
    H   H71   0.787500  0.791700  0.739800  0.184040
    H   H72   0.906800  0.027700  0.849300  0.100665
    H   H73   0.777100  0.759100  0.066800  0.231156
    H   H74   0.605600  0.599700  0.999200  0.107840
    H   H75   0.454400  0.635000  0.968400  0.076509
    H   H76   0.594500  0.531600  0.230100  0.165145
    H   H77   0.096400  0.811600  0.979100  -0.006710
    H   H78   0.442400  0.570900  0.194600  0.089080
    H   H79   0.062700  0.044300  0.890400  0.046758
    H   H80   0.939400  0.793100  0.946200  0.149887
    C   C1    0.280700  0.836500  0.223300  -0.047284
    C   C2    0.261400  0.914100  0.344600  0.076804
    C   C3    0.288900  0.834200  0.133300  0.785952
    C   C4    0.250600  0.996900  0.387500  0.557253
    C   C5    0.269700  0.664400  0.663100  0.156353
    C   C6    0.273400  0.914000  0.262700  -0.157769
    C   C7    0.262300  0.581200  0.614700  0.514223
    C   C8    0.267700  0.663600  0.747400  -0.256733
    C   C9    0.298200  0.602000  0.364900  0.370192
    C   C10   0.269900  0.739600  0.791000  0.094502
    C   C11   0.278900  0.819800  0.666200  0.434120
    C   C12   0.273600  0.817400  0.750900  -0.377266
    C   C13   0.259300  0.836000  0.385000  -0.425292
    C   C14   0.219800  0.965400  0.641100  0.231416
    C   C15   0.279900  0.759700  0.265900  -0.379170
    C   C16   0.268100  0.758200  0.346900  0.495416
    C   C17   0.444000  0.517300  0.376400  -0.272569
    C   C18   0.263800  0.739800  0.881200  0.614603
    C   C19   0.403000  0.593300  0.392000  0.156846
    C   C20   0.275400  0.741000  0.622900  -0.446315
    C   C21   0.118700  0.940500  0.618600  0.234388
    C   C22   0.073400  0.907500  0.539900  -0.082482
    C   C23   0.982300  0.885700  0.522300  -0.058665
    C   C24   0.067100  0.947400  0.676200  -0.326205
    C   C25   0.558100  0.643600  0.453300  0.247736
    C   C26   0.975300  0.923500  0.654300  0.099993
    C   C27   0.537900  0.508100  0.400500  0.237326
    C   C28   0.463100  0.655400  0.432500  -0.308663
    C   C29   0.219300  0.336500  0.276700  -0.047281
    C   C30   0.238600  0.414100  0.155400  0.076822
    C   C31   0.211100  0.334200  0.366700  0.785917
    C   C32   0.249400  0.496900  0.112500  0.557271
    C   C33   0.230300  0.164400  0.836900  0.156382
    C   C34   0.226600  0.414000  0.237300  -0.157766
    C   C35   0.237700  0.081200  0.885300  0.514239
    C   C36   0.232300  0.163600  0.752600  -0.256775
    C   C37   0.201800  0.102000  0.135100  0.370240
    C   C38   0.230100  0.239600  0.709000  0.094545
    C   C39   0.221100  0.319800  0.833800  0.434105
    C   C40   0.226400  0.317400  0.749100  -0.377291
    C   C41   0.240700  0.336000  0.115000  -0.425311
    C   C42   0.280200  0.465400  0.858900  0.231261
    C   C43   0.220100  0.259700  0.234100  -0.379153
    C   C44   0.231900  0.258200  0.153100  0.495397
    C   C45   0.056000  0.017300  0.123600  -0.272389
    C   C46   0.236200  0.239800  0.618800  0.614599
    C   C47   0.097000  0.093300  0.108000  0.156763
    C   C48   0.224600  0.241000  0.877100  -0.446320
    C   C49   0.381300  0.440500  0.881400  0.234422
    C   C50   0.426600  0.407500  0.960100  -0.082542
    C   C51   0.517700  0.385700  0.977700  -0.058547
    C   C52   0.432900  0.447400  0.823800  -0.326071
    C   C53   0.941900  0.143600  0.046700  0.247705
    C   C54   0.524700  0.423500  0.845700  0.099726
    C   C55   0.962100  0.008100  0.099500  0.236836
    C   C56   0.036900  0.155400  0.067500  -0.308572
    C   C57   0.719300  0.163500  0.776700  -0.047257
    C   C58   0.738600  0.085900  0.655400  0.076863
    C   C59   0.711100  0.165800  0.866700  0.785985
    C   C60   0.749400  0.003100  0.612500  0.557288
    C   C61   0.730300  0.335600  0.336900  0.156331
    C   C62   0.726600  0.086000  0.737300  -0.157812
    C   C63   0.737700  0.418800  0.385300  0.514254
    C   C64   0.732300  0.336400  0.252600  -0.256755
    C   C65   0.701800  0.398000  0.635100  0.370403
    C   C66   0.730100  0.260400  0.209000  0.094549
    C   C67   0.721100  0.180200  0.333800  0.434046
    C   C68   0.726400  0.182600  0.249100  -0.377234
    C   C69   0.740700  0.164000  0.615000  -0.425331
    C   C70   0.780200  0.034600  0.358900  0.231087
    C   C71   0.720100  0.240300  0.734100  -0.379213
    C   C72   0.731900  0.241800  0.653100  0.495463
    C   C73   0.556000  0.482700  0.623600  -0.272486
    C   C74   0.736200  0.260200  0.118800  0.614556
    C   C75   0.597000  0.406700  0.608000  0.156743
    C   C76   0.724600  0.259000  0.377100  -0.446281
    C   C77   0.881300  0.059500  0.381400  0.234455
    C   C78   0.926600  0.092500  0.460100  -0.082531
    C   C79   0.017700  0.114300  0.477700  -0.058505
    C   C80   0.932900  0.052600  0.323800  -0.326191
    C   C81   0.441900  0.356400  0.546700  0.247696
    C   C82   0.024700  0.076500  0.345700  0.099748
    C   C83   0.462100  0.491900  0.599500  0.237261
    C   C84   0.536900  0.344600  0.567500  -0.308618
    C   C85   0.780700  0.663500  0.723300  -0.047240
    C   C86   0.761400  0.585900  0.844600  0.076820
    C   C87   0.788900  0.665800  0.633300  0.785891
    C   C88   0.750600  0.503100  0.887500  0.557206
    C   C89   0.769700  0.835600  0.163100  0.156288
    C   C90   0.773400  0.586000  0.762700  -0.157775
    C   C91   0.762300  0.918800  0.114700  0.514247
    C   C92   0.767700  0.836400  0.247400  -0.256714
    C   C93   0.798200  0.898000  0.864900  0.368246
    C   C94   0.769900  0.760400  0.291000  0.094533
    C   C95   0.778900  0.680200  0.166200  0.434051
    C   C96   0.773600  0.682600  0.250900  -0.377265
    C   C97   0.759300  0.664000  0.885000  -0.425133
    C   C98   0.719800  0.534600  0.141100  0.231301
    C   C99   0.779900  0.740300  0.765900  -0.379097
    C   C100  0.768100  0.741800  0.846900  0.495047
    C   C101  0.944000  0.982700  0.876400  -0.272362
    C   C102  0.763800  0.760200  0.381200  0.614588
    C   C103  0.903000  0.906700  0.892000  0.157602
    C   C104  0.775400  0.759000  0.122900  -0.446234
    C   C105  0.618700  0.559500  0.118600  0.234406
    C   C106  0.573400  0.592500  0.039900  -0.082512
    C   C107  0.482300  0.614300  0.022300  -0.058566
    C   C108  0.567100  0.552600  0.176200  -0.326069
    C   C109  0.058100  0.856400  0.953300  0.247704
    C   C110  0.475300  0.576500  0.154300  0.099713
    C   C111  0.037900  0.991900  0.900500  0.237394
    C   C112  0.963100  0.844600  0.932500  -0.308622
    N   N1    0.928800  0.891600  0.576400  -0.175967
    N   N2    0.282300  0.897000  0.625500  -0.733219
    N   N3    0.262800  0.682000  0.388100  -0.756647
    N   N4    0.597600  0.570400  0.438000  -0.337129
    N   N5    0.571200  0.391600  0.923600  -0.176011
    N   N6    0.217700  0.397000  0.874500  -0.733132
    N   N7    0.237200  0.182000  0.111900  -0.756622
    N   N8    0.902400  0.070400  0.062000  -0.337057
    N   N9    0.071200  0.108400  0.423600  -0.176055
    N   N10   0.717700  0.103000  0.374500  -0.733019
    N   N11   0.737200  0.318000  0.611900  -0.756725
    N   N12   0.402400  0.429600  0.562000  -0.337070
    N   N13   0.428800  0.608400  0.076400  -0.175997
    N   N14   0.782300  0.603000  0.125500  -0.733117
    N   N15   0.762800  0.818000  0.888100  -0.755801
    N   N16   0.097600  0.929600  0.938000  -0.337221
    O   O1    0.237100  0.065100  0.345700  -0.652176
    O   O2    0.262100  0.511000  0.653600  -0.638845
    O   O3    0.255900  0.582500  0.536700  -0.606419
    O   O4    0.274700  0.669500  0.918800  -0.582672
    O   O5    0.254600  0.996400  0.464900  -0.623249
    O   O6    0.277600  0.904800  0.093200  -0.701022
    O   O7    0.306800  0.764600  0.105200  -0.692818
    O   O8    0.245000  0.807800  0.910200  -0.611892
    O   O9    0.262900  0.565100  0.154300  -0.652179
    O   O10   0.237900  0.011000  0.846400  -0.638869
    O   O11   0.244100  0.082500  0.963300  -0.606437
    O   O12   0.225300  0.169500  0.581200  -0.582693
    O   O13   0.245400  0.496400  0.035100  -0.623260
    O   O14   0.222400  0.404800  0.406800  -0.700976
    O   O15   0.193200  0.264600  0.394800  -0.692812
    O   O16   0.255000  0.307800  0.589800  -0.611876
    O   O17   0.762900  0.934900  0.654300  -0.652195
    O   O18   0.737900  0.489000  0.346400  -0.638861
    O   O19   0.744100  0.417500  0.463300  -0.606455
    O   O20   0.725300  0.330500  0.081200  -0.582698
    O   O21   0.745400  0.003600  0.535100  -0.623267
    O   O22   0.722400  0.095200  0.906800  -0.701035
    O   O23   0.693200  0.235400  0.894800  -0.692848
    O   O24   0.755000  0.192200  0.089800  -0.611807
    O   O25   0.737100  0.434900  0.845700  -0.652140
    O   O26   0.762100  0.989000  0.153600  -0.638830
    O   O27   0.755900  0.917500  0.036700  -0.606404
    O   O28   0.774700  0.830500  0.418800  -0.582680
    O   O29   0.754600  0.503600  0.964900  -0.623239
    O   O30   0.777600  0.595200  0.593200  -0.700988
    O   O31   0.806800  0.735400  0.605200  -0.692812
    O   O32   0.745000  0.692200  0.410200  -0.611860
