# Generated by REPEAT Assigner based on pymatgen
data_DB12-QIYDIN_clean
_audit_creation_date              2022-05-24
_audit_creation_method            REPEAT_Assigner
_cell_length_a                    34.346000
_cell_length_b                    34.346000
_cell_length_c                    34.346000
_cell_angle_alpha                 90.000000
_cell_angle_beta                  90.000000
_cell_angle_gamma                 90.000000
_cell_volume                      40516.180454
_symmetry_space_group_name_H-M    P1
_symmetry_Int_Tables_number       1
loop_
    _symmetry_equiv_pos_site_id
    _symmetry_equiv_pos_as_xyz
    1  x,y,z
loop_
    _atom_site_type_symbol
    _atom_site_label
    _atom_site_fract_x
    _atom_site_fract_y
    _atom_site_fract_z
    _atom_type_partial_charge
    Cu  Cu1   0.500000  0.833630  0.000000  0.899459
    Cu  Cu2   0.000000  0.500000  0.833630  0.899459
    Cu  Cu3   0.000000  0.500000  0.166370  0.899455
    Cu  Cu4   0.000000  0.500000  0.242830  0.981365
    Cu  Cu5   0.757170  0.000000  0.500000  0.981361
    Cu  Cu6   0.242830  0.000000  0.500000  0.981365
    Cu  Cu7   0.000000  0.500000  0.757170  0.981361
    Cu  Cu8   0.833630  0.000000  0.500000  0.899459
    Cu  Cu9   0.500000  0.242830  0.000000  0.981365
    Cu  Cu10  0.500000  0.757170  0.000000  0.981361
    Cu  Cu11  0.500000  0.166370  0.000000  0.899455
    Cu  Cu12  0.166370  0.000000  0.500000  0.899455
    H   H1    0.265600  0.117600  0.649300  0.152126
    H   H2    0.226300  0.261600  0.831700  0.156723
    H   H3    0.350700  0.265600  0.882400  0.152124
    H   H4    0.590600  0.147300  0.086300  0.137771
    H   H5    0.261600  0.168300  0.773700  0.156722
    H   H6    0.264300  0.923400  0.595200  0.142193
    H   H7    0.127300  0.644700  0.851400  0.152819
    H   H8    0.831700  0.226300  0.738400  0.156719
    H   H9    0.404800  0.735700  0.076600  0.142195
    H   H10   0.913700  0.590600  0.147300  0.137772
    H   H11   0.076600  0.404800  0.735700  0.142195
    H   H12   0.852700  0.086300  0.409400  0.137772
    H   H13   0.261600  0.168300  0.226300  0.156722
    H   H14   0.852700  0.913700  0.590600  0.137771
    H   H15   0.409400  0.147300  0.086300  0.137772
    H   H16   0.595200  0.264300  0.923400  0.142193
    H   H17   0.117600  0.649300  0.265600  0.152126
    H   H18   0.872700  0.644700  0.851400  0.152818
    H   H19   0.773700  0.738400  0.831700  0.156721
    H   H20   0.644700  0.148600  0.872700  0.152816
    H   H21   0.595200  0.264300  0.076600  0.142193
    H   H22   0.076600  0.595200  0.735700  0.142193
    H   H23   0.831700  0.773700  0.738400  0.156721
    H   H24   0.076600  0.404800  0.264300  0.142195
    H   H25   0.738400  0.168300  0.773700  0.156718
    H   H26   0.872700  0.355300  0.851400  0.152817
    H   H27   0.355300  0.851400  0.872700  0.152817
    H   H28   0.168300  0.773700  0.261600  0.156722
    H   H29   0.147300  0.913700  0.590600  0.137772
    H   H30   0.852700  0.086300  0.590600  0.137770
    H   H31   0.644700  0.851400  0.127300  0.152819
    H   H32   0.147300  0.086300  0.409400  0.137772
    H   H33   0.738400  0.831700  0.226300  0.156719
    H   H34   0.261600  0.831700  0.773700  0.156722
    H   H35   0.409400  0.147300  0.913700  0.137773
    H   H36   0.168300  0.226300  0.261600  0.156722
    H   H37   0.923400  0.595200  0.735700  0.142194
    H   H38   0.265600  0.882400  0.649300  0.152125
    H   H39   0.226300  0.738400  0.168300  0.156719
    H   H40   0.404800  0.264300  0.076600  0.142195
    H   H41   0.355300  0.148600  0.872700  0.152815
    H   H42   0.851400  0.127300  0.355300  0.152818
    H   H43   0.350700  0.265600  0.117600  0.152124
    H   H44   0.644700  0.851400  0.872700  0.152818
    H   H45   0.851400  0.872700  0.644700  0.152818
    H   H46   0.076600  0.595200  0.264300  0.142193
    H   H47   0.882400  0.350700  0.265600  0.152124
    H   H48   0.923400  0.404800  0.735700  0.142196
    H   H49   0.649300  0.734400  0.882400  0.152123
    H   H50   0.735700  0.076600  0.595200  0.142193
    H   H51   0.734400  0.882400  0.649300  0.152123
    H   H52   0.735700  0.923400  0.404800  0.142196
    H   H53   0.923400  0.404800  0.264300  0.142195
    H   H54   0.852700  0.913700  0.409400  0.137773
    H   H55   0.590600  0.147300  0.913700  0.137772
    H   H56   0.590600  0.852700  0.913700  0.137771
    H   H57   0.127300  0.355300  0.851400  0.152818
    H   H58   0.147300  0.913700  0.409400  0.137773
    H   H59   0.086300  0.409400  0.852700  0.137772
    H   H60   0.086300  0.409400  0.147300  0.137772
    H   H61   0.264300  0.923400  0.404800  0.142195
    H   H62   0.404800  0.264300  0.923400  0.142195
    H   H63   0.595200  0.735700  0.076600  0.142193
    H   H64   0.117600  0.350700  0.265600  0.152124
    H   H65   0.264300  0.076600  0.404800  0.142195
    H   H66   0.649300  0.265600  0.882400  0.152125
    H   H67   0.773700  0.738400  0.168300  0.156718
    H   H68   0.148600  0.872700  0.644700  0.152816
    H   H69   0.734400  0.117600  0.649300  0.152124
    H   H70   0.265600  0.117600  0.350700  0.152124
    H   H71   0.595200  0.735700  0.923400  0.142194
    H   H72   0.872700  0.355300  0.148600  0.152815
    H   H73   0.644700  0.148600  0.127300  0.152817
    H   H74   0.882400  0.649300  0.265600  0.152125
    H   H75   0.649300  0.265600  0.117600  0.152126
    H   H76   0.831700  0.773700  0.261600  0.156722
    H   H77   0.882400  0.649300  0.734400  0.152123
    H   H78   0.148600  0.127300  0.644700  0.152817
    H   H79   0.350700  0.734400  0.882400  0.152122
    H   H80   0.773700  0.261600  0.831700  0.156722
    H   H81   0.882400  0.350700  0.734400  0.152122
    H   H82   0.409400  0.852700  0.913700  0.137773
    H   H83   0.086300  0.590600  0.852700  0.137770
    H   H84   0.409400  0.852700  0.086300  0.137772
    H   H85   0.923400  0.595200  0.264300  0.142193
    H   H86   0.264300  0.076600  0.595200  0.142193
    H   H87   0.168300  0.226300  0.738400  0.156719
    H   H88   0.913700  0.409400  0.852700  0.137773
    H   H89   0.913700  0.409400  0.147300  0.137773
    H   H90   0.261600  0.831700  0.226300  0.156723
    H   H91   0.355300  0.148600  0.127300  0.152816
    H   H92   0.117600  0.350700  0.734400  0.152123
    H   H93   0.590600  0.852700  0.086300  0.137770
    H   H94   0.127300  0.644700  0.148600  0.152817
    H   H95   0.735700  0.923400  0.595200  0.142194
    H   H96   0.738400  0.168300  0.226300  0.156719
    H   H97   0.735700  0.076600  0.404800  0.142195
    H   H98   0.872700  0.644700  0.148600  0.152816
    H   H99   0.147300  0.086300  0.590600  0.137771
    H   H100  0.851400  0.872700  0.355300  0.152817
    H   H101  0.851400  0.127300  0.644700  0.152819
    H   H102  0.226300  0.738400  0.831700  0.156719
    H   H103  0.086300  0.590600  0.147300  0.137771
    H   H104  0.355300  0.851400  0.127300  0.152818
    H   H105  0.127300  0.355300  0.148600  0.152816
    H   H106  0.265600  0.882400  0.350700  0.152124
    H   H107  0.148600  0.127300  0.355300  0.152816
    H   H108  0.117600  0.649300  0.734400  0.152124
    H   H109  0.738400  0.831700  0.773700  0.156721
    H   H110  0.734400  0.882400  0.350700  0.152122
    H   H111  0.773700  0.261600  0.168300  0.156722
    H   H112  0.404800  0.735700  0.923400  0.142196
    H   H113  0.734400  0.117600  0.350700  0.152123
    H   H114  0.649300  0.734400  0.117600  0.152124
    H   H115  0.226300  0.261600  0.168300  0.156722
    H   H116  0.831700  0.226300  0.261600  0.156723
    H   H117  0.148600  0.872700  0.355300  0.152815
    H   H118  0.350700  0.734400  0.117600  0.152123
    H   H119  0.913700  0.590600  0.852700  0.137771
    H   H120  0.168300  0.773700  0.738400  0.156718
    C   C1    0.776000  0.754640  0.190200  -0.272938
    C   C2    0.448010  0.203870  0.050970  0.614617
    C   C3    0.224000  0.245360  0.190200  -0.272948
    C   C4    0.747470  0.214660  0.805430  0.239357
    C   C5    0.652180  0.207190  0.126380  0.211270
    C   C6    0.171910  0.117050  0.365310  -0.181989
    C   C7    0.172380  0.716030  0.212180  -0.095488
    C   C8    0.828840  0.092610  0.397570  -0.122409
    C   C9    0.848150  0.310500  0.206440  -0.169575
    C   C10   0.888730  0.637430  0.241720  -0.197371
    C   C11   0.283970  0.787820  0.827620  -0.095481
    C   C12   0.077500  0.412320  0.794320  -0.013378
    C   C13   0.785340  0.805430  0.252530  0.239357
    C   C14   0.347820  0.792810  0.126380  0.211271
    C   C15   0.171160  0.092610  0.397570  -0.122412
    C   C16   0.796130  0.050970  0.551990  0.614614
    C   C17   0.793560  0.848150  0.310500  -0.169578
    C   C18   0.111270  0.637430  0.758280  -0.197370
    C   C19   0.194570  0.747470  0.214660  0.239358
    C   C20   0.203870  0.949030  0.448010  0.614617
    C   C21   0.747470  0.785340  0.805430  0.239359
    C   C22   0.805430  0.747470  0.214660  0.239357
    C   C23   0.203870  0.050970  0.448010  0.614617
    C   C24   0.212180  0.827620  0.716030  -0.095486
    C   C25   0.828090  0.117050  0.365310  -0.181994
    C   C26   0.397570  0.171160  0.092610  -0.122412
    C   C27   0.310500  0.206440  0.848150  -0.169575
    C   C28   0.394830  0.240960  0.086840  -0.100333
    C   C29   0.111270  0.637430  0.241720  -0.197374
    C   C30   0.873620  0.652180  0.792810  0.211271
    C   C31   0.205680  0.077500  0.587680  -0.013380
    C   C32   0.689500  0.206440  0.848150  -0.169573
    C   C33   0.949030  0.551990  0.203870  0.614615
    C   C34   0.913160  0.605170  0.759040  -0.100334
    C   C35   0.206440  0.151850  0.689500  -0.169571
    C   C36   0.637430  0.758280  0.888730  -0.197368
    C   C37   0.754640  0.809800  0.776000  -0.272945
    C   C38   0.922500  0.412320  0.794320  -0.013377
    C   C39   0.241720  0.111270  0.637430  -0.197374
    C   C40   0.394830  0.759040  0.086840  -0.100337
    C   C41   0.882950  0.365310  0.828090  -0.181991
    C   C42   0.252530  0.785340  0.805430  0.239357
    C   C43   0.117050  0.365310  0.828090  -0.181994
    C   C44   0.587680  0.794320  0.077500  -0.013380
    C   C45   0.907390  0.602430  0.828840  -0.122408
    C   C46   0.754640  0.809800  0.224000  -0.272942
    C   C47   0.283970  0.212180  0.827620  -0.095484
    C   C48   0.888730  0.362570  0.758280  -0.197365
    C   C49   0.194570  0.252530  0.785340  0.239359
    C   C50   0.126380  0.347820  0.792810  0.211271
    C   C51   0.397570  0.171160  0.907390  -0.122415
    C   C52   0.634690  0.828090  0.882950  -0.181994
    C   C53   0.412320  0.794320  0.922500  -0.013377
    C   C54   0.077500  0.412320  0.205680  -0.013378
    C   C55   0.605170  0.759040  0.086840  -0.100333
    C   C56   0.605170  0.240960  0.086840  -0.100330
    C   C57   0.241720  0.888730  0.637430  -0.197371
    C   C58   0.602430  0.171160  0.907390  -0.122411
    C   C59   0.362570  0.758280  0.888730  -0.197365
    C   C60   0.776000  0.754640  0.809800  -0.272945
    C   C61   0.652180  0.792810  0.126380  0.211272
    C   C62   0.907390  0.397570  0.828840  -0.122412
    C   C63   0.117050  0.365310  0.171910  -0.181989
    C   C64   0.848150  0.689500  0.206440  -0.169573
    C   C65   0.283970  0.787820  0.172380  -0.095484
    C   C66   0.634690  0.171910  0.882950  -0.181988
    C   C67   0.605170  0.240960  0.913160  -0.100332
    C   C68   0.151850  0.310500  0.793560  -0.169576
    C   C69   0.716030  0.787820  0.827620  -0.095484
    C   C70   0.205680  0.922500  0.587680  -0.013380
    C   C71   0.448010  0.796130  0.949030  0.614616
    C   C72   0.050970  0.448010  0.203870  0.614617
    C   C73   0.759040  0.086840  0.605170  -0.100333
    C   C74   0.637430  0.241720  0.888730  -0.197371
    C   C75   0.190200  0.776000  0.245360  -0.272945
    C   C76   0.190200  0.224000  0.245360  -0.272948
    C   C77   0.747470  0.785340  0.194570  0.239355
    C   C78   0.602430  0.828840  0.907390  -0.122408
    C   C79   0.412320  0.205680  0.922500  -0.013378
    C   C80   0.605170  0.759040  0.913160  -0.100334
    C   C81   0.362570  0.241720  0.888730  -0.197369
    C   C82   0.310500  0.793560  0.151850  -0.169576
    C   C83   0.587680  0.205680  0.077500  -0.013380
    C   C84   0.214660  0.194570  0.252530  0.239362
    C   C85   0.207190  0.126380  0.347820  0.211270
    C   C86   0.805430  0.252530  0.214660  0.239361
    C   C87   0.776000  0.245360  0.809800  -0.272947
    C   C88   0.949030  0.448010  0.796130  0.614616
    C   C89   0.092610  0.397570  0.828840  -0.122409
    C   C90   0.793560  0.848150  0.689500  -0.169575
    C   C91   0.394830  0.759040  0.913160  -0.100339
    C   C92   0.206440  0.151850  0.310500  -0.169573
    C   C93   0.787820  0.172380  0.716030  -0.095485
    C   C94   0.050970  0.448010  0.796130  0.614616
    C   C95   0.602430  0.171160  0.092610  -0.122408
    C   C96   0.092610  0.602430  0.828840  -0.122405
    C   C97   0.759040  0.086840  0.394830  -0.100337
    C   C98   0.587680  0.794320  0.922500  -0.013379
    C   C99   0.873620  0.652180  0.207190  0.211269
    C   C100  0.448010  0.203870  0.949030  0.614617
    C   C101  0.551990  0.203870  0.050970  0.614615
    C   C102  0.205680  0.922500  0.412320  -0.013378
    C   C103  0.172380  0.283970  0.212180  -0.095487
    C   C104  0.805430  0.252530  0.785340  0.239357
    C   C105  0.203870  0.949030  0.551990  0.614615
    C   C106  0.796130  0.949030  0.551990  0.614614
    C   C107  0.873620  0.347820  0.207190  0.211269
    C   C108  0.171910  0.117050  0.634690  -0.181992
    C   C109  0.283970  0.212180  0.172380  -0.095487
    C   C110  0.412320  0.794320  0.077500  -0.013378
    C   C111  0.190200  0.224000  0.754640  -0.272940
    C   C112  0.758280  0.888730  0.362570  -0.197365
    C   C113  0.827620  0.283970  0.787820  -0.095481
    C   C114  0.828090  0.882950  0.365310  -0.181991
    C   C115  0.888730  0.637430  0.758280  -0.197368
    C   C116  0.205680  0.077500  0.412320  -0.013378
    C   C117  0.759040  0.913160  0.605170  -0.100334
    C   C118  0.310500  0.793560  0.848150  -0.169578
    C   C119  0.397570  0.828840  0.907390  -0.122412
    C   C120  0.241720  0.111270  0.362570  -0.197371
    C   C121  0.240960  0.086840  0.394830  -0.100333
    C   C122  0.347820  0.207190  0.873620  0.211269
    C   C123  0.050970  0.551990  0.796130  0.614614
    C   C124  0.362570  0.241720  0.111270  -0.197371
    C   C125  0.758280  0.111270  0.362570  -0.197367
    C   C126  0.117050  0.634690  0.828090  -0.181997
    C   C127  0.050970  0.551990  0.203870  0.614615
    C   C128  0.758280  0.888730  0.637430  -0.197368
    C   C129  0.716030  0.212180  0.172380  -0.095488
    C   C130  0.077500  0.587680  0.205680  -0.013380
    C   C131  0.637430  0.241720  0.111270  -0.197374
    C   C132  0.365310  0.171910  0.117050  -0.181989
    C   C133  0.194570  0.747470  0.785340  0.239355
    C   C134  0.240960  0.913160  0.605170  -0.100332
    C   C135  0.151850  0.689500  0.793560  -0.169574
    C   C136  0.224000  0.754640  0.190200  -0.272940
    C   C137  0.412320  0.205680  0.077500  -0.013378
    C   C138  0.448010  0.796130  0.050970  0.614616
    C   C139  0.252530  0.214660  0.194570  0.239362
    C   C140  0.086840  0.605170  0.240960  -0.100330
    C   C141  0.347820  0.792810  0.873620  0.211270
    C   C142  0.551990  0.796130  0.050970  0.614614
    C   C143  0.171160  0.907390  0.397570  -0.122415
    C   C144  0.809800  0.776000  0.245360  -0.272947
    C   C145  0.203870  0.050970  0.551990  0.614615
    C   C146  0.882950  0.365310  0.171910  -0.181986
    C   C147  0.207190  0.873620  0.347820  0.211269
    C   C148  0.828840  0.907390  0.397570  -0.122412
    C   C149  0.587680  0.205680  0.922500  -0.013380
    C   C150  0.214660  0.805430  0.747470  0.239357
    C   C151  0.171910  0.882950  0.365310  -0.181986
    C   C152  0.362570  0.758280  0.111270  -0.197367
    C   C153  0.634690  0.171910  0.117050  -0.181992
    C   C154  0.922500  0.587680  0.205680  -0.013380
    C   C155  0.151850  0.310500  0.206440  -0.169573
    C   C156  0.827620  0.716030  0.787820  -0.095484
    C   C157  0.245360  0.809800  0.224000  -0.272950
    C   C158  0.754640  0.190200  0.224000  -0.272940
    C   C159  0.776000  0.245360  0.190200  -0.272945
    C   C160  0.785340  0.805430  0.747470  0.239359
    C   C161  0.922500  0.412320  0.205680  -0.013378
    C   C162  0.888730  0.362570  0.241720  -0.197369
    C   C163  0.245360  0.190200  0.776000  -0.272945
    C   C164  0.809800  0.224000  0.754640  -0.272942
    C   C165  0.716030  0.787820  0.172380  -0.095485
    C   C166  0.907390  0.602430  0.171160  -0.122411
    C   C167  0.086840  0.394830  0.759040  -0.100337
    C   C168  0.827620  0.716030  0.212180  -0.095486
    C   C169  0.907390  0.397570  0.171160  -0.122415
    C   C170  0.882950  0.634690  0.828090  -0.181994
    C   C171  0.365310  0.828090  0.882950  -0.181991
    C   C172  0.212180  0.172380  0.283970  -0.095487
    C   C173  0.077500  0.587680  0.794320  -0.013380
    C   C174  0.241720  0.888730  0.362570  -0.197369
    C   C175  0.551990  0.203870  0.949030  0.614615
    C   C176  0.787820  0.172380  0.283970  -0.095484
    C   C177  0.809800  0.224000  0.245360  -0.272950
    C   C178  0.207190  0.873620  0.652180  0.211269
    C   C179  0.637430  0.758280  0.111270  -0.197370
    C   C180  0.828090  0.882950  0.634690  -0.181994
    C   C181  0.792810  0.126380  0.347820  0.211271
    C   C182  0.240960  0.913160  0.394830  -0.100335
    C   C183  0.212180  0.827620  0.283970  -0.095484
    C   C184  0.787820  0.827620  0.283970  -0.095481
    C   C185  0.754640  0.190200  0.776000  -0.272938
    C   C186  0.794320  0.922500  0.587680  -0.013379
    C   C187  0.873620  0.347820  0.792810  0.211270
    C   C188  0.794320  0.922500  0.412320  -0.013377
    C   C189  0.206440  0.848150  0.689500  -0.169573
    C   C190  0.086840  0.605170  0.759040  -0.100333
    C   C191  0.092610  0.397570  0.171160  -0.122412
    C   C192  0.214660  0.805430  0.252530  0.239361
    C   C193  0.394830  0.240960  0.913160  -0.100335
    C   C194  0.828090  0.117050  0.634690  -0.181997
    C   C195  0.922500  0.587680  0.794320  -0.013379
    C   C196  0.172380  0.716030  0.787820  -0.095485
    C   C197  0.207190  0.126380  0.652180  0.211270
    C   C198  0.092610  0.602430  0.171160  -0.122408
    C   C199  0.796130  0.050970  0.448010  0.614616
    C   C200  0.126380  0.652180  0.792810  0.211272
    C   C201  0.793560  0.151850  0.310500  -0.169576
    C   C202  0.245360  0.190200  0.224000  -0.272948
    C   C203  0.652180  0.792810  0.873620  0.211271
    C   C204  0.785340  0.194570  0.747470  0.239355
    C   C205  0.747470  0.214660  0.194570  0.239358
    C   C206  0.151850  0.689500  0.206440  -0.169571
    C   C207  0.949030  0.551990  0.796130  0.614614
    C   C208  0.224000  0.245360  0.809800  -0.272950
    C   C209  0.758280  0.111270  0.637430  -0.197370
    C   C210  0.848150  0.689500  0.793560  -0.169575
    C   C211  0.365310  0.171910  0.882950  -0.181986
    C   C212  0.794320  0.077500  0.412320  -0.013378
    C   C213  0.787820  0.827620  0.716030  -0.095484
    C   C214  0.224000  0.754640  0.809800  -0.272942
    C   C215  0.828840  0.092610  0.602430  -0.122405
    C   C216  0.793560  0.151850  0.689500  -0.169574
    C   C217  0.913160  0.605170  0.240960  -0.100332
    C   C218  0.913160  0.394830  0.759040  -0.100339
    C   C219  0.111270  0.362570  0.758280  -0.197367
    C   C220  0.794320  0.077500  0.587680  -0.013380
    C   C221  0.117050  0.634690  0.171910  -0.181992
    C   C222  0.365310  0.828090  0.117050  -0.181994
    C   C223  0.171160  0.907390  0.602430  -0.122411
    C   C224  0.111270  0.362570  0.241720  -0.197371
    C   C225  0.171160  0.092610  0.602430  -0.122408
    C   C226  0.634690  0.828090  0.117050  -0.181997
    C   C227  0.347820  0.207190  0.126380  0.211270
    C   C228  0.397570  0.828840  0.092610  -0.122409
    C   C229  0.809800  0.776000  0.754640  -0.272945
    C   C230  0.792810  0.873620  0.347820  0.211270
    C   C231  0.785340  0.194570  0.252530  0.239359
    C   C232  0.828840  0.907390  0.602430  -0.122408
    C   C233  0.212180  0.172380  0.716030  -0.095488
    C   C234  0.126380  0.347820  0.207190  0.211270
    C   C235  0.689500  0.206440  0.151850  -0.169571
    C   C236  0.190200  0.776000  0.754640  -0.272938
    C   C237  0.827620  0.283970  0.212180  -0.095484
    C   C238  0.689500  0.793560  0.848150  -0.169575
    C   C239  0.716030  0.212180  0.827620  -0.095486
    C   C240  0.171910  0.882950  0.634690  -0.181988
    C   C241  0.310500  0.206440  0.151850  -0.169573
    C   C242  0.949030  0.448010  0.203870  0.614617
    C   C243  0.689500  0.793560  0.151850  -0.169574
    C   C244  0.792810  0.126380  0.652180  0.211272
    C   C245  0.551990  0.796130  0.949030  0.614614
    C   C246  0.848150  0.310500  0.793560  -0.169578
    C   C247  0.792810  0.873620  0.652180  0.211271
    C   C248  0.252530  0.785340  0.194570  0.239359
    C   C249  0.805430  0.747470  0.785340  0.239359
    C   C250  0.172380  0.283970  0.787820  -0.095484
    C   C251  0.245360  0.809800  0.776000  -0.272947
    C   C252  0.652180  0.207190  0.873620  0.211269
    C   C253  0.086840  0.394830  0.240960  -0.100333
    C   C254  0.252530  0.214660  0.805430  0.239361
    C   C255  0.126380  0.652180  0.207190  0.211270
    C   C256  0.796130  0.949030  0.448010  0.614616
    C   C257  0.240960  0.086840  0.605170  -0.100330
    C   C258  0.759040  0.913160  0.394830  -0.100339
    C   C259  0.206440  0.848150  0.310500  -0.169575
    C   C260  0.882950  0.634690  0.171910  -0.181988
    C   C261  0.194570  0.252530  0.214660  0.239362
    C   C262  0.214660  0.194570  0.747470  0.239358
    C   C263  0.602430  0.828840  0.092610  -0.122405
    C   C264  0.913160  0.394830  0.240960  -0.100335
    O   O1    0.170490  0.039980  0.459100  -0.543359
    O   O2    0.540900  0.170490  0.039980  -0.543358
    O   O3    0.540500  0.761390  0.039640  -0.580231
    O   O4    0.459500  0.238610  0.960360  -0.580232
    O   O5    0.459500  0.761390  0.039640  -0.580232
    O   O6    0.238610  0.960360  0.459500  -0.580232
    O   O7    0.170490  0.960020  0.540900  -0.543356
    O   O8    0.039640  0.540500  0.238610  -0.580233
    O   O9    0.540500  0.238610  0.960360  -0.580231
    O   O10   0.170490  0.039980  0.540900  -0.543358
    O   O11   0.459100  0.170490  0.039980  -0.543359
    O   O12   0.238610  0.960360  0.540500  -0.580231
    O   O13   0.829510  0.039980  0.459100  -0.543360
    O   O14   0.459500  0.238610  0.039640  -0.580234
    O   O15   0.540900  0.829510  0.039980  -0.543359
    O   O16   0.039640  0.540500  0.761390  -0.580231
    O   O17   0.960020  0.540900  0.170490  -0.543356
    O   O18   0.459100  0.829510  0.960020  -0.543358
    O   O19   0.960360  0.540500  0.761390  -0.580229
    O   O20   0.039980  0.540900  0.829510  -0.543359
    O   O21   0.540500  0.761390  0.960360  -0.580229
    O   O22   0.960360  0.459500  0.761390  -0.580230
    O   O23   0.829510  0.039980  0.540900  -0.543359
    O   O24   0.761390  0.039640  0.540500  -0.580231
    O   O25   0.540500  0.238610  0.039640  -0.580233
    O   O26   0.540900  0.829510  0.960020  -0.543357
    O   O27   0.829510  0.960020  0.540900  -0.543357
    O   O28   0.170490  0.960020  0.459100  -0.543357
    O   O29   0.459100  0.170490  0.960020  -0.543357
    O   O30   0.761390  0.960360  0.459500  -0.580230
    O   O31   0.039980  0.540900  0.170490  -0.543358
    O   O32   0.761390  0.960360  0.540500  -0.580229
    O   O33   0.540900  0.170490  0.960020  -0.543356
    O   O34   0.960020  0.459100  0.170490  -0.543357
    O   O35   0.960020  0.459100  0.829510  -0.543358
    O   O36   0.039980  0.459100  0.829510  -0.543360
    O   O37   0.039980  0.459100  0.170490  -0.543359
    O   O38   0.960020  0.540900  0.829510  -0.543357
    O   O39   0.238610  0.039640  0.459500  -0.580234
    O   O40   0.238610  0.039640  0.540500  -0.580233
    O   O41   0.960360  0.540500  0.238610  -0.580231
    O   O42   0.039640  0.459500  0.238610  -0.580234
    O   O43   0.459500  0.761390  0.960360  -0.580230
    O   O44   0.459100  0.829510  0.039980  -0.543360
    O   O45   0.829510  0.960020  0.459100  -0.543358
    O   O46   0.039640  0.459500  0.761390  -0.580232
    O   O47   0.960360  0.459500  0.238610  -0.580232
    O   O48   0.761390  0.039640  0.459500  -0.580232
