# Generated by REPEAT Assigner based on pymatgen
data_DB12-COKQAW_clean
_audit_creation_date              2022-05-24
_audit_creation_method            REPEAT_Assigner
_cell_length_a                    25.897800
_cell_length_b                    25.897800
_cell_length_c                    6.278500
_cell_angle_alpha                 90.000000
_cell_angle_beta                  90.000000
_cell_angle_gamma                 120.000000
_cell_volume                      3646.802766
_symmetry_space_group_name_H-M    P1
_symmetry_Int_Tables_number       1
loop_
    _symmetry_equiv_pos_site_id
    _symmetry_equiv_pos_as_xyz
    1  x,y,z
loop_
    _atom_site_type_symbol
    _atom_site_label
    _atom_site_fract_x
    _atom_site_fract_y
    _atom_site_fract_z
    _atom_type_partial_charge
    Cu  Cu1   0.387400  0.349160  0.175100  0.837523
    O   O1    0.354400  0.300400  0.426500  -0.589715
    O   O2    0.289900  0.225500  0.633300  -0.522817
    O   O3    0.362400  0.278100  0.011900  -0.474461
    C   C1    0.328400  0.247800  0.485000  0.729933
    C   C2    0.328900  0.208200  0.304100  -0.141783
    C   C3    0.347900  0.222500  0.090700  0.341461
    C   C4    0.354600  0.183800  0.975900  -0.178481
    Cu  Cu2   0.054070  0.682490  0.508430  0.837518
    O   O4    0.021070  0.633730  0.759830  -0.589277
    O   O5    0.956570  0.558830  0.966630  -0.522985
    O   O6    0.029070  0.611430  0.345230  -0.474287
    C   C5    0.995070  0.581130  0.818330  0.729926
    C   C6    0.995570  0.541530  0.637430  -0.141451
    C   C7    0.014570  0.555830  0.424030  0.340103
    C   C8    0.021270  0.517130  0.309230  -0.180842
    Cu  Cu3   0.720730  0.015830  0.841770  0.837534
    O   O7    0.687730  0.967070  0.093170  -0.590233
    O   O8    0.623230  0.892170  0.299970  -0.524176
    O   O9    0.695730  0.944770  0.678570  -0.476257
    C   C9    0.661730  0.914470  0.151670  0.735098
    C   C10   0.662230  0.874870  0.970770  -0.150634
    C   C11   0.681230  0.889170  0.757370  0.348288
    C   C12   0.687930  0.850470  0.642570  -0.184116
    Cu  Cu4   0.650840  0.038240  0.175100  0.838255
    O   O10   0.699600  0.054000  0.426500  -0.591532
    O   O11   0.774500  0.064400  0.633300  -0.521573
    O   O12   0.721900  0.084300  0.011900  -0.474225
    C   C13   0.752200  0.080600  0.485000  0.730644
    C   C14   0.791800  0.120700  0.304100  -0.143333
    C   C15   0.777500  0.125400  0.090700  0.343518
    C   C16   0.816200  0.170800  0.975900  -0.179867
    Cu  Cu5   0.317510  0.371570  0.508430  0.838365
    O   O13   0.366270  0.387330  0.759830  -0.590471
    O   O14   0.441170  0.397730  0.966630  -0.521402
    O   O15   0.388570  0.417630  0.345230  -0.473740
    C   C17   0.418870  0.413930  0.818330  0.729225
    C   C18   0.458470  0.454030  0.637430  -0.141952
    C   C19   0.444170  0.458730  0.424030  0.340700
    C   C20   0.482870  0.504130  0.309230  -0.180730
    Cu  Cu6   0.984170  0.704910  0.841770  0.837880
    O   O16   0.032930  0.720670  0.093170  -0.591359
    O   O17   0.107830  0.731070  0.299970  -0.522579
    O   O18   0.055230  0.750970  0.678570  -0.475705
    C   C21   0.085530  0.747270  0.151670  0.734602
    C   C22   0.125130  0.787370  0.970770  -0.150258
    C   C23   0.110830  0.792070  0.757370  0.348959
    C   C24   0.149530  0.837470  0.642570  -0.183953
    Cu  Cu7   0.961760  0.612600  0.175100  0.841247
    O   O19   0.946000  0.645600  0.426500  -0.594395
    O   O20   0.935600  0.710100  0.633300  -0.522743
    O   O21   0.915700  0.637600  0.011900  -0.475052
    C   C25   0.919400  0.671600  0.485000  0.736145
    C   C26   0.879300  0.671100  0.304100  -0.144808
    C   C27   0.874600  0.652100  0.090700  0.344637
    C   C28   0.829200  0.645400  0.975900  -0.180721
    Cu  Cu8   0.628430  0.945930  0.508430  0.841427
    O   O22   0.612670  0.978930  0.759830  -0.593274
    O   O23   0.602270  0.043430  0.966630  -0.522757
    O   O24   0.582370  0.970930  0.345230  -0.473838
    C   C29   0.586070  0.004930  0.818330  0.734410
    C   C30   0.545970  0.004430  0.637430  -0.142914
    C   C31   0.541270  0.985430  0.424030  0.341162
    C   C32   0.495870  0.978730  0.309230  -0.182443
    Cu  Cu9   0.295090  0.279270  0.841770  0.841180
    O   O25   0.279330  0.312270  0.093170  -0.594709
    O   O26   0.268930  0.376770  0.299970  -0.524101
    O   O27   0.249030  0.304270  0.678570  -0.476446
    C   C33   0.252730  0.338270  0.151670  0.740565
    C   C34   0.212630  0.337770  0.970770  -0.152667
    C   C35   0.207930  0.318770  0.757370  0.350649
    C   C36   0.162530  0.312070  0.642570  -0.185707
    Cu  Cu10  0.612600  0.650840  0.824900  0.837529
    O   O28   0.645600  0.699600  0.573500  -0.589638
    O   O29   0.710100  0.774500  0.366700  -0.522799
    O   O30   0.637600  0.721900  0.988100  -0.474412
    C   C37   0.671600  0.752200  0.515000  0.729874
    C   C38   0.671100  0.791800  0.695900  -0.141744
    C   C39   0.652100  0.777500  0.909300  0.341387
    C   C40   0.645400  0.816200  0.024100  -0.178476
    Cu  Cu11  0.279270  0.984170  0.158230  0.837598
    O   O31   0.312270  0.032930  0.906830  -0.590237
    O   O32   0.376770  0.107830  0.700030  -0.524168
    O   O33   0.304270  0.055230  0.321430  -0.476295
    C   C41   0.338270  0.085530  0.848330  0.735133
    C   C42   0.337770  0.125130  0.029230  -0.150826
    C   C43   0.318770  0.110830  0.242630  0.348365
    C   C44   0.312070  0.149530  0.357430  -0.184057
    Cu  Cu12  0.945930  0.317510  0.491570  0.837529
    O   O34   0.978930  0.366270  0.240170  -0.589274
    O   O35   0.043430  0.441170  0.033370  -0.522974
    O   O36   0.970930  0.388570  0.654770  -0.474279
    C   C45   0.004930  0.418870  0.181670  0.729951
    C   C46   0.004430  0.458470  0.362570  -0.141529
    C   C47   0.985430  0.444170  0.575970  0.340177
    C   C48   0.978730  0.482870  0.690770  -0.181014
    Cu  Cu13  0.349160  0.961760  0.824900  0.838355
    O   O37   0.300400  0.946000  0.573500  -0.591755
    O   O38   0.225500  0.935600  0.366700  -0.521665
    O   O39   0.278100  0.915700  0.988100  -0.474220
    C   C49   0.247800  0.919400  0.515000  0.730945
    C   C50   0.208200  0.879300  0.695900  -0.143441
    C   C51   0.222500  0.874600  0.909300  0.343586
    C   C52   0.183800  0.829200  0.024100  -0.179753
    Cu  Cu14  0.015830  0.295090  0.158230  0.837760
    O   O40   0.967070  0.279330  0.906830  -0.591324
    O   O41   0.892170  0.268930  0.700030  -0.522590
    O   O42   0.944770  0.249030  0.321430  -0.475753
    C   C53   0.914470  0.252730  0.848330  0.734520
    C   C54   0.874870  0.212630  0.029230  -0.150223
    C   C55   0.889170  0.207930  0.242630  0.348944
    C   C56   0.850470  0.162530  0.357430  -0.184013
    Cu  Cu15  0.682490  0.628430  0.491570  0.838329
    O   O43   0.633730  0.612670  0.240170  -0.590456
    O   O44   0.558830  0.602270  0.033370  -0.521474
    O   O45   0.611430  0.582370  0.654770  -0.473713
    C   C57   0.581130  0.586070  0.181670  0.729301
    C   C58   0.541530  0.545970  0.362570  -0.142146
    C   C59   0.555830  0.541270  0.575970  0.340870
    C   C60   0.517130  0.495870  0.690770  -0.180974
    Cu  Cu16  0.038240  0.387400  0.824900  0.841267
    O   O46   0.054000  0.354400  0.573500  -0.594389
    O   O47   0.064400  0.289900  0.366700  -0.522739
    O   O48   0.084300  0.362400  0.988100  -0.475056
    C   C61   0.080600  0.328400  0.515000  0.736132
    C   C62   0.120700  0.328900  0.695900  -0.144849
    C   C63   0.125400  0.347900  0.909300  0.344670
    C   C64   0.170800  0.354600  0.024100  -0.180776
    Cu  Cu17  0.704910  0.720730  0.158230  0.841175
    O   O49   0.720670  0.687730  0.906830  -0.594748
    O   O50   0.731070  0.623230  0.700030  -0.524096
    O   O51   0.750970  0.695730  0.321430  -0.476484
    C   C65   0.747270  0.661730  0.848330  0.740571
    C   C66   0.787370  0.662230  0.029230  -0.152696
    C   C67   0.792070  0.681230  0.242630  0.350697
    C   C68   0.837470  0.687930  0.357430  -0.185799
    Cu  Cu18  0.371570  0.054070  0.491570  0.841442
    O   O52   0.387330  0.021070  0.240170  -0.593343
    O   O53   0.397730  0.956570  0.033370  -0.522766
    O   O54   0.417630  0.029070  0.654770  -0.473818
    C   C69   0.413930  0.995070  0.181670  0.734501
    C   C70   0.454030  0.995570  0.362570  -0.142849
    C   C71   0.458730  0.014570  0.575970  0.341102
    C   C72   0.504130  0.021270  0.690770  -0.182265
