# Generated by REPEAT Assigner based on pymatgen
data_DB12-HIFWAV_freeONLY
_audit_creation_date              2022-05-24
_audit_creation_method            REPEAT_Assigner
_cell_length_a                    9.609700
_cell_length_b                    24.359000
_cell_length_c                    24.804000
_cell_angle_alpha                 91.774000
_cell_angle_beta                  90.000000
_cell_angle_gamma                 90.000000
_cell_volume                      5803.404011
_symmetry_space_group_name_H-M    P1
_symmetry_Int_Tables_number       1
loop_
    _symmetry_equiv_pos_site_id
    _symmetry_equiv_pos_as_xyz
    1  x,y,z
loop_
    _atom_site_type_symbol
    _atom_site_label
    _atom_site_fract_x
    _atom_site_fract_y
    _atom_site_fract_z
    _atom_type_partial_charge
    Zn  Zn1   0.967150  0.232630  0.317940  0.812125
    Zn  Zn2   0.741200  0.012860  0.275890  0.826013
    Zn  Zn3   0.236360  0.032130  0.137470  0.797894
    Zn  Zn4   0.328000  0.340980  0.482260  0.700178
    Zn  Zn5   0.440200  0.216590  0.683910  0.772435
    Zn  Zn6   0.467150  0.267370  0.182060  0.812129
    Zn  Zn7   0.241200  0.487140  0.224110  0.826012
    Zn  Zn8   0.736360  0.467870  0.362530  0.797898
    Zn  Zn9   0.828000  0.159020  0.017740  0.700188
    Zn  Zn10  0.940200  0.283410  0.816090  0.772410
    Zn  Zn11  0.032850  0.767370  0.682060  0.812130
    Zn  Zn12  0.258800  0.987140  0.724110  0.826012
    Zn  Zn13  0.763640  0.967870  0.862530  0.797900
    Zn  Zn14  0.672000  0.659020  0.517740  0.700185
    Zn  Zn15  0.559800  0.783410  0.316090  0.772398
    Zn  Zn16  0.532850  0.732630  0.817940  0.812120
    Zn  Zn17  0.758800  0.512860  0.775890  0.826033
    Zn  Zn18  0.263640  0.532130  0.637470  0.797894
    Zn  Zn19  0.172000  0.840980  0.982260  0.700184
    Zn  Zn20  0.059800  0.716590  0.183910  0.772392
    H   H1    0.178100  0.280300  0.235500  0.067201
    H   H2    0.220400  0.145200  0.310100  0.063468
    H   H3    0.428200  0.158200  0.258100  0.121332
    H   H4    0.927700  0.114000  0.277700  -0.030930
    H   H5    0.742600  0.179900  0.397200  0.072980
    H   H6    0.656800  0.086800  0.384400  0.118388
    H   H7    0.435900  0.994100  0.227800  0.005993
    H   H8    0.710400  0.099000  0.180300  0.016052
    H   H9    0.504000  0.107400  0.125200  0.093019
    H   H10   0.954500  0.051400  0.189200  0.159728
    H   H11   0.190200  0.925500  0.214500  0.013273
    H   H12   0.986100  0.919000  0.271300  0.188852
    H   H13   0.536500  0.428500  0.448200  0.099568
    H   H14   0.493300  0.288400  0.371700  0.037894
    H   H15   0.667400  0.339200  0.325400  0.111829
    H   H16   0.354300  0.417900  0.587600  0.060422
    H   H17   0.133600  0.528000  0.516700  0.058418
    H   H18   0.157600  0.450200  0.454600  0.053057
    H   H19   0.218900  0.280300  0.377300  0.130730
    H   H20   0.993000  0.333600  0.498100  0.095414
    H   H21   0.839000  0.290700  0.430700  0.151000
    H   H22   0.302100  0.302900  0.604900  0.078394
    H   H23   0.575100  0.258300  0.496900  0.126002
    H   H24   0.624800  0.208700  0.578200  0.062938
    H   H25   0.143000  0.212000  0.738100  0.054146
    H   H26   0.205700  0.357800  0.799400  0.072947
    H   H27   0.408300  0.331800  0.743900  0.066807
    H   H28   0.614500  0.895000  0.258100  -0.040676
    H   H29   0.668400  0.867700  0.405800  0.117684
    H   H30   0.729800  0.962600  0.394400  0.139252
    H   H31   0.678100  0.219700  0.264500  0.067200
    H   H32   0.720400  0.354800  0.189900  0.063467
    H   H33   0.928200  0.341800  0.241900  0.121335
    H   H34   0.427700  0.386000  0.222300  -0.030928
    H   H35   0.242600  0.320100  0.102800  0.072978
    H   H36   0.156800  0.413200  0.115600  0.118389
    H   H37   0.935900  0.505900  0.272200  0.005993
    H   H38   0.210400  0.401000  0.319700  0.016053
    H   H39   0.004000  0.392600  0.374800  0.093017
    H   H40   0.454500  0.448600  0.310800  0.159723
    H   H41   0.690200  0.574500  0.285500  0.013274
    H   H42   0.486100  0.581000  0.228700  0.188856
    H   H43   0.036500  0.071500  0.051800  0.099570
    H   H44   0.993300  0.211600  0.128300  0.037896
    H   H45   0.167400  0.160800  0.174600  0.111828
    H   H46   0.854300  0.082100  0.912400  0.060423
    H   H47   0.633600  0.972000  0.983300  0.058421
    H   H48   0.657600  0.049800  0.045400  0.053054
    H   H49   0.718900  0.219700  0.122700  0.130729
    H   H50   0.493000  0.166400  0.001900  0.095415
    H   H51   0.339000  0.209300  0.069300  0.151000
    H   H52   0.802100  0.197100  0.895100  0.078397
    H   H53   0.075100  0.241700  0.003100  0.125999
    H   H54   0.124800  0.291300  0.921800  0.062950
    H   H55   0.643000  0.288000  0.761900  0.053962
    H   H56   0.705700  0.142200  0.700600  0.072994
    H   H57   0.908300  0.168200  0.756100  0.066796
    H   H58   0.114500  0.605000  0.241900  -0.040671
    H   H59   0.168400  0.632300  0.094200  0.117686
    H   H60   0.229800  0.537400  0.105600  0.139252
    H   H61   0.821900  0.719700  0.764500  0.067204
    H   H62   0.779600  0.854800  0.689900  0.063469
    H   H63   0.571800  0.841800  0.741900  0.121335
    H   H64   0.072300  0.886000  0.722300  -0.030932
    H   H65   0.257400  0.820100  0.602800  0.072975
    H   H66   0.343200  0.913200  0.615600  0.118392
    H   H67   0.564100  0.005900  0.772200  0.005992
    H   H68   0.289600  0.901000  0.819700  0.016050
    H   H69   0.496000  0.892600  0.874800  0.093012
    H   H70   0.045500  0.948600  0.810800  0.159705
    H   H71   0.809800  0.074500  0.785500  0.013278
    H   H72   0.013900  0.081000  0.728700  0.188860
    H   H73   0.463500  0.571500  0.551800  0.099564
    H   H74   0.506700  0.711600  0.628300  0.037893
    H   H75   0.332600  0.660800  0.674600  0.111827
    H   H76   0.645700  0.582100  0.412400  0.060421
    H   H77   0.866400  0.472000  0.483300  0.058417
    H   H78   0.842400  0.549800  0.545400  0.053053
    H   H79   0.781100  0.719700  0.622700  0.130735
    H   H80   0.007000  0.666400  0.501900  0.095415
    H   H81   0.161000  0.709300  0.569300  0.151005
    H   H82   0.697900  0.697100  0.395100  0.078400
    H   H83   0.424900  0.741700  0.503100  0.126005
    H   H84   0.375200  0.791300  0.421800  0.062935
    H   H85   0.857000  0.788000  0.261900  0.054151
    H   H86   0.794300  0.642200  0.200600  0.072976
    H   H87   0.591700  0.668200  0.256100  0.066774
    H   H88   0.385500  0.105000  0.741900  -0.040670
    H   H89   0.331600  0.132300  0.594200  0.117685
    H   H90   0.270200  0.037400  0.605600  0.139254
    H   H91   0.321900  0.780300  0.735500  0.067199
    H   H92   0.279600  0.645200  0.810100  0.063471
    H   H93   0.071800  0.658200  0.758100  0.121323
    H   H94   0.572300  0.614000  0.777700  -0.030929
    H   H95   0.757400  0.679900  0.897200  0.072981
    H   H96   0.843200  0.586800  0.884400  0.118386
    H   H97   0.064100  0.494100  0.727800  0.005989
    H   H98   0.789600  0.599000  0.680300  0.016056
    H   H99   0.996000  0.607400  0.625200  0.093025
    H   H100  0.545500  0.551400  0.689200  0.159727
    H   H101  0.309800  0.425500  0.714500  0.013265
    H   H102  0.513900  0.419000  0.771300  0.188870
    H   H103  0.963500  0.928500  0.948200  0.099571
    H   H104  0.006700  0.788400  0.871700  0.037903
    H   H105  0.832600  0.839200  0.825400  0.111793
    H   H106  0.145700  0.917900  0.087600  0.060422
    H   H107  0.366400  0.028000  0.016700  0.058423
    H   H108  0.342400  0.950200  0.954600  0.053053
    H   H109  0.281100  0.780300  0.877300  0.130732
    H   H110  0.507000  0.833600  0.998100  0.095416
    H   H111  0.661000  0.790700  0.930700  0.150997
    H   H112  0.197900  0.802900  0.104900  0.078401
    H   H113  0.924900  0.758300  0.996900  0.126002
    H   H114  0.875200  0.708700  0.078200  0.062939
    H   H115  0.357000  0.712000  0.238100  0.054153
    H   H116  0.294300  0.857800  0.299400  0.072970
    H   H117  0.091700  0.831800  0.243900  0.066779
    H   H118  0.885500  0.395000  0.758100  -0.040706
    H   H119  0.831600  0.367700  0.905800  0.117687
    H   H120  0.770200  0.462600  0.894400  0.139252
    C   C1    0.215500  0.247800  0.247800  0.138518
    C   C2    0.237400  0.174900  0.288400  -0.041382
    C   C3    0.352100  0.181800  0.259600  -0.044235
    C   C4    0.869700  0.118700  0.307500  0.220531
    C   C5    0.773500  0.154700  0.370900  -0.043587
    C   C6    0.724000  0.103200  0.363200  -0.164636
    C   C7    0.480500  0.021600  0.209000  0.223321
    C   C8    0.629600  0.078400  0.183400  0.002134
    C   C9    0.515600  0.083100  0.153000  0.052447
    C   C10   0.988300  0.019100  0.203300  0.046735
    C   C11   0.117600  0.950800  0.216600  0.231537
    C   C12   0.004400  0.947100  0.247800  -0.346476
    C   C13   0.547200  0.399300  0.423600  -0.088132
    C   C14   0.523400  0.323500  0.382000  0.038999
    C   C15   0.619900  0.351100  0.356300  -0.143210
    C   C16   0.302100  0.435900  0.561900  0.020399
    C   C17   0.181800  0.495900  0.523700  0.039525
    C   C18   0.195100  0.453200  0.489200  -0.100787
    C   C19   0.142800  0.287500  0.399600  -0.034848
    C   C20   0.021100  0.317000  0.465600  -0.099612
    C   C21   0.935300  0.293300  0.427900  -0.080342
    C   C22   0.376200  0.285100  0.587700  0.047380
    C   C23   0.524600  0.261200  0.528900  -0.165542
    C   C24   0.552500  0.233500  0.573900  0.022930
    C   C25   0.184200  0.245700  0.746700  0.046590
    C   C26   0.216700  0.324700  0.780200  -0.076811
    C   C27   0.329800  0.310400  0.749400  0.025042
    C   C28   0.633900  0.900300  0.294700  0.310331
    C   C29   0.663000  0.885400  0.373200  -0.149915
    C   C30   0.697800  0.938000  0.367800  -0.121780
    C   C31   0.715500  0.252200  0.252200  0.138521
    C   C32   0.737400  0.325100  0.211600  -0.041374
    C   C33   0.852100  0.318200  0.240400  -0.044246
    C   C34   0.369700  0.381300  0.192500  0.220522
    C   C35   0.273500  0.345300  0.129100  -0.043584
    C   C36   0.224000  0.396800  0.136800  -0.164644
    C   C37   0.980500  0.478400  0.291000  0.223314
    C   C38   0.129600  0.421600  0.316600  0.002134
    C   C39   0.015600  0.416900  0.347000  0.052447
    C   C40   0.488300  0.480900  0.296700  0.046744
    C   C41   0.617600  0.549200  0.283400  0.231535
    C   C42   0.504400  0.552900  0.252200  -0.346479
    C   C43   0.047200  0.100700  0.076400  -0.088134
    C   C44   0.023400  0.176500  0.118000  0.038998
    C   C45   0.119900  0.148900  0.143700  -0.143212
    C   C46   0.802100  0.064100  0.938100  0.020394
    C   C47   0.681800  0.004100  0.976300  0.039520
    C   C48   0.695100  0.046800  0.010800  -0.100776
    C   C49   0.642800  0.212500  0.100400  -0.034842
    C   C50   0.521100  0.183000  0.034400  -0.099615
    C   C51   0.435300  0.206700  0.072100  -0.080341
    C   C52   0.876200  0.214900  0.912300  0.047379
    C   C53   0.024600  0.238800  0.971100  -0.165517
    C   C54   0.052500  0.266500  0.926100  0.022894
    C   C55   0.684200  0.254300  0.753300  0.046863
    C   C56   0.716700  0.175300  0.719800  -0.076852
    C   C57   0.829800  0.189600  0.750600  0.025014
    C   C58   0.133900  0.599700  0.205300  0.310318
    C   C59   0.163000  0.614600  0.126800  -0.149916
    C   C60   0.197800  0.562000  0.132200  -0.121784
    C   C61   0.784500  0.752200  0.752200  0.138504
    C   C62   0.762600  0.825100  0.711600  -0.041373
    C   C63   0.647900  0.818200  0.740400  -0.044251
    C   C64   0.130300  0.881300  0.692500  0.220522
    C   C65   0.226500  0.845300  0.629100  -0.043575
    C   C66   0.276000  0.896800  0.636800  -0.164655
    C   C67   0.519500  0.978400  0.791000  0.223319
    C   C68   0.370400  0.921600  0.816600  0.002143
    C   C69   0.484400  0.916900  0.847000  0.052450
    C   C70   0.011700  0.980900  0.796700  0.046763
    C   C71   0.882400  0.049200  0.783400  0.231527
    C   C72   0.995600  0.052900  0.752200  -0.346489
    C   C73   0.452800  0.600700  0.576400  -0.088120
    C   C74   0.476600  0.676500  0.618000  0.039004
    C   C75   0.380100  0.648900  0.643700  -0.143215
    C   C76   0.697900  0.564100  0.438100  0.020399
    C   C77   0.818200  0.504100  0.476300  0.039531
    C   C78   0.804900  0.546800  0.510800  -0.100787
    C   C79   0.857200  0.712500  0.600400  -0.034853
    C   C80   0.978900  0.683000  0.534400  -0.099613
    C   C81   0.064700  0.706700  0.572100  -0.080356
    C   C82   0.623800  0.714900  0.412300  0.047373
    C   C83   0.475400  0.738800  0.471100  -0.165541
    C   C84   0.447500  0.766500  0.426100  0.022934
    C   C85   0.815800  0.754300  0.253300  0.046557
    C   C86   0.783300  0.675300  0.219800  -0.076832
    C   C87   0.670200  0.689600  0.250600  0.025037
    C   C88   0.366100  0.099700  0.705300  0.310318
    C   C89   0.337000  0.114600  0.626800  -0.149913
    C   C90   0.302200  0.062000  0.632200  -0.121787
    C   C91   0.284500  0.747800  0.747800  0.138522
    C   C92   0.262600  0.674900  0.788400  -0.041395
    C   C93   0.147900  0.681800  0.759600  -0.044214
    C   C94   0.630300  0.618700  0.807500  0.220529
    C   C95   0.726500  0.654700  0.870900  -0.043602
    C   C96   0.776000  0.603200  0.863200  -0.164619
    C   C97   0.019500  0.521600  0.709000  0.223330
    C   C98   0.870400  0.578400  0.683400  0.002130
    C   C99   0.984400  0.583100  0.653000  0.052444
    C   C100  0.511700  0.519100  0.703300  0.046740
    C   C101  0.382400  0.450800  0.716600  0.231535
    C   C102  0.495600  0.447100  0.747800  -0.346480
    C   C103  0.952800  0.899300  0.923600  -0.088126
    C   C104  0.976600  0.823500  0.882000  0.038952
    C   C105  0.880100  0.851100  0.856300  -0.143107
    C   C106  0.197900  0.935900  0.061900  0.020401
    C   C107  0.318200  0.995900  0.023700  0.039509
    C   C108  0.304900  0.953200  0.989200  -0.100766
    C   C109  0.357200  0.787500  0.899600  -0.034851
    C   C110  0.478900  0.817000  0.965600  -0.099627
    C   C111  0.564700  0.793300  0.927900  -0.080328
    C   C112  0.123800  0.785100  0.087700  0.047369
    C   C113  0.975400  0.761200  0.028900  -0.165528
    C   C114  0.947500  0.733500  0.073900  0.022913
    C   C115  0.315800  0.745700  0.246700  0.046558
    C   C116  0.283300  0.824700  0.280200  -0.076823
    C   C117  0.170200  0.810400  0.249400  0.025032
    C   C118  0.866100  0.400300  0.794700  0.310425
    C   C119  0.837000  0.385400  0.873200  -0.149928
    C   C120  0.802200  0.438000  0.867800  -0.121769
    N   N1    0.149700  0.216800  0.281700  -0.304629
    N   N2    0.339600  0.229300  0.232500  -0.420981
    N   N3    0.871300  0.163600  0.336000  -0.289205
    N   N4    0.784500  0.079800  0.321500  -0.276210
    N   N5    0.607500  0.037600  0.220200  -0.429510
    N   N6    0.420900  0.047000  0.169500  -0.425357
    N   N7    0.920000  0.991200  0.239500  -0.261843
    N   N8    0.108300  0.997400  0.188900  -0.388528
    N   N9    0.636600  0.399800  0.383400  -0.229161
    N   N10   0.473200  0.352900  0.425800  -0.217943
    N   N11   0.248600  0.485600  0.570400  -0.314158
    N   N12   0.274600  0.414300  0.513900  -0.169750
    N   N13   0.154300  0.312300  0.447900  -0.233780
    N   N14   0.013000  0.274000  0.385700  -0.310554
    N   N15   0.412500  0.293900  0.537200  -0.260134
    N   N16   0.456600  0.248100  0.611600  -0.299593
    N   N17   0.306700  0.259500  0.728300  -0.334391
    N   N18   0.123600  0.283300  0.778500  -0.269367
    N   N19   0.620800  0.861400  0.328500  -0.250523
    N   N20   0.676300  0.947700  0.315100  -0.353308
    N   N21   0.649700  0.283200  0.218300  -0.304641
    N   N22   0.839600  0.270700  0.267500  -0.420977
    N   N23   0.371300  0.336400  0.164000  -0.289198
    N   N24   0.284500  0.420200  0.178500  -0.276202
    N   N25   0.107500  0.462400  0.279800  -0.429507
    N   N26   0.920900  0.453000  0.330500  -0.425352
    N   N27   0.420000  0.508800  0.260500  -0.261849
    N   N28   0.608300  0.502600  0.311100  -0.388526
    N   N29   0.136600  0.100200  0.116600  -0.229155
    N   N30   0.973200  0.147100  0.074200  -0.217946
    N   N31   0.748600  0.014400  0.929600  -0.314159
    N   N32   0.774600  0.085700  0.986100  -0.169756
    N   N33   0.654300  0.187700  0.052100  -0.233788
    N   N34   0.513000  0.226000  0.114300  -0.310555
    N   N35   0.912500  0.206100  0.962800  -0.260144
    N   N36   0.956600  0.251900  0.888400  -0.299579
    N   N37   0.806700  0.240500  0.771700  -0.334433
    N   N38   0.623600  0.216700  0.721500  -0.269439
    N   N39   0.120800  0.638600  0.171500  -0.250520
    N   N40   0.176300  0.552300  0.184900  -0.353297
    N   N41   0.850300  0.783200  0.718300  -0.304643
    N   N42   0.660400  0.770700  0.767500  -0.420956
    N   N43   0.128700  0.836400  0.664000  -0.289199
    N   N44   0.215500  0.920200  0.678500  -0.276194
    N   N45   0.392500  0.962400  0.779800  -0.429514
    N   N46   0.579100  0.953000  0.830500  -0.425359
    N   N47   0.080000  0.008800  0.760500  -0.261853
    N   N48   0.891700  0.002600  0.811100  -0.388517
    N   N49   0.363400  0.600200  0.616600  -0.229155
    N   N50   0.526800  0.647100  0.574200  -0.217964
    N   N51   0.751400  0.514400  0.429600  -0.314166
    N   N52   0.725400  0.585700  0.486100  -0.169748
    N   N53   0.845700  0.687700  0.552100  -0.233782
    N   N54   0.987000  0.726000  0.614300  -0.310545
    N   N55   0.587500  0.706100  0.462800  -0.260131
    N   N56   0.543400  0.751900  0.388400  -0.299592
    N   N57   0.693300  0.740500  0.271700  -0.334347
    N   N58   0.876400  0.716700  0.221500  -0.269348
    N   N59   0.379200  0.138600  0.671500  -0.250531
    N   N60   0.323700  0.052300  0.684900  -0.353292
    N   N61   0.350300  0.716800  0.781700  -0.304627
    N   N62   0.160400  0.729300  0.732500  -0.420991
    N   N63   0.628700  0.663600  0.836000  -0.289193
    N   N64   0.715500  0.579800  0.821500  -0.276221
    N   N65   0.892500  0.537600  0.720200  -0.429509
    N   N66   0.079100  0.547000  0.669500  -0.425363
    N   N67   0.580000  0.491200  0.739500  -0.261855
    N   N68   0.391700  0.497400  0.688900  -0.388525
    N   N69   0.863400  0.899800  0.883400  -0.229203
    N   N70   0.026800  0.852900  0.925800  -0.217934
    N   N71   0.251400  0.985600  0.070400  -0.314154
    N   N72   0.225400  0.914300  0.013900  -0.169767
    N   N73   0.345700  0.812300  0.947900  -0.233767
    N   N74   0.487000  0.774000  0.885700  -0.310563
    N   N75   0.087500  0.793900  0.037200  -0.260146
    N   N76   0.043400  0.748100  0.111600  -0.299572
    N   N77   0.193300  0.759500  0.228300  -0.334352
    N   N78   0.376400  0.783300  0.278500  -0.269353
    N   N79   0.879200  0.361400  0.828500  -0.250520
    N   N80   0.823700  0.447700  0.815100  -0.353367
