# Generated by REPEAT Assigner based on pymatgen
data_DB12-MUXJAQ02_clean
_audit_creation_date              2022-05-24
_audit_creation_method            REPEAT_Assigner
_cell_length_a                    7.679900
_cell_length_b                    9.874200
_cell_length_c                    14.893000
_cell_angle_alpha                 90.000000
_cell_angle_beta                  98.364000
_cell_angle_gamma                 90.000000
_cell_volume                      1117.366752
_symmetry_space_group_name_H-M    P1
_symmetry_Int_Tables_number       1
loop_
    _symmetry_equiv_pos_site_id
    _symmetry_equiv_pos_as_xyz
    1  x,y,z
loop_
    _atom_site_type_symbol
    _atom_site_label
    _atom_site_fract_x
    _atom_site_fract_y
    _atom_site_fract_z
    _atom_type_partial_charge
    Eu  Eu1  0.853410  0.544480  0.139560  1.861341
    Eu  Eu2  0.646590  0.044480  0.360440  1.861354
    Eu  Eu3  0.146590  0.455520  0.860440  1.861363
    Eu  Eu4  0.353410  0.955520  0.639560  1.861336
    H   H1   0.884000  0.301700  0.515300  -0.097231
    H   H2   0.701700  0.609200  0.635800  -0.039166
    H   H3   0.672700  0.611800  0.365300  0.040038
    H   H4   0.616000  0.801700  0.984700  -0.097233
    H   H5   0.798300  0.109200  0.864200  -0.039162
    H   H6   0.827300  0.111800  0.134700  0.040035
    H   H7   0.116000  0.698300  0.484700  -0.097237
    H   H8   0.298300  0.390800  0.364200  -0.039166
    H   H9   0.327300  0.388200  0.634700  0.040031
    H   H10  0.384000  0.198300  0.015300  -0.097236
    H   H11  0.201700  0.890800  0.135800  -0.039163
    H   H12  0.172700  0.888200  0.865300  0.040040
    C   C1   0.808300  0.363200  0.343900  0.940991
    C   C2   0.779900  0.441700  0.426600  -0.635985
    C   C3   0.830400  0.386400  0.511900  0.843081
    C   C4   0.725200  0.567700  0.582800  0.686457
    C   C5   0.674500  0.633400  0.501300  -0.587367
    C   C6   0.588800  0.769800  0.499200  1.035731
    C   C7   0.703700  0.569600  0.421200  0.322586
    C   C8   0.456400  0.468700  0.039100  0.509823
    C   C9   0.691700  0.863200  0.156100  0.940998
    C   C10  0.720100  0.941700  0.073400  -0.636006
    C   C11  0.669600  0.886400  0.988100  0.843113
    C   C12  0.774800  0.067700  0.917200  0.686465
    C   C13  0.825500  0.133400  0.998700  -0.587374
    C   C14  0.911200  0.269800  0.000800  1.035751
    C   C15  0.796300  0.069600  0.078800  0.322594
    C   C16  0.043600  0.968700  0.460900  0.509844
    C   C17  0.191700  0.636800  0.656100  0.940989
    C   C18  0.220100  0.558300  0.573400  -0.636001
    C   C19  0.169600  0.613600  0.488100  0.843106
    C   C20  0.274800  0.432300  0.417200  0.686473
    C   C21  0.325500  0.366600  0.498700  -0.587376
    C   C22  0.411200  0.230200  0.500800  1.035741
    C   C23  0.296300  0.430400  0.578800  0.322596
    C   C24  0.543600  0.531300  0.960900  0.509839
    C   C25  0.308300  0.136800  0.843900  0.941019
    C   C26  0.279900  0.058300  0.926600  -0.636019
    C   C27  0.330400  0.113600  0.011900  0.843112
    C   C28  0.225200  0.932300  0.082800  0.686463
    C   C29  0.174500  0.866600  0.001300  -0.587389
    C   C30  0.088800  0.730200  0.999200  1.035771
    C   C31  0.203700  0.930400  0.921200  0.322606
    C   C32  0.956400  0.031300  0.539100  0.509820
    N   N1   0.807100  0.446600  0.589400  -0.834507
    N   N2   0.692900  0.946600  0.910600  -0.834527
    N   N3   0.192900  0.553400  0.410600  -0.834524
    N   N4   0.307100  0.053400  0.089400  -0.834519
    O   O1   0.805000  0.423800  0.270200  -0.727903
    O   O2   0.834800  0.236800  0.353860  -0.725314
    O   O3   0.587600  0.839700  0.428500  -0.733593
    O   O4   0.523400  0.805300  0.567600  -0.815128
    O   O5   0.553100  0.450400  0.113200  -0.510341
    O   O6   0.297100  0.438000  0.020670  -0.533522
    O   O7   0.695000  0.923800  0.229800  -0.727905
    O   O8   0.665200  0.736800  0.146140  -0.725316
    O   O9   0.912400  0.339700  0.071500  -0.733582
    O   O10  0.976600  0.305300  0.932400  -0.815164
    O   O11  0.946900  0.950400  0.386800  -0.510348
    O   O12  0.202900  0.938000  0.479330  -0.533526
    O   O13  0.195000  0.576200  0.729800  -0.727899
    O   O14  0.165200  0.763200  0.646140  -0.725309
    O   O15  0.412400  0.160300  0.571500  -0.733586
    O   O16  0.476600  0.194700  0.432400  -0.815146
    O   O17  0.446900  0.549600  0.886800  -0.510351
    O   O18  0.702900  0.562000  0.979330  -0.533523
    O   O19  0.305000  0.076200  0.770200  -0.727919
    O   O20  0.334800  0.263200  0.853860  -0.725321
    O   O21  0.087600  0.660300  0.928500  -0.733606
    O   O22  0.023400  0.694700  0.067600  -0.815156
    O   O23  0.053100  0.049600  0.613200  -0.510336
    O   O24  0.797100  0.062000  0.520670  -0.533521
