# Generated by REPEAT Assigner based on pymatgen
data_DB12-EBISEQ_clean
_audit_creation_date              2022-05-24
_audit_creation_method            REPEAT_Assigner
_cell_length_a                    10.854600
_cell_length_b                    23.626100
_cell_length_c                    9.679900
_cell_angle_alpha                 90.000000
_cell_angle_beta                  104.140000
_cell_angle_gamma                 90.000000
_cell_volume                      2407.215057
_symmetry_space_group_name_H-M    P1
_symmetry_Int_Tables_number       1
loop_
    _symmetry_equiv_pos_site_id
    _symmetry_equiv_pos_as_xyz
    1  x,y,z
loop_
    _atom_site_type_symbol
    _atom_site_label
    _atom_site_fract_x
    _atom_site_fract_y
    _atom_site_fract_z
    _atom_type_partial_charge
    C   C1   0.163820  0.060300  0.235810  0.535288
    C   C2   0.544240  0.159230  0.336200  -0.006462
    C   C3   0.661680  0.146800  0.319900  -0.366253
    C   C4   0.824760  0.071570  0.425200  0.105958
    C   C5   0.934610  0.110110  0.494200  0.141219
    C   C6   0.923150  0.134720  0.635870  -0.209066
    C   C7   0.040110  0.168940  0.710300  0.226017
    C   C8   0.022120  0.193430  0.848700  -0.135631
    C   C9   0.223760  0.216610  0.036600  -0.294447
    C   C10  0.296450  0.263680  0.066600  0.083869
    C   C11  0.146750  0.283390  0.882830  0.083180
    C   C12  0.078420  0.029220  0.113250  -0.011910
    C   C13  0.836180  0.560300  0.264190  0.535275
    C   C14  0.921580  0.529220  0.386750  -0.011901
    C   C15  0.013680  0.492020  0.362110  -0.103794
    C   C16  0.908450  0.537110  0.525320  -0.177876
    C   C17  0.603060  0.554610  0.771730  0.566276
    C   C18  0.550720  0.526130  0.630860  -0.080095
    C   C19  0.479180  0.476710  0.624460  -0.132628
    C   C20  0.570910  0.549400  0.505240  -0.067986
    C   C21  0.390150  0.587120  0.030870  0.061697
    C   C22  0.455760  0.659230  0.163800  -0.006458
    C   C23  0.986320  0.992020  0.137890  -0.103803
    C   C24  0.338320  0.646800  0.180100  -0.366259
    C   C25  0.175240  0.571570  0.074800  0.105922
    C   C26  0.065390  0.610110  0.005800  0.141223
    C   C27  0.076850  0.634720  0.864130  -0.209063
    C   C28  0.959890  0.668940  0.789700  0.226016
    C   C29  0.977880  0.693430  0.651300  -0.135601
    C   C30  0.776240  0.716610  0.463400  -0.294423
    C   C31  0.703550  0.763680  0.433400  0.083862
    C   C32  0.853250  0.783390  0.617170  0.083200
    C   C33  0.836180  0.939700  0.764190  0.535274
    C   C34  0.091550  0.037110  0.974680  -0.177868
    C   C35  0.921580  0.970780  0.886750  -0.011930
    C   C36  0.013680  0.007980  0.862110  -0.103776
    C   C37  0.908450  0.962890  0.025320  -0.177838
    C   C38  0.603060  0.945390  0.271730  0.566242
    C   C39  0.550720  0.973870  0.130860  -0.080088
    C   C40  0.479180  0.023290  0.124460  -0.132618
    C   C41  0.570910  0.950600  0.005240  -0.067978
    C   C42  0.390150  0.912880  0.530870  0.061705
    C   C43  0.455760  0.840770  0.663800  -0.006458
    C   C44  0.338320  0.853200  0.680100  -0.366267
    C   C45  0.396940  0.054610  0.728270  0.566267
    C   C46  0.175240  0.928430  0.574800  0.105899
    C   C47  0.065390  0.889890  0.505800  0.141235
    C   C48  0.076850  0.865280  0.364130  -0.209102
    C   C49  0.959890  0.831060  0.289700  0.226045
    C   C50  0.977880  0.806570  0.151300  -0.135618
    C   C51  0.776240  0.783390  0.963400  -0.294440
    C   C52  0.703550  0.736320  0.933400  0.083856
    C   C53  0.853250  0.716610  0.117170  0.083160
    C   C54  0.163820  0.439700  0.735810  0.535287
    C   C55  0.078420  0.470780  0.613250  -0.011911
    C   C56  0.449280  0.026130  0.869140  -0.080107
    C   C57  0.986320  0.507980  0.637890  -0.103788
    C   C58  0.091550  0.462890  0.474680  -0.177864
    C   C59  0.396940  0.445390  0.228270  0.566251
    C   C60  0.449280  0.473870  0.369140  -0.080104
    C   C61  0.520820  0.523290  0.375540  -0.132603
    C   C62  0.429090  0.450600  0.494760  -0.067962
    C   C63  0.609850  0.412880  0.969130  0.061704
    C   C64  0.544240  0.340770  0.836200  -0.006467
    C   C65  0.661680  0.353200  0.819900  -0.366257
    C   C66  0.824760  0.428430  0.925200  0.105922
    C   C67  0.520820  0.976710  0.875540  -0.132607
    C   C68  0.934610  0.389890  0.994200  0.141235
    C   C69  0.923150  0.365280  0.135870  -0.209099
    C   C70  0.040110  0.331060  0.210300  0.226052
    C   C71  0.022120  0.306570  0.348700  -0.135638
    C   C72  0.223760  0.283390  0.536600  -0.294468
    C   C73  0.296450  0.236320  0.566600  0.083871
    C   C74  0.146750  0.216610  0.382830  0.083165
    C   C75  0.429090  0.049400  0.994760  -0.067969
    C   C76  0.609850  0.087120  0.469130  0.061708
    Cd  Cd1  0.319340  0.105540  0.472380  1.192450
    Cd  Cd2  0.680660  0.605540  0.027620  1.192446
    Cd  Cd3  0.680660  0.894460  0.527620  1.192449
    Cd  Cd4  0.319340  0.394460  0.972380  1.192449
    H   H1   0.976900  0.986600  0.232000  0.166440
    H   H2   0.939200  0.141600  0.428000  -0.037358
    H   H3   0.014900  0.088400  0.509600  -0.045323
    H   H4   0.910600  0.103500  0.699200  0.023037
    H   H5   0.847300  0.159400  0.619300  0.043369
    H   H6   0.116000  0.144200  0.730100  0.006415
    H   H7   0.054100  0.200000  0.647100  -0.061048
    H   H8   0.942400  0.215600  0.828900  0.050880
    H   H9   0.013500  0.162100  0.913500  0.073739
    H   H10  0.236500  0.181600  0.086100  0.207877
    H   H11  0.369700  0.267300  0.143300  0.081500
    H   H12  0.154000  0.062500  0.957400  0.176674
    H   H13  0.093700  0.302800  0.804500  0.101982
    H   H14  0.023100  0.486600  0.268000  0.166435
    H   H15  0.846000  0.562500  0.542600  0.176676
    H   H16  0.464800  0.460900  0.709400  0.175657
    H   H17  0.619100  0.583200  0.508900  0.089041
    H   H18  0.385900  0.556600  0.966000  0.094287
    H   H19  0.507900  0.689200  0.210500  0.148199
    H   H20  0.293200  0.666100  0.238400  0.183920
    H   H21  0.164300  0.558600  0.168300  -0.022453
    H   H22  0.174500  0.537800  0.014000  0.044312
    H   H23  0.535200  0.960900  0.790600  0.175641
    H   H24  0.060800  0.641600  0.072000  -0.037357
    H   H25  0.985100  0.588400  0.990400  -0.045325
    H   H26  0.089400  0.603500  0.800800  0.023036
    H   H27  0.152700  0.659400  0.880700  0.043367
    H   H28  0.884000  0.644200  0.769900  0.006412
    H   H29  0.945900  0.700000  0.852900  -0.061051
    H   H30  0.057600  0.715600  0.671100  0.050872
    H   H31  0.986500  0.662100  0.586500  0.073731
    H   H32  0.763500  0.681600  0.413900  0.207861
    H   H33  0.630300  0.767300  0.356700  0.081507
    H   H34  0.380900  0.083200  0.991100  0.089033
    H   H35  0.906300  0.802800  0.695500  0.101978
    H   H36  0.023100  0.013400  0.768000  0.166423
    H   H37  0.846000  0.937500  0.042600  0.176658
    H   H38  0.464800  0.039100  0.209400  0.175648
    H   H39  0.619100  0.916800  0.008900  0.089035
    H   H40  0.385900  0.943400  0.466000  0.094281
    H   H41  0.507900  0.810800  0.710500  0.148206
    H   H42  0.293200  0.833900  0.738400  0.183922
    H   H43  0.164300  0.941400  0.668300  -0.022446
    H   H44  0.174500  0.962200  0.514000  0.044327
    H   H45  0.614100  0.056600  0.534000  0.094279
    H   H46  0.060800  0.858400  0.572000  -0.037357
    H   H47  0.985100  0.911600  0.490400  -0.045331
    H   H48  0.089400  0.896500  0.300800  0.023044
    H   H49  0.152700  0.840600  0.380700  0.043376
    H   H50  0.884000  0.855800  0.269900  0.006408
    H   H51  0.945900  0.800000  0.352900  -0.061055
    H   H52  0.057600  0.784400  0.171100  0.050878
    H   H53  0.986500  0.837900  0.086500  0.073736
    H   H54  0.763500  0.818400  0.913900  0.207875
    H   H55  0.630300  0.732700  0.856700  0.081499
    H   H56  0.492100  0.189200  0.289500  0.148203
    H   H57  0.906300  0.697200  0.195500  0.101986
    H   H58  0.976900  0.513400  0.732000  0.166436
    H   H59  0.154000  0.437500  0.457400  0.176673
    H   H60  0.535200  0.539100  0.290600  0.175644
    H   H61  0.380900  0.416800  0.491100  0.089029
    H   H62  0.614100  0.443400  0.034000  0.094284
    H   H63  0.492100  0.310800  0.789500  0.148209
    H   H64  0.706800  0.333900  0.761600  0.183918
    H   H65  0.835700  0.441400  0.831700  -0.022458
    H   H66  0.825500  0.462200  0.986000  0.044323
    H   H67  0.706800  0.166100  0.261600  0.183918
    H   H68  0.939200  0.358400  0.928000  -0.037357
    H   H69  0.014900  0.411600  0.009600  -0.045328
    H   H70  0.910600  0.396500  0.199200  0.023045
    H   H71  0.847300  0.340600  0.119300  0.043374
    H   H72  0.116000  0.355800  0.230100  0.006405
    H   H73  0.054100  0.300000  0.147100  -0.061057
    H   H74  0.942400  0.284400  0.328900  0.050881
    H   H75  0.013500  0.337900  0.413500  0.073740
    H   H76  0.236500  0.318400  0.586100  0.207891
    H   H77  0.369700  0.232700  0.643300  0.081498
    H   H78  0.835700  0.058600  0.331700  -0.022461
    H   H79  0.093700  0.197200  0.304500  0.101986
    H   H80  0.825500  0.037800  0.486000  0.044296
    N   N1   0.511750  0.121910  0.430470  -0.438732
    N   N2   0.297730  0.899500  0.594920  0.239163
    N   N3   0.872180  0.770090  0.080020  0.199109
    N   N4   0.751520  0.694490  0.030810  -0.488923
    N   N5   0.511750  0.378090  0.930470  -0.438734
    N   N6   0.702270  0.399500  0.905080  0.239150
    N   N7   0.127820  0.270090  0.419980  0.199129
    N   N8   0.248480  0.194490  0.469190  -0.488938
    N   N9   0.702270  0.100500  0.405080  0.239132
    N   N10  0.127820  0.229910  0.919980  0.199120
    N   N11  0.248480  0.305510  0.969190  -0.488951
    N   N12  0.488250  0.621910  0.069530  -0.438730
    N   N13  0.297730  0.600500  0.094920  0.239153
    N   N14  0.872180  0.729910  0.580020  0.199095
    N   N15  0.751520  0.805510  0.530810  -0.488966
    N   N16  0.488250  0.878090  0.569530  -0.438737
    O   O1   0.164050  0.044580  0.361010  -0.619201
    O   O2   0.768250  0.900390  0.789550  -0.582093
    O   O3   0.576500  0.966400  0.380360  -0.572335
    O   O4   0.669940  0.901710  0.277660  -0.647850
    O   O5   0.164050  0.455420  0.861010  -0.619197
    O   O6   0.231750  0.400390  0.710450  -0.582112
    O   O7   0.423500  0.466400  0.119640  -0.572340
    O   O8   0.330060  0.401710  0.222340  -0.647848
    O   O9   0.231750  0.099610  0.210450  -0.582105
    O   O10  0.423500  0.033600  0.619640  -0.572345
    O   O11  0.330060  0.098290  0.722340  -0.647861
    O   O12  0.835950  0.544580  0.138990  -0.619197
    O   O13  0.768250  0.599610  0.289550  -0.582097
    O   O14  0.576500  0.533600  0.880360  -0.572360
    O   O15  0.669940  0.598290  0.777660  -0.647864
    O   O16  0.835950  0.955420  0.638990  -0.619174
