# Generated by REPEAT Assigner based on pymatgen
data_DB12-NOSTUM_freeONLY
_audit_creation_date              2022-05-24
_audit_creation_method            REPEAT_Assigner
_cell_length_a                    13.510400
_cell_length_b                    14.110700
_cell_length_c                    8.800000
_cell_angle_alpha                 90.000000
_cell_angle_beta                  114.617000
_cell_angle_gamma                 90.000000
_cell_volume                      1525.165926
_symmetry_space_group_name_H-M    P1
_symmetry_Int_Tables_number       1
loop_
    _symmetry_equiv_pos_site_id
    _symmetry_equiv_pos_as_xyz
    1  x,y,z
loop_
    _atom_site_type_symbol
    _atom_site_label
    _atom_site_fract_x
    _atom_site_fract_y
    _atom_site_fract_z
    _atom_type_partial_charge
    O   O1   0.091860  0.575970  0.115420  -0.587479
    O   O2   0.105150  0.524470  0.885400  -0.524094
    O   O3   0.193280  0.624810  0.734950  -0.544699
    H   H1   0.151000  0.584500  0.739800  0.379298
    O   O4   0.098820  0.683740  0.405200  -0.578172
    C   C1   0.122470  0.584600  0.001450  0.706731
    C   C2   0.187960  0.669900  0.998660  -0.330425
    C   C3   0.218460  0.735080  0.129850  -0.142941
    H   H2   0.197100  0.725300  0.216400  0.108880
    C   C4   0.219850  0.685690  0.867200  0.336272
    H   H3   0.066000  0.737500  0.373000  0.339560
    H   H4   0.136000  0.665700  0.352000  0.328610
    O   O5   0.591860  0.075970  0.115420  -0.587477
    O   O6   0.605150  0.024470  0.885400  -0.524092
    O   O7   0.693280  0.124810  0.734950  -0.544703
    H   H5   0.651000  0.084500  0.739800  0.379299
    O   O8   0.598820  0.183740  0.405200  -0.578167
    C   C5   0.622470  0.084600  0.001450  0.706731
    C   C6   0.687960  0.169900  0.998660  -0.330431
    C   C7   0.718460  0.235080  0.129850  -0.142933
    H   H6   0.697100  0.225300  0.216400  0.108878
    C   C8   0.719850  0.185690  0.867200  0.336281
    H   H7   0.566000  0.237500  0.373000  0.339558
    H   H8   0.636000  0.165700  0.352000  0.328609
    O   O9   0.908140  0.575970  0.384580  -0.587478
    O   O10  0.894850  0.524470  0.614600  -0.524092
    O   O11  0.806720  0.624810  0.765050  -0.544697
    H   H9   0.849000  0.584500  0.760200  0.379297
    O   O12  0.901180  0.683740  0.094800  -0.578172
    C   C9   0.877530  0.584600  0.498550  0.706728
    C   C10  0.812040  0.669900  0.501340  -0.330422
    C   C11  0.781540  0.735080  0.370150  -0.142943
    H   H10  0.802900  0.725300  0.283600  0.108880
    C   C12  0.780150  0.685690  0.632800  0.336268
    H   H11  0.934000  0.737500  0.127000  0.339560
    H   H12  0.864000  0.665700  0.148000  0.328611
    O   O13  0.408140  0.075970  0.384580  -0.587478
    O   O14  0.394850  0.024470  0.614600  -0.524092
    O   O15  0.306720  0.124810  0.765050  -0.544701
    H   H13  0.349000  0.084500  0.760200  0.379298
    O   O16  0.401180  0.183740  0.094800  -0.578168
    C   C13  0.377530  0.084600  0.498550  0.706731
    C   C14  0.312040  0.169900  0.501340  -0.330429
    C   C15  0.281540  0.235080  0.370150  -0.142935
    H   H14  0.302900  0.225300  0.283600  0.108877
    C   C16  0.280150  0.185690  0.632800  0.336278
    H   H15  0.434000  0.237500  0.127000  0.339558
    H   H16  0.364000  0.165700  0.148000  0.328610
    O   O17  0.908140  0.424030  0.884580  -0.587477
    O   O18  0.894850  0.475530  0.114600  -0.524092
    O   O19  0.806720  0.375190  0.265050  -0.544701
    H   H17  0.849000  0.415500  0.260200  0.379296
    O   O20  0.901180  0.316260  0.594800  -0.578166
    C   C17  0.877530  0.415400  0.998550  0.706731
    C   C18  0.812040  0.330100  0.001340  -0.330434
    C   C19  0.781540  0.264920  0.870150  -0.142928
    H   H18  0.802900  0.274700  0.783600  0.108873
    C   C20  0.780150  0.314310  0.132800  0.336281
    H   H19  0.934000  0.262500  0.627000  0.339556
    H   H20  0.864000  0.334300  0.648000  0.328612
    O   O21  0.408140  0.924030  0.884580  -0.587477
    O   O22  0.394850  0.975530  0.114600  -0.524093
    O   O23  0.306720  0.875190  0.265050  -0.544705
    H   H21  0.349000  0.915500  0.260200  0.379297
    O   O24  0.401180  0.816260  0.594800  -0.578162
    C   C21  0.377530  0.915400  0.998550  0.706735
    C   C22  0.312040  0.830100  0.001340  -0.330441
    C   C23  0.281540  0.764920  0.870150  -0.142920
    H   H22  0.302900  0.774700  0.783600  0.108871
    C   C24  0.280150  0.814310  0.132800  0.336290
    H   H23  0.434000  0.762500  0.627000  0.339554
    H   H24  0.364000  0.834300  0.648000  0.328610
    O   O25  0.091860  0.424030  0.615420  -0.587478
    O   O26  0.105150  0.475530  0.385400  -0.524094
    O   O27  0.193280  0.375190  0.234950  -0.544702
    H   H25  0.151000  0.415500  0.239800  0.379297
    O   O28  0.098820  0.316260  0.905200  -0.578165
    C   C25  0.122470  0.415400  0.501450  0.706733
    C   C26  0.187960  0.330100  0.498660  -0.330437
    C   C27  0.218460  0.264920  0.629850  -0.142926
    H   H26  0.197100  0.274700  0.716400  0.108874
    C   C28  0.219850  0.314310  0.367200  0.336284
    H   H27  0.066000  0.262500  0.873000  0.339555
    H   H28  0.136000  0.334300  0.852000  0.328611
    O   O29  0.591860  0.924030  0.615420  -0.587477
    O   O30  0.605150  0.975530  0.385400  -0.524093
    O   O31  0.693280  0.875190  0.234950  -0.544707
    H   H29  0.651000  0.915500  0.239800  0.379298
    O   O32  0.598820  0.816260  0.905200  -0.578161
    C   C29  0.622470  0.915400  0.501450  0.706735
    C   C30  0.687960  0.830100  0.498660  -0.330444
    C   C31  0.718460  0.764920  0.629850  -0.142918
    H   H30  0.697100  0.774700  0.716400  0.108871
    C   C32  0.719850  0.814310  0.367200  0.336293
    H   H31  0.566000  0.762500  0.873000  0.339553
    H   H32  0.636000  0.834300  0.852000  0.328609
    Mg  Mg1  0.000000  0.578670  0.250000  1.016901
    Mg  Mg2  0.500000  0.078670  0.250000  1.016899
    Mg  Mg3  0.000000  0.421330  0.750000  1.016899
    Mg  Mg4  0.500000  0.921330  0.750000  1.016897
