# Generated by REPEAT Assigner based on pymatgen
data_DB12-BEPVOJ01_clean
_audit_creation_date              2022-05-24
_audit_creation_method            REPEAT_Assigner
_cell_length_a                    11.357100
_cell_length_b                    11.496400
_cell_length_c                    12.935200
_cell_angle_alpha                 88.867000
_cell_angle_beta                  64.614000
_cell_angle_gamma                 69.305000
_cell_volume                      1409.915930
_symmetry_space_group_name_H-M    P1
_symmetry_Int_Tables_number       1
loop_
    _symmetry_equiv_pos_site_id
    _symmetry_equiv_pos_as_xyz
    1  x,y,z
loop_
    _atom_site_type_symbol
    _atom_site_label
    _atom_site_fract_x
    _atom_site_fract_y
    _atom_site_fract_z
    _atom_type_partial_charge
    Cu  Cu1  0.863190  0.058790  0.006150  0.274477
    Cu  Cu2  0.170280  0.877940  0.594230  0.221316
    Cu  Cu3  0.642660  0.819230  0.293110  0.203024
    Cu  Cu4  0.136810  0.941210  0.993850  0.274487
    Cu  Cu5  0.829720  0.122060  0.405770  0.221312
    Cu  Cu6  0.357340  0.180770  0.706890  0.203014
    H   H1   0.867100  0.888100  0.705100  0.153383
    H   H2   0.612000  0.198000  0.225400  0.338991
    H   H3   0.917600  0.821000  0.305200  0.068314
    H   H4   0.762700  0.857800  0.401800  0.053231
    H   H5   0.221800  0.702000  0.325300  0.091789
    H   H6   0.142200  0.812400  0.277100  0.015374
    H   H7   0.218800  0.837200  0.345300  0.089916
    H   H8   0.723500  0.583000  0.157700  0.018053
    H   H9   0.601300  0.598000  0.281100  0.057801
    H   H10  0.880100  0.358500  0.282100  0.168852
    H   H11  0.011300  0.572500  0.410900  0.138166
    H   H12  0.890200  0.409100  0.958500  0.089580
    H   H13  0.985100  0.349900  0.020200  0.116417
    H   H14  0.968900  0.262700  0.939700  0.122440
    H   H15  0.612000  0.952600  0.698000  0.016336
    H   H16  0.629900  0.850600  0.607800  0.013463
    H   H17  0.662100  0.810200  0.712300  -0.017922
    H   H18  0.452300  0.341400  0.406900  0.088379
    H   H19  0.501300  0.444500  0.432000  0.083231
    H   H20  0.403600  0.474300  0.370600  0.068051
    H   H21  0.016300  0.377700  0.366000  0.021163
    H   H22  0.132900  0.111900  0.294900  0.153384
    H   H23  0.388000  0.802000  0.774600  0.338981
    H   H24  0.082400  0.179000  0.694800  0.068312
    H   H25  0.237300  0.142200  0.598200  0.053235
    H   H26  0.778200  0.298000  0.674700  0.091788
    H   H27  0.857800  0.187600  0.722900  0.015378
    H   H28  0.781200  0.162800  0.654700  0.089914
    H   H29  0.276500  0.417000  0.842300  0.018036
    H   H30  0.398700  0.402000  0.718900  0.057808
    H   H31  0.119900  0.641500  0.717900  0.168848
    H   H32  0.988700  0.427500  0.589100  0.138163
    H   H33  0.109800  0.590900  0.041500  0.089579
    H   H34  0.014900  0.650100  0.979800  0.116413
    H   H35  0.031100  0.737300  0.060300  0.122437
    H   H36  0.388000  0.047400  0.302000  0.016342
    H   H37  0.370100  0.149400  0.392200  0.013468
    H   H38  0.337900  0.189800  0.287700  -0.017920
    H   H39  0.547700  0.658600  0.593100  0.088380
    H   H40  0.498700  0.555500  0.568000  0.083221
    H   H41  0.596400  0.525700  0.629400  0.068047
    H   H42  0.983700  0.622300  0.634000  0.021164
    C   C1   0.034160  0.821020  0.450360  0.195354
    C   C2   0.987770  0.988150  0.852270  -0.188993
    C   C3   0.797420  0.330140  0.095800  0.247057
    C   C4   0.697900  0.916740  0.177610  -0.200516
    C   C5   0.903660  0.822070  0.467230  -0.099516
    C   C6   0.606700  0.364280  0.263230  0.122852
    C   C7   0.819520  0.852700  0.584810  -0.051244
    C   C8   0.859360  0.800190  0.377400  0.046902
    C   C9   0.699270  0.418620  0.196560  -0.233484
    C   C10  0.868880  0.668960  0.354660  0.232575
    C   C11  0.166000  0.790400  0.339650  -0.234944
    C   C12  0.792230  0.544340  0.280820  0.351180
    C   C13  0.697200  0.544790  0.227440  0.052302
    C   C14  0.877600  0.437140  0.301300  -0.388732
    C   C15  0.955900  0.564420  0.377700  -0.311025
    C   C16  0.921400  0.338700  0.994500  -0.322518
    C   C17  0.666800  0.867900  0.657400  0.087621
    C   C18  0.479600  0.410200  0.378500  -0.196356
    C   C19  0.958700  0.449000  0.350700  0.131702
    C   C20  0.356300  0.848090  0.489510  -0.259318
    C   C21  0.965840  0.178980  0.549640  0.195369
    C   C22  0.012230  0.011850  0.147730  -0.188998
    C   C23  0.202580  0.669860  0.904200  0.247070
    C   C24  0.302100  0.083260  0.822390  -0.200509
    C   C25  0.096340  0.177930  0.532770  -0.099543
    C   C26  0.393300  0.635720  0.736770  0.122837
    C   C27  0.180480  0.147300  0.415190  -0.051224
    C   C28  0.140640  0.199810  0.622600  0.046910
    C   C29  0.300730  0.581380  0.803440  -0.233504
    C   C30  0.131120  0.331040  0.645340  0.232561
    C   C31  0.834000  0.209600  0.660350  -0.234952
    C   C32  0.207770  0.455660  0.719180  0.351128
    C   C33  0.302800  0.455210  0.772560  0.052358
    C   C34  0.122400  0.562860  0.698700  -0.388704
    C   C35  0.044100  0.435580  0.622300  -0.311007
    C   C36  0.078600  0.661300  0.005500  -0.322515
    C   C37  0.333200  0.132100  0.342600  0.087603
    C   C38  0.520400  0.589800  0.621500  -0.196341
    C   C39  0.041300  0.551000  0.649300  0.131688
    C   C40  0.643700  0.151910  0.510490  -0.259319
    N   N1   0.766770  0.228660  0.100600  -0.245147
    N   N2   0.787820  0.657790  0.307730  -0.326498
    N   N3   0.897720  0.867860  0.631940  0.136932
    N   N4   0.031150  0.847880  0.551870  -0.285176
    N   N5   0.737070  0.976920  0.111230  -0.266037
    N   N6   0.652270  0.250850  0.201930  -0.207386
    N   N7   0.056150  0.943030  0.757390  -0.127360
    N   N8   0.467100  0.835390  0.420020  -0.154052
    N   N9   0.233230  0.771340  0.899400  -0.245160
    N   N10  0.212180  0.342210  0.692270  -0.326477
    N   N11  0.102280  0.132140  0.368060  0.136922
    N   N12  0.968850  0.152120  0.448130  -0.285171
    N   N13  0.262930  0.023080  0.888770  -0.266045
    N   N14  0.347730  0.749150  0.798070  -0.207366
    N   N15  0.943850  0.056970  0.242610  -0.127356
    N   N16  0.532900  0.164610  0.579980  -0.154052
